data_str_m2_o1_o1_pcu_sym.14
_audit_creation_date              2020-01-03
_audit_creation_method            'Materials Studio'
_symmetry_space_group_name_H-M    'P1'
_symmetry_Int_Tables_number       1
_symmetry_cell_setting            triclinic
loop_
_symmetry_equiv_pos_as_xyz
  x,y,z
_cell_length_a                    31.3135
_cell_length_b                    29.9481
_cell_length_c                    28.9034
_cell_angle_alpha                 90.0000
_cell_angle_beta                  90.0000
_cell_angle_gamma                 90.0000
loop_
_atom_site_label
_atom_site_type_symbol
_atom_site_fract_x
_atom_site_fract_y
_atom_site_fract_z
_atom_site_U_iso_or_equiv
_atom_site_adp_type
_atom_site_occupancy
C1     C     0.05930   0.19050   0.16667   0.00000  Uiso   1.00
C2     C     0.00801   0.28838   0.30888   0.00000  Uiso   1.00
C3     C     0.00801   0.28838   0.02445   0.00000  Uiso   1.00
C4     C     0.49199   0.21162   0.30888   0.00000  Uiso   1.00
C5     C     0.25801   0.46162   0.02445   0.00000  Uiso   1.00
C6     C     0.24199   0.03838   0.30888   0.00000  Uiso   1.00
C7     C     0.24199   0.03838   0.02445   0.00000  Uiso   1.00
C8     C     0.25801   0.46162   0.30888   0.00000  Uiso   1.00
C9     C     0.39088   0.14106   0.12464   0.00000  Uiso   1.00
C10    C     0.10912   0.35895   0.20870   0.00000  Uiso   1.00
C11    C     0.10912   0.35895   0.12464   0.00000  Uiso   1.00
C12    C     0.44070   0.30950   0.16667   0.00000  Uiso   1.00
C13    C     0.39088   0.14106   0.20870   0.00000  Uiso   1.00
C14    C     0.10888   0.14082   0.20870   0.00000  Uiso   1.00
C15    C     0.39112   0.35918   0.12463   0.00000  Uiso   1.00
C16    C     0.39112   0.35918   0.20870   0.00000  Uiso   1.00
C17    C     0.10888   0.14082   0.12463   0.00000  Uiso   1.00
C18    C     0.14112   0.39082   0.12463   0.00000  Uiso   1.00
C19    C     0.35888   0.10918   0.20870   0.00000  Uiso   1.00
C20    C     0.35888   0.10918   0.12463   0.00000  Uiso   1.00
C21    C     0.14112   0.39082   0.20870   0.00000  Uiso   1.00
C22    C     0.35912   0.39106   0.20870   0.00000  Uiso   1.00
C23    C     0.44065   0.19056   0.16667   0.00000  Uiso   1.00
C24    C     0.14088   0.10895   0.12464   0.00000  Uiso   1.00
C25    C     0.14088   0.10895   0.20870   0.00000  Uiso   1.00
C26    C     0.35912   0.39106   0.12464   0.00000  Uiso   1.00
C27    C     0.09293   0.34289   0.16667   0.00000  Uiso   1.00
C28    C     0.40707   0.15711   0.16667   0.00000  Uiso   1.00
C29    C     0.40724   0.34306   0.16667   0.00000  Uiso   1.00
C30    C     0.09276   0.15695   0.16667   0.00000  Uiso   1.00
C31    C     0.34276   0.09306   0.16667   0.00000  Uiso   1.00
C32    C     0.15724   0.40695   0.16667   0.00000  Uiso   1.00
C33    C     0.15707   0.09289   0.16667   0.00000  Uiso   1.00
C34    C     0.05935   0.30945   0.16667   0.00000  Uiso   1.00
C35    C     0.34293   0.40711   0.16667   0.00000  Uiso   1.00
C36    C     0.30935   0.44056   0.16667   0.00000  Uiso   1.00
C37    C     0.19065   0.05945   0.16667   0.00000  Uiso   1.00
C38    C     0.19070   0.44050   0.16667   0.00000  Uiso   1.00
C39    C     0.30930   0.05950   0.16667   0.00000  Uiso   1.00
C40    C     0.49199   0.21162   0.02445   0.00000  Uiso   1.00
Cu41   Cu    0.00000   0.25000   0.21355   0.00000  Uiso   1.00
Cu42   Cu    0.00000   0.25000   0.11978   0.00000  Uiso   1.00
Cu43   Cu    0.25000   0.00000   0.21355   0.00000  Uiso   1.00
Cu44   Cu    0.25000   0.00000   0.11978   0.00000  Uiso   1.00
H45    H     0.40285   0.15305   0.09175   0.00000  Uiso   1.00
H46    H     0.34685   0.09724   0.24159   0.00000  Uiso   1.00
H47    H     0.34685   0.09724   0.09175   0.00000  Uiso   1.00
H48    H     0.15315   0.40276   0.24159   0.00000  Uiso   1.00
H49    H     0.34715   0.40305   0.24158   0.00000  Uiso   1.00
H50    H     0.15285   0.09695   0.09175   0.00000  Uiso   1.00
H51    H     0.15285   0.09695   0.24158   0.00000  Uiso   1.00
H52    H     0.34715   0.40305   0.09175   0.00000  Uiso   1.00
H53    H     0.00149   0.17025   0.07412   0.00000  Uiso   1.00
H54    H     0.49851   0.32975   0.25921   0.00000  Uiso   1.00
H55    H     0.49851   0.32975   0.07412   0.00000  Uiso   1.00
H56    H     0.09715   0.34695   0.24158   0.00000  Uiso   1.00
H57    H     0.00149   0.17025   0.25921   0.00000  Uiso   1.00
H58    H     0.24851   0.42025   0.07412   0.00000  Uiso   1.00
H59    H     0.25149   0.07975   0.25921   0.00000  Uiso   1.00
H60    H     0.25149   0.07975   0.07412   0.00000  Uiso   1.00
H61    H     0.24851   0.42025   0.25921   0.00000  Uiso   1.00
H62    H     0.09715   0.34695   0.09175   0.00000  Uiso   1.00
H63    H     0.40285   0.15305   0.24158   0.00000  Uiso   1.00
H64    H     0.09685   0.15276   0.24159   0.00000  Uiso   1.00
H65    H     0.40315   0.34724   0.09175   0.00000  Uiso   1.00
H66    H     0.40315   0.34724   0.24159   0.00000  Uiso   1.00
H67    H     0.09685   0.15276   0.09175   0.00000  Uiso   1.00
H68    H     0.15315   0.40276   0.09175   0.00000  Uiso   1.00
N69    N     0.00000   0.25000   0.28402   0.00000  Uiso   1.00
N70    N     0.00000   0.25000   0.04931   0.00000  Uiso   1.00
N71    N     0.25000   0.00000   0.28402   0.00000  Uiso   1.00
N72    N     0.25000   0.00000   0.04931   0.00000  Uiso   1.00
O73    O     0.04508   0.20491   0.20625   0.00000  Uiso   1.00
O74    O     0.20491   0.04509   0.12709   0.00000  Uiso   1.00
O75    O     0.20491   0.04509   0.20625   0.00000  Uiso   1.00
O76    O     0.29508   0.45491   0.12709   0.00000  Uiso   1.00
O77    O     0.20491   0.45491   0.12709   0.00000  Uiso   1.00
O78    O     0.29508   0.04509   0.20625   0.00000  Uiso   1.00
O79    O     0.29508   0.04509   0.12709   0.00000  Uiso   1.00
O80    O     0.20491   0.45491   0.20625   0.00000  Uiso   1.00
O81    O     0.48439   0.17132   0.04568   0.00000  Uiso   1.00
O82    O     0.01561   0.32868   0.28765   0.00000  Uiso   1.00
O83    O     0.01561   0.32868   0.04568   0.00000  Uiso   1.00
O84    O     0.45491   0.29509   0.12709   0.00000  Uiso   1.00
O85    O     0.48439   0.17132   0.28765   0.00000  Uiso   1.00
O86    O     0.26561   0.42132   0.04568   0.00000  Uiso   1.00
O87    O     0.23439   0.07868   0.28765   0.00000  Uiso   1.00
O88    O     0.23439   0.07868   0.04568   0.00000  Uiso   1.00
O89    O     0.26561   0.42132   0.28765   0.00000  Uiso   1.00
O90    O     0.45491   0.29509   0.20625   0.00000  Uiso   1.00
O91    O     0.04508   0.20491   0.12709   0.00000  Uiso   1.00
O92    O     0.45491   0.20491   0.12709   0.00000  Uiso   1.00
O93    O     0.04508   0.29509   0.20625   0.00000  Uiso   1.00
O94    O     0.04508   0.29509   0.12709   0.00000  Uiso   1.00
O95    O     0.45491   0.20491   0.20625   0.00000  Uiso   1.00
O96    O     0.29508   0.45491   0.20625   0.00000  Uiso   1.00
C97    C     0.55930   0.19050   0.16667   0.00000  Uiso   1.00
C98    C     0.50801   0.28838   0.30888   0.00000  Uiso   1.00
C99    C     0.50801   0.28838   0.02445   0.00000  Uiso   1.00
C100   C     0.99199   0.21162   0.30888   0.00000  Uiso   1.00
C101   C     0.75801   0.46162   0.02445   0.00000  Uiso   1.00
C102   C     0.74199   0.03838   0.30888   0.00000  Uiso   1.00
C103   C     0.74199   0.03838   0.02445   0.00000  Uiso   1.00
C104   C     0.75801   0.46162   0.30888   0.00000  Uiso   1.00
C105   C     0.89088   0.14106   0.12464   0.00000  Uiso   1.00
C106   C     0.60912   0.35895   0.20870   0.00000  Uiso   1.00
C107   C     0.60912   0.35895   0.12464   0.00000  Uiso   1.00
C108   C     0.94070   0.30950   0.16667   0.00000  Uiso   1.00
C109   C     0.89088   0.14106   0.20870   0.00000  Uiso   1.00
C110   C     0.60888   0.14082   0.20870   0.00000  Uiso   1.00
C111   C     0.89112   0.35918   0.12463   0.00000  Uiso   1.00
C112   C     0.89112   0.35918   0.20870   0.00000  Uiso   1.00
C113   C     0.60888   0.14082   0.12463   0.00000  Uiso   1.00
C114   C     0.64112   0.39082   0.12463   0.00000  Uiso   1.00
C115   C     0.85888   0.10918   0.20870   0.00000  Uiso   1.00
C116   C     0.85888   0.10918   0.12463   0.00000  Uiso   1.00
C117   C     0.64112   0.39082   0.20870   0.00000  Uiso   1.00
C118   C     0.85912   0.39106   0.20870   0.00000  Uiso   1.00
C119   C     0.94065   0.19056   0.16667   0.00000  Uiso   1.00
C120   C     0.64088   0.10895   0.12464   0.00000  Uiso   1.00
C121   C     0.64088   0.10895   0.20870   0.00000  Uiso   1.00
C122   C     0.85912   0.39106   0.12464   0.00000  Uiso   1.00
C123   C     0.59293   0.34289   0.16667   0.00000  Uiso   1.00
C124   C     0.90707   0.15711   0.16667   0.00000  Uiso   1.00
C125   C     0.90724   0.34306   0.16667   0.00000  Uiso   1.00
C126   C     0.59276   0.15695   0.16667   0.00000  Uiso   1.00
C127   C     0.84276   0.09306   0.16667   0.00000  Uiso   1.00
C128   C     0.65724   0.40695   0.16667   0.00000  Uiso   1.00
C129   C     0.65707   0.09289   0.16667   0.00000  Uiso   1.00
C130   C     0.55935   0.30945   0.16667   0.00000  Uiso   1.00
C131   C     0.84293   0.40711   0.16667   0.00000  Uiso   1.00
C132   C     0.80935   0.44056   0.16667   0.00000  Uiso   1.00
C133   C     0.69065   0.05945   0.16667   0.00000  Uiso   1.00
C134   C     0.69070   0.44050   0.16667   0.00000  Uiso   1.00
C135   C     0.80930   0.05950   0.16667   0.00000  Uiso   1.00
C136   C     0.99199   0.21162   0.02445   0.00000  Uiso   1.00
Cu137  Cu    0.50000   0.25000   0.21355   0.00000  Uiso   1.00
Cu138  Cu    0.50000   0.25000   0.11978   0.00000  Uiso   1.00
Cu139  Cu    0.75000   0.00000   0.21355   0.00000  Uiso   1.00
Cu140  Cu    0.75000   0.00000   0.11978   0.00000  Uiso   1.00
H141   H     0.90285   0.15305   0.09175   0.00000  Uiso   1.00
H142   H     0.84685   0.09724   0.24159   0.00000  Uiso   1.00
H143   H     0.84685   0.09724   0.09175   0.00000  Uiso   1.00
H144   H     0.65315   0.40276   0.24159   0.00000  Uiso   1.00
H145   H     0.84715   0.40305   0.24158   0.00000  Uiso   1.00
H146   H     0.65285   0.09695   0.09175   0.00000  Uiso   1.00
H147   H     0.65285   0.09695   0.24158   0.00000  Uiso   1.00
H148   H     0.84715   0.40305   0.09175   0.00000  Uiso   1.00
H149   H     0.50149   0.17025   0.07412   0.00000  Uiso   1.00
H150   H     0.99851   0.32975   0.25921   0.00000  Uiso   1.00
H151   H     0.99851   0.32975   0.07412   0.00000  Uiso   1.00
H152   H     0.59715   0.34695   0.24158   0.00000  Uiso   1.00
H153   H     0.50149   0.17025   0.25921   0.00000  Uiso   1.00
H154   H     0.74851   0.42025   0.07412   0.00000  Uiso   1.00
H155   H     0.75149   0.07975   0.25921   0.00000  Uiso   1.00
H156   H     0.75149   0.07975   0.07412   0.00000  Uiso   1.00
H157   H     0.74851   0.42025   0.25921   0.00000  Uiso   1.00
H158   H     0.59715   0.34695   0.09175   0.00000  Uiso   1.00
H159   H     0.90285   0.15305   0.24158   0.00000  Uiso   1.00
H160   H     0.59685   0.15276   0.24159   0.00000  Uiso   1.00
H161   H     0.90315   0.34724   0.09175   0.00000  Uiso   1.00
H162   H     0.90315   0.34724   0.24159   0.00000  Uiso   1.00
H163   H     0.59685   0.15276   0.09175   0.00000  Uiso   1.00
H164   H     0.65315   0.40276   0.09175   0.00000  Uiso   1.00
N165   N     0.50000   0.25000   0.28402   0.00000  Uiso   1.00
N166   N     0.50000   0.25000   0.04931   0.00000  Uiso   1.00
N167   N     0.75000   0.00000   0.28402   0.00000  Uiso   1.00
N168   N     0.75000   0.00000   0.04931   0.00000  Uiso   1.00
O169   O     0.54508   0.20491   0.20625   0.00000  Uiso   1.00
O170   O     0.70491   0.04509   0.12709   0.00000  Uiso   1.00
O171   O     0.70491   0.04509   0.20625   0.00000  Uiso   1.00
O172   O     0.79508   0.45491   0.12709   0.00000  Uiso   1.00
O173   O     0.70491   0.45491   0.12709   0.00000  Uiso   1.00
O174   O     0.79508   0.04509   0.20625   0.00000  Uiso   1.00
O175   O     0.79508   0.04509   0.12709   0.00000  Uiso   1.00
O176   O     0.70491   0.45491   0.20625   0.00000  Uiso   1.00
O177   O     0.98439   0.17132   0.04568   0.00000  Uiso   1.00
O178   O     0.51561   0.32868   0.28765   0.00000  Uiso   1.00
O179   O     0.51561   0.32868   0.04568   0.00000  Uiso   1.00
O180   O     0.95491   0.29509   0.12709   0.00000  Uiso   1.00
O181   O     0.98439   0.17132   0.28765   0.00000  Uiso   1.00
O182   O     0.76561   0.42132   0.04568   0.00000  Uiso   1.00
O183   O     0.73439   0.07868   0.28765   0.00000  Uiso   1.00
O184   O     0.73439   0.07868   0.04568   0.00000  Uiso   1.00
O185   O     0.76561   0.42132   0.28765   0.00000  Uiso   1.00
O186   O     0.95491   0.29509   0.20625   0.00000  Uiso   1.00
O187   O     0.54508   0.20491   0.12709   0.00000  Uiso   1.00
O188   O     0.95491   0.20491   0.12709   0.00000  Uiso   1.00
O189   O     0.54508   0.29509   0.20625   0.00000  Uiso   1.00
O190   O     0.54508   0.29509   0.12709   0.00000  Uiso   1.00
O191   O     0.95491   0.20491   0.20625   0.00000  Uiso   1.00
O192   O     0.79508   0.45491   0.20625   0.00000  Uiso   1.00
C193   C     0.05930   0.69050   0.16667   0.00000  Uiso   1.00
C194   C     0.00801   0.78838   0.30888   0.00000  Uiso   1.00
C195   C     0.00801   0.78838   0.02445   0.00000  Uiso   1.00
C196   C     0.49199   0.71162   0.30888   0.00000  Uiso   1.00
C197   C     0.25801   0.96162   0.02445   0.00000  Uiso   1.00
C198   C     0.24199   0.53838   0.30888   0.00000  Uiso   1.00
C199   C     0.24199   0.53838   0.02445   0.00000  Uiso   1.00
C200   C     0.25801   0.96162   0.30888   0.00000  Uiso   1.00
C201   C     0.39088   0.64106   0.12464   0.00000  Uiso   1.00
C202   C     0.10912   0.85895   0.20870   0.00000  Uiso   1.00
C203   C     0.10912   0.85895   0.12464   0.00000  Uiso   1.00
C204   C     0.44070   0.80950   0.16667   0.00000  Uiso   1.00
C205   C     0.39088   0.64106   0.20870   0.00000  Uiso   1.00
C206   C     0.10888   0.64082   0.20870   0.00000  Uiso   1.00
C207   C     0.39112   0.85918   0.12463   0.00000  Uiso   1.00
C208   C     0.39112   0.85918   0.20870   0.00000  Uiso   1.00
C209   C     0.10888   0.64082   0.12463   0.00000  Uiso   1.00
C210   C     0.14112   0.89082   0.12463   0.00000  Uiso   1.00
C211   C     0.35888   0.60918   0.20870   0.00000  Uiso   1.00
C212   C     0.35888   0.60918   0.12463   0.00000  Uiso   1.00
C213   C     0.14112   0.89082   0.20870   0.00000  Uiso   1.00
C214   C     0.35912   0.89106   0.20870   0.00000  Uiso   1.00
C215   C     0.44065   0.69056   0.16667   0.00000  Uiso   1.00
C216   C     0.14088   0.60895   0.12464   0.00000  Uiso   1.00
C217   C     0.14088   0.60895   0.20870   0.00000  Uiso   1.00
C218   C     0.35912   0.89106   0.12464   0.00000  Uiso   1.00
C219   C     0.09293   0.84289   0.16667   0.00000  Uiso   1.00
C220   C     0.40707   0.65711   0.16667   0.00000  Uiso   1.00
C221   C     0.40724   0.84306   0.16667   0.00000  Uiso   1.00
C222   C     0.09276   0.65695   0.16667   0.00000  Uiso   1.00
C223   C     0.34276   0.59306   0.16667   0.00000  Uiso   1.00
C224   C     0.15724   0.90695   0.16667   0.00000  Uiso   1.00
C225   C     0.15707   0.59289   0.16667   0.00000  Uiso   1.00
C226   C     0.05935   0.80945   0.16667   0.00000  Uiso   1.00
C227   C     0.34293   0.90711   0.16667   0.00000  Uiso   1.00
C228   C     0.30935   0.94056   0.16667   0.00000  Uiso   1.00
C229   C     0.19065   0.55945   0.16667   0.00000  Uiso   1.00
C230   C     0.19070   0.94050   0.16667   0.00000  Uiso   1.00
C231   C     0.30930   0.55950   0.16667   0.00000  Uiso   1.00
C232   C     0.49199   0.71162   0.02445   0.00000  Uiso   1.00
Cu233  Cu    0.00000   0.75000   0.21355   0.00000  Uiso   1.00
Cu234  Cu    0.00000   0.75000   0.11978   0.00000  Uiso   1.00
Cu235  Cu    0.25000   0.50000   0.21355   0.00000  Uiso   1.00
Cu236  Cu    0.25000   0.50000   0.11978   0.00000  Uiso   1.00
H237   H     0.40285   0.65305   0.09175   0.00000  Uiso   1.00
H238   H     0.34685   0.59724   0.24159   0.00000  Uiso   1.00
H239   H     0.34685   0.59724   0.09175   0.00000  Uiso   1.00
H240   H     0.15315   0.90276   0.24159   0.00000  Uiso   1.00
H241   H     0.34715   0.90305   0.24158   0.00000  Uiso   1.00
H242   H     0.15285   0.59695   0.09175   0.00000  Uiso   1.00
H243   H     0.15285   0.59695   0.24158   0.00000  Uiso   1.00
H244   H     0.34715   0.90305   0.09175   0.00000  Uiso   1.00
H245   H     0.00149   0.67025   0.07412   0.00000  Uiso   1.00
H246   H     0.49851   0.82975   0.25921   0.00000  Uiso   1.00
H247   H     0.49851   0.82975   0.07412   0.00000  Uiso   1.00
H248   H     0.09715   0.84695   0.24158   0.00000  Uiso   1.00
H249   H     0.00149   0.67025   0.25921   0.00000  Uiso   1.00
H250   H     0.24851   0.92025   0.07412   0.00000  Uiso   1.00
H251   H     0.25149   0.57975   0.25921   0.00000  Uiso   1.00
H252   H     0.25149   0.57975   0.07412   0.00000  Uiso   1.00
H253   H     0.24851   0.92025   0.25921   0.00000  Uiso   1.00
H254   H     0.09715   0.84695   0.09175   0.00000  Uiso   1.00
H255   H     0.40285   0.65305   0.24158   0.00000  Uiso   1.00
H256   H     0.09685   0.65276   0.24159   0.00000  Uiso   1.00
H257   H     0.40315   0.84724   0.09175   0.00000  Uiso   1.00
H258   H     0.40315   0.84724   0.24159   0.00000  Uiso   1.00
H259   H     0.09685   0.65276   0.09175   0.00000  Uiso   1.00
H260   H     0.15315   0.90276   0.09175   0.00000  Uiso   1.00
N261   N     0.00000   0.75000   0.28402   0.00000  Uiso   1.00
N262   N     0.00000   0.75000   0.04931   0.00000  Uiso   1.00
N263   N     0.25000   0.50000   0.28402   0.00000  Uiso   1.00
N264   N     0.25000   0.50000   0.04931   0.00000  Uiso   1.00
O265   O     0.04508   0.70491   0.20625   0.00000  Uiso   1.00
O266   O     0.20491   0.54509   0.12709   0.00000  Uiso   1.00
O267   O     0.20491   0.54509   0.20625   0.00000  Uiso   1.00
O268   O     0.29508   0.95491   0.12709   0.00000  Uiso   1.00
O269   O     0.20491   0.95491   0.12709   0.00000  Uiso   1.00
O270   O     0.29508   0.54509   0.20625   0.00000  Uiso   1.00
O271   O     0.29508   0.54509   0.12709   0.00000  Uiso   1.00
O272   O     0.20491   0.95491   0.20625   0.00000  Uiso   1.00
O273   O     0.48439   0.67132   0.04568   0.00000  Uiso   1.00
O274   O     0.01561   0.82868   0.28765   0.00000  Uiso   1.00
O275   O     0.01561   0.82868   0.04568   0.00000  Uiso   1.00
O276   O     0.45491   0.79509   0.12709   0.00000  Uiso   1.00
O277   O     0.48439   0.67132   0.28765   0.00000  Uiso   1.00
O278   O     0.26561   0.92132   0.04568   0.00000  Uiso   1.00
O279   O     0.23439   0.57868   0.28765   0.00000  Uiso   1.00
O280   O     0.23439   0.57868   0.04568   0.00000  Uiso   1.00
O281   O     0.26561   0.92132   0.28765   0.00000  Uiso   1.00
O282   O     0.45491   0.79509   0.20625   0.00000  Uiso   1.00
O283   O     0.04508   0.70491   0.12709   0.00000  Uiso   1.00
O284   O     0.45491   0.70491   0.12709   0.00000  Uiso   1.00
O285   O     0.04508   0.79509   0.20625   0.00000  Uiso   1.00
O286   O     0.04508   0.79509   0.12709   0.00000  Uiso   1.00
O287   O     0.45491   0.70491   0.20625   0.00000  Uiso   1.00
O288   O     0.29508   0.95491   0.20625   0.00000  Uiso   1.00
C289   C     0.55930   0.69050   0.16667   0.00000  Uiso   1.00
C290   C     0.50801   0.78838   0.30888   0.00000  Uiso   1.00
C291   C     0.50801   0.78838   0.02445   0.00000  Uiso   1.00
C292   C     0.99199   0.71162   0.30888   0.00000  Uiso   1.00
C293   C     0.75801   0.96162   0.02445   0.00000  Uiso   1.00
C294   C     0.74199   0.53838   0.30888   0.00000  Uiso   1.00
C295   C     0.74199   0.53838   0.02445   0.00000  Uiso   1.00
C296   C     0.75801   0.96162   0.30888   0.00000  Uiso   1.00
C297   C     0.89088   0.64106   0.12464   0.00000  Uiso   1.00
C298   C     0.60912   0.85895   0.20870   0.00000  Uiso   1.00
C299   C     0.60912   0.85895   0.12464   0.00000  Uiso   1.00
C300   C     0.94070   0.80950   0.16667   0.00000  Uiso   1.00
C301   C     0.89088   0.64106   0.20870   0.00000  Uiso   1.00
C302   C     0.60888   0.64082   0.20870   0.00000  Uiso   1.00
C303   C     0.89112   0.85918   0.12463   0.00000  Uiso   1.00
C304   C     0.89112   0.85918   0.20870   0.00000  Uiso   1.00
C305   C     0.60888   0.64082   0.12463   0.00000  Uiso   1.00
C306   C     0.64112   0.89082   0.12463   0.00000  Uiso   1.00
C307   C     0.85888   0.60918   0.20870   0.00000  Uiso   1.00
C308   C     0.85888   0.60918   0.12463   0.00000  Uiso   1.00
C309   C     0.64112   0.89082   0.20870   0.00000  Uiso   1.00
C310   C     0.85912   0.89106   0.20870   0.00000  Uiso   1.00
C311   C     0.94065   0.69056   0.16667   0.00000  Uiso   1.00
C312   C     0.64088   0.60895   0.12464   0.00000  Uiso   1.00
C313   C     0.64088   0.60895   0.20870   0.00000  Uiso   1.00
C314   C     0.85912   0.89106   0.12464   0.00000  Uiso   1.00
C315   C     0.59293   0.84289   0.16667   0.00000  Uiso   1.00
C316   C     0.90707   0.65711   0.16667   0.00000  Uiso   1.00
C317   C     0.90724   0.84306   0.16667   0.00000  Uiso   1.00
C318   C     0.59276   0.65695   0.16667   0.00000  Uiso   1.00
C319   C     0.84276   0.59306   0.16667   0.00000  Uiso   1.00
C320   C     0.65724   0.90695   0.16667   0.00000  Uiso   1.00
C321   C     0.65707   0.59289   0.16667   0.00000  Uiso   1.00
C322   C     0.55935   0.80945   0.16667   0.00000  Uiso   1.00
C323   C     0.84293   0.90711   0.16667   0.00000  Uiso   1.00
C324   C     0.80935   0.94056   0.16667   0.00000  Uiso   1.00
C325   C     0.69065   0.55945   0.16667   0.00000  Uiso   1.00
C326   C     0.69070   0.94050   0.16667   0.00000  Uiso   1.00
C327   C     0.80930   0.55950   0.16667   0.00000  Uiso   1.00
C328   C     0.99199   0.71162   0.02445   0.00000  Uiso   1.00
Cu329  Cu    0.50000   0.75000   0.21355   0.00000  Uiso   1.00
Cu330  Cu    0.50000   0.75000   0.11978   0.00000  Uiso   1.00
Cu331  Cu    0.75000   0.50000   0.21355   0.00000  Uiso   1.00
Cu332  Cu    0.75000   0.50000   0.11978   0.00000  Uiso   1.00
H333   H     0.90285   0.65305   0.09175   0.00000  Uiso   1.00
H334   H     0.84685   0.59724   0.24159   0.00000  Uiso   1.00
H335   H     0.84685   0.59724   0.09175   0.00000  Uiso   1.00
H336   H     0.65315   0.90276   0.24159   0.00000  Uiso   1.00
H337   H     0.84715   0.90305   0.24158   0.00000  Uiso   1.00
H338   H     0.65285   0.59695   0.09175   0.00000  Uiso   1.00
H339   H     0.65285   0.59695   0.24158   0.00000  Uiso   1.00
H340   H     0.84715   0.90305   0.09175   0.00000  Uiso   1.00
H341   H     0.50149   0.67025   0.07412   0.00000  Uiso   1.00
H342   H     0.99851   0.82975   0.25921   0.00000  Uiso   1.00
H343   H     0.99851   0.82975   0.07412   0.00000  Uiso   1.00
H344   H     0.59715   0.84695   0.24158   0.00000  Uiso   1.00
H345   H     0.50149   0.67025   0.25921   0.00000  Uiso   1.00
H346   H     0.74851   0.92025   0.07412   0.00000  Uiso   1.00
H347   H     0.75149   0.57975   0.25921   0.00000  Uiso   1.00
H348   H     0.75149   0.57975   0.07412   0.00000  Uiso   1.00
H349   H     0.74851   0.92025   0.25921   0.00000  Uiso   1.00
H350   H     0.59715   0.84695   0.09175   0.00000  Uiso   1.00
H351   H     0.90285   0.65305   0.24158   0.00000  Uiso   1.00
H352   H     0.59685   0.65276   0.24159   0.00000  Uiso   1.00
H353   H     0.90315   0.84724   0.09175   0.00000  Uiso   1.00
H354   H     0.90315   0.84724   0.24159   0.00000  Uiso   1.00
H355   H     0.59685   0.65276   0.09175   0.00000  Uiso   1.00
H356   H     0.65315   0.90276   0.09175   0.00000  Uiso   1.00
N357   N     0.50000   0.75000   0.28402   0.00000  Uiso   1.00
N358   N     0.50000   0.75000   0.04931   0.00000  Uiso   1.00
N359   N     0.75000   0.50000   0.28402   0.00000  Uiso   1.00
N360   N     0.75000   0.50000   0.04931   0.00000  Uiso   1.00
O361   O     0.54508   0.70491   0.20625   0.00000  Uiso   1.00
O362   O     0.70491   0.54509   0.12709   0.00000  Uiso   1.00
O363   O     0.70491   0.54509   0.20625   0.00000  Uiso   1.00
O364   O     0.79508   0.95491   0.12709   0.00000  Uiso   1.00
O365   O     0.70491   0.95491   0.12709   0.00000  Uiso   1.00
O366   O     0.79508   0.54509   0.20625   0.00000  Uiso   1.00
O367   O     0.79508   0.54509   0.12709   0.00000  Uiso   1.00
O368   O     0.70491   0.95491   0.20625   0.00000  Uiso   1.00
O369   O     0.98439   0.67132   0.04568   0.00000  Uiso   1.00
O370   O     0.51561   0.82868   0.28765   0.00000  Uiso   1.00
O371   O     0.51561   0.82868   0.04568   0.00000  Uiso   1.00
O372   O     0.95491   0.79509   0.12709   0.00000  Uiso   1.00
O373   O     0.98439   0.67132   0.28765   0.00000  Uiso   1.00
O374   O     0.76561   0.92132   0.04568   0.00000  Uiso   1.00
O375   O     0.73439   0.57868   0.28765   0.00000  Uiso   1.00
O376   O     0.73439   0.57868   0.04568   0.00000  Uiso   1.00
O377   O     0.76561   0.92132   0.28765   0.00000  Uiso   1.00
O378   O     0.95491   0.79509   0.20625   0.00000  Uiso   1.00
O379   O     0.54508   0.70491   0.12709   0.00000  Uiso   1.00
O380   O     0.95491   0.70491   0.12709   0.00000  Uiso   1.00
O381   O     0.54508   0.79509   0.20625   0.00000  Uiso   1.00
O382   O     0.54508   0.79509   0.12709   0.00000  Uiso   1.00
O383   O     0.95491   0.70491   0.20625   0.00000  Uiso   1.00
O384   O     0.79508   0.95491   0.20625   0.00000  Uiso   1.00
C385   C     0.05930   0.19050   0.50000   0.00000  Uiso   1.00
C386   C     0.00801   0.28838   0.64222   0.00000  Uiso   1.00
C387   C     0.00801   0.28838   0.35778   0.00000  Uiso   1.00
C388   C     0.49199   0.21162   0.64222   0.00000  Uiso   1.00
C389   C     0.25801   0.46162   0.35778   0.00000  Uiso   1.00
C390   C     0.24199   0.03838   0.64222   0.00000  Uiso   1.00
C391   C     0.24199   0.03838   0.35778   0.00000  Uiso   1.00
C392   C     0.25801   0.46162   0.64222   0.00000  Uiso   1.00
C393   C     0.39088   0.14106   0.45797   0.00000  Uiso   1.00
C394   C     0.10912   0.35895   0.54203   0.00000  Uiso   1.00
C395   C     0.10912   0.35895   0.45797   0.00000  Uiso   1.00
C396   C     0.44070   0.30950   0.50000   0.00000  Uiso   1.00
C397   C     0.39088   0.14106   0.54203   0.00000  Uiso   1.00
C398   C     0.10888   0.14082   0.54203   0.00000  Uiso   1.00
C399   C     0.39112   0.35918   0.45797   0.00000  Uiso   1.00
C400   C     0.39112   0.35918   0.54203   0.00000  Uiso   1.00
C401   C     0.10888   0.14082   0.45797   0.00000  Uiso   1.00
C402   C     0.14112   0.39082   0.45797   0.00000  Uiso   1.00
C403   C     0.35888   0.10918   0.54203   0.00000  Uiso   1.00
C404   C     0.35888   0.10918   0.45797   0.00000  Uiso   1.00
C405   C     0.14112   0.39082   0.54203   0.00000  Uiso   1.00
C406   C     0.35912   0.39106   0.54203   0.00000  Uiso   1.00
C407   C     0.44065   0.19056   0.50000   0.00000  Uiso   1.00
C408   C     0.14088   0.10895   0.45797   0.00000  Uiso   1.00
C409   C     0.14088   0.10895   0.54203   0.00000  Uiso   1.00
C410   C     0.35912   0.39106   0.45797   0.00000  Uiso   1.00
C411   C     0.09293   0.34289   0.50000   0.00000  Uiso   1.00
C412   C     0.40707   0.15711   0.50000   0.00000  Uiso   1.00
C413   C     0.40724   0.34306   0.50000   0.00000  Uiso   1.00
C414   C     0.09276   0.15695   0.50000   0.00000  Uiso   1.00
C415   C     0.34276   0.09306   0.50000   0.00000  Uiso   1.00
C416   C     0.15724   0.40695   0.50000   0.00000  Uiso   1.00
C417   C     0.15707   0.09289   0.50000   0.00000  Uiso   1.00
C418   C     0.05935   0.30945   0.50000   0.00000  Uiso   1.00
C419   C     0.34293   0.40711   0.50000   0.00000  Uiso   1.00
C420   C     0.30935   0.44056   0.50000   0.00000  Uiso   1.00
C421   C     0.19065   0.05945   0.50000   0.00000  Uiso   1.00
C422   C     0.19070   0.44050   0.50000   0.00000  Uiso   1.00
C423   C     0.30930   0.05950   0.50000   0.00000  Uiso   1.00
C424   C     0.49199   0.21162   0.35778   0.00000  Uiso   1.00
Cu425  Cu    0.00000   0.25000   0.54689   0.00000  Uiso   1.00
Cu426  Cu    0.00000   0.25000   0.45311   0.00000  Uiso   1.00
Cu427  Cu    0.25000   0.00000   0.54689   0.00000  Uiso   1.00
Cu428  Cu    0.25000   0.00000   0.45311   0.00000  Uiso   1.00
H429   H     0.40285   0.15305   0.42508   0.00000  Uiso   1.00
H430   H     0.34685   0.09724   0.57492   0.00000  Uiso   1.00
H431   H     0.34685   0.09724   0.42508   0.00000  Uiso   1.00
H432   H     0.15315   0.40276   0.57492   0.00000  Uiso   1.00
H433   H     0.34715   0.40305   0.57492   0.00000  Uiso   1.00
H434   H     0.15285   0.09695   0.42508   0.00000  Uiso   1.00
H435   H     0.15285   0.09695   0.57492   0.00000  Uiso   1.00
H436   H     0.34715   0.40305   0.42508   0.00000  Uiso   1.00
H437   H     0.00149   0.17025   0.40746   0.00000  Uiso   1.00
H438   H     0.49851   0.32975   0.59254   0.00000  Uiso   1.00
H439   H     0.49851   0.32975   0.40746   0.00000  Uiso   1.00
H440   H     0.09715   0.34695   0.57492   0.00000  Uiso   1.00
H441   H     0.00149   0.17025   0.59254   0.00000  Uiso   1.00
H442   H     0.24851   0.42025   0.40746   0.00000  Uiso   1.00
H443   H     0.25149   0.07975   0.59254   0.00000  Uiso   1.00
H444   H     0.25149   0.07975   0.40746   0.00000  Uiso   1.00
H445   H     0.24851   0.42025   0.59254   0.00000  Uiso   1.00
H446   H     0.09715   0.34695   0.42508   0.00000  Uiso   1.00
H447   H     0.40285   0.15305   0.57492   0.00000  Uiso   1.00
H448   H     0.09685   0.15276   0.57492   0.00000  Uiso   1.00
H449   H     0.40315   0.34724   0.42508   0.00000  Uiso   1.00
H450   H     0.40315   0.34724   0.57492   0.00000  Uiso   1.00
H451   H     0.09685   0.15276   0.42508   0.00000  Uiso   1.00
H452   H     0.15315   0.40276   0.42508   0.00000  Uiso   1.00
N453   N     0.00000   0.25000   0.61736   0.00000  Uiso   1.00
N454   N     0.00000   0.25000   0.38264   0.00000  Uiso   1.00
N455   N     0.25000   0.00000   0.61736   0.00000  Uiso   1.00
N456   N     0.25000   0.00000   0.38264   0.00000  Uiso   1.00
O457   O     0.04508   0.20491   0.53958   0.00000  Uiso   1.00
O458   O     0.20491   0.04509   0.46042   0.00000  Uiso   1.00
O459   O     0.20491   0.04509   0.53958   0.00000  Uiso   1.00
O460   O     0.29508   0.45491   0.46042   0.00000  Uiso   1.00
O461   O     0.20491   0.45491   0.46042   0.00000  Uiso   1.00
O462   O     0.29508   0.04509   0.53958   0.00000  Uiso   1.00
O463   O     0.29508   0.04509   0.46042   0.00000  Uiso   1.00
O464   O     0.20491   0.45491   0.53958   0.00000  Uiso   1.00
O465   O     0.48439   0.17132   0.37901   0.00000  Uiso   1.00
O466   O     0.01561   0.32868   0.62099   0.00000  Uiso   1.00
O467   O     0.01561   0.32868   0.37901   0.00000  Uiso   1.00
O468   O     0.45491   0.29509   0.46042   0.00000  Uiso   1.00
O469   O     0.48439   0.17132   0.62099   0.00000  Uiso   1.00
O470   O     0.26561   0.42132   0.37901   0.00000  Uiso   1.00
O471   O     0.23439   0.07868   0.62099   0.00000  Uiso   1.00
O472   O     0.23439   0.07868   0.37901   0.00000  Uiso   1.00
O473   O     0.26561   0.42132   0.62099   0.00000  Uiso   1.00
O474   O     0.45491   0.29509   0.53958   0.00000  Uiso   1.00
O475   O     0.04508   0.20491   0.46042   0.00000  Uiso   1.00
O476   O     0.45491   0.20491   0.46042   0.00000  Uiso   1.00
O477   O     0.04508   0.29509   0.53958   0.00000  Uiso   1.00
O478   O     0.04508   0.29509   0.46042   0.00000  Uiso   1.00
O479   O     0.45491   0.20491   0.53958   0.00000  Uiso   1.00
O480   O     0.29508   0.45491   0.53958   0.00000  Uiso   1.00
C481   C     0.55930   0.19050   0.50000   0.00000  Uiso   1.00
C482   C     0.50801   0.28838   0.64222   0.00000  Uiso   1.00
C483   C     0.50801   0.28838   0.35778   0.00000  Uiso   1.00
C484   C     0.99199   0.21162   0.64222   0.00000  Uiso   1.00
C485   C     0.75801   0.46162   0.35778   0.00000  Uiso   1.00
C486   C     0.74199   0.03838   0.64222   0.00000  Uiso   1.00
C487   C     0.74199   0.03838   0.35778   0.00000  Uiso   1.00
C488   C     0.75801   0.46162   0.64222   0.00000  Uiso   1.00
C489   C     0.89088   0.14106   0.45797   0.00000  Uiso   1.00
C490   C     0.60912   0.35895   0.54203   0.00000  Uiso   1.00
C491   C     0.60912   0.35895   0.45797   0.00000  Uiso   1.00
C492   C     0.94070   0.30950   0.50000   0.00000  Uiso   1.00
C493   C     0.89088   0.14106   0.54203   0.00000  Uiso   1.00
C494   C     0.60888   0.14082   0.54203   0.00000  Uiso   1.00
C495   C     0.89112   0.35918   0.45797   0.00000  Uiso   1.00
C496   C     0.89112   0.35918   0.54203   0.00000  Uiso   1.00
C497   C     0.60888   0.14082   0.45797   0.00000  Uiso   1.00
C498   C     0.64112   0.39082   0.45797   0.00000  Uiso   1.00
C499   C     0.85888   0.10918   0.54203   0.00000  Uiso   1.00
C500   C     0.85888   0.10918   0.45797   0.00000  Uiso   1.00
C501   C     0.64112   0.39082   0.54203   0.00000  Uiso   1.00
C502   C     0.85912   0.39106   0.54203   0.00000  Uiso   1.00
C503   C     0.94065   0.19056   0.50000   0.00000  Uiso   1.00
C504   C     0.64088   0.10895   0.45797   0.00000  Uiso   1.00
C505   C     0.64088   0.10895   0.54203   0.00000  Uiso   1.00
C506   C     0.85912   0.39106   0.45797   0.00000  Uiso   1.00
C507   C     0.59293   0.34289   0.50000   0.00000  Uiso   1.00
C508   C     0.90707   0.15711   0.50000   0.00000  Uiso   1.00
C509   C     0.90724   0.34306   0.50000   0.00000  Uiso   1.00
C510   C     0.59276   0.15695   0.50000   0.00000  Uiso   1.00
C511   C     0.84276   0.09306   0.50000   0.00000  Uiso   1.00
C512   C     0.65724   0.40695   0.50000   0.00000  Uiso   1.00
C513   C     0.65707   0.09289   0.50000   0.00000  Uiso   1.00
C514   C     0.55935   0.30945   0.50000   0.00000  Uiso   1.00
C515   C     0.84293   0.40711   0.50000   0.00000  Uiso   1.00
C516   C     0.80935   0.44056   0.50000   0.00000  Uiso   1.00
C517   C     0.69065   0.05945   0.50000   0.00000  Uiso   1.00
C518   C     0.69070   0.44050   0.50000   0.00000  Uiso   1.00
C519   C     0.80930   0.05950   0.50000   0.00000  Uiso   1.00
C520   C     0.99199   0.21162   0.35778   0.00000  Uiso   1.00
Cu521  Cu    0.50000   0.25000   0.54689   0.00000  Uiso   1.00
Cu522  Cu    0.50000   0.25000   0.45311   0.00000  Uiso   1.00
Cu523  Cu    0.75000   0.00000   0.54689   0.00000  Uiso   1.00
Cu524  Cu    0.75000   0.00000   0.45311   0.00000  Uiso   1.00
H525   H     0.90285   0.15305   0.42508   0.00000  Uiso   1.00
H526   H     0.84685   0.09724   0.57492   0.00000  Uiso   1.00
H527   H     0.84685   0.09724   0.42508   0.00000  Uiso   1.00
H528   H     0.65315   0.40276   0.57492   0.00000  Uiso   1.00
H529   H     0.84715   0.40305   0.57492   0.00000  Uiso   1.00
H530   H     0.65285   0.09695   0.42508   0.00000  Uiso   1.00
H531   H     0.65285   0.09695   0.57492   0.00000  Uiso   1.00
H532   H     0.84715   0.40305   0.42508   0.00000  Uiso   1.00
H533   H     0.50149   0.17025   0.40746   0.00000  Uiso   1.00
H534   H     0.99851   0.32975   0.59254   0.00000  Uiso   1.00
H535   H     0.99851   0.32975   0.40746   0.00000  Uiso   1.00
H536   H     0.59715   0.34695   0.57492   0.00000  Uiso   1.00
H537   H     0.50149   0.17025   0.59254   0.00000  Uiso   1.00
H538   H     0.74851   0.42025   0.40746   0.00000  Uiso   1.00
H539   H     0.75149   0.07975   0.59254   0.00000  Uiso   1.00
H540   H     0.75149   0.07975   0.40746   0.00000  Uiso   1.00
H541   H     0.74851   0.42025   0.59254   0.00000  Uiso   1.00
H542   H     0.59715   0.34695   0.42508   0.00000  Uiso   1.00
H543   H     0.90285   0.15305   0.57492   0.00000  Uiso   1.00
H544   H     0.59685   0.15276   0.57492   0.00000  Uiso   1.00
H545   H     0.90315   0.34724   0.42508   0.00000  Uiso   1.00
H546   H     0.90315   0.34724   0.57492   0.00000  Uiso   1.00
H547   H     0.59685   0.15276   0.42508   0.00000  Uiso   1.00
H548   H     0.65315   0.40276   0.42508   0.00000  Uiso   1.00
N549   N     0.50000   0.25000   0.61736   0.00000  Uiso   1.00
N550   N     0.50000   0.25000   0.38264   0.00000  Uiso   1.00
N551   N     0.75000   0.00000   0.61736   0.00000  Uiso   1.00
N552   N     0.75000   0.00000   0.38264   0.00000  Uiso   1.00
O553   O     0.54508   0.20491   0.53958   0.00000  Uiso   1.00
O554   O     0.70491   0.04509   0.46042   0.00000  Uiso   1.00
O555   O     0.70491   0.04509   0.53958   0.00000  Uiso   1.00
O556   O     0.79508   0.45491   0.46042   0.00000  Uiso   1.00
O557   O     0.70491   0.45491   0.46042   0.00000  Uiso   1.00
O558   O     0.79508   0.04509   0.53958   0.00000  Uiso   1.00
O559   O     0.79508   0.04509   0.46042   0.00000  Uiso   1.00
O560   O     0.70491   0.45491   0.53958   0.00000  Uiso   1.00
O561   O     0.98439   0.17132   0.37901   0.00000  Uiso   1.00
O562   O     0.51561   0.32868   0.62099   0.00000  Uiso   1.00
O563   O     0.51561   0.32868   0.37901   0.00000  Uiso   1.00
O564   O     0.95491   0.29509   0.46042   0.00000  Uiso   1.00
O565   O     0.98439   0.17132   0.62099   0.00000  Uiso   1.00
O566   O     0.76561   0.42132   0.37901   0.00000  Uiso   1.00
O567   O     0.73439   0.07868   0.62099   0.00000  Uiso   1.00
O568   O     0.73439   0.07868   0.37901   0.00000  Uiso   1.00
O569   O     0.76561   0.42132   0.62099   0.00000  Uiso   1.00
O570   O     0.95491   0.29509   0.53958   0.00000  Uiso   1.00
O571   O     0.54508   0.20491   0.46042   0.00000  Uiso   1.00
O572   O     0.95491   0.20491   0.46042   0.00000  Uiso   1.00
O573   O     0.54508   0.29509   0.53958   0.00000  Uiso   1.00
O574   O     0.54508   0.29509   0.46042   0.00000  Uiso   1.00
O575   O     0.95491   0.20491   0.53958   0.00000  Uiso   1.00
O576   O     0.79508   0.45491   0.53958   0.00000  Uiso   1.00
C577   C     0.05930   0.69050   0.50000   0.00000  Uiso   1.00
C578   C     0.00801   0.78838   0.64222   0.00000  Uiso   1.00
C579   C     0.00801   0.78838   0.35778   0.00000  Uiso   1.00
C580   C     0.49199   0.71162   0.64222   0.00000  Uiso   1.00
C581   C     0.25801   0.96162   0.35778   0.00000  Uiso   1.00
C582   C     0.24199   0.53838   0.64222   0.00000  Uiso   1.00
C583   C     0.24199   0.53838   0.35778   0.00000  Uiso   1.00
C584   C     0.25801   0.96162   0.64222   0.00000  Uiso   1.00
C585   C     0.39088   0.64106   0.45797   0.00000  Uiso   1.00
C586   C     0.10912   0.85895   0.54203   0.00000  Uiso   1.00
C587   C     0.10912   0.85895   0.45797   0.00000  Uiso   1.00
C588   C     0.44070   0.80950   0.50000   0.00000  Uiso   1.00
C589   C     0.39088   0.64106   0.54203   0.00000  Uiso   1.00
C590   C     0.10888   0.64082   0.54203   0.00000  Uiso   1.00
C591   C     0.39112   0.85918   0.45797   0.00000  Uiso   1.00
C592   C     0.39112   0.85918   0.54203   0.00000  Uiso   1.00
C593   C     0.10888   0.64082   0.45797   0.00000  Uiso   1.00
C594   C     0.14112   0.89082   0.45797   0.00000  Uiso   1.00
C595   C     0.35888   0.60918   0.54203   0.00000  Uiso   1.00
C596   C     0.35888   0.60918   0.45797   0.00000  Uiso   1.00
C597   C     0.14112   0.89082   0.54203   0.00000  Uiso   1.00
C598   C     0.35912   0.89106   0.54203   0.00000  Uiso   1.00
C599   C     0.44065   0.69056   0.50000   0.00000  Uiso   1.00
C600   C     0.14088   0.60895   0.45797   0.00000  Uiso   1.00
C601   C     0.14088   0.60895   0.54203   0.00000  Uiso   1.00
C602   C     0.35912   0.89106   0.45797   0.00000  Uiso   1.00
C603   C     0.09293   0.84289   0.50000   0.00000  Uiso   1.00
C604   C     0.40707   0.65711   0.50000   0.00000  Uiso   1.00
C605   C     0.40724   0.84306   0.50000   0.00000  Uiso   1.00
C606   C     0.09276   0.65695   0.50000   0.00000  Uiso   1.00
C607   C     0.34276   0.59306   0.50000   0.00000  Uiso   1.00
C608   C     0.15724   0.90695   0.50000   0.00000  Uiso   1.00
C609   C     0.15707   0.59289   0.50000   0.00000  Uiso   1.00
C610   C     0.05935   0.80945   0.50000   0.00000  Uiso   1.00
C611   C     0.34293   0.90711   0.50000   0.00000  Uiso   1.00
C612   C     0.30935   0.94056   0.50000   0.00000  Uiso   1.00
C613   C     0.19065   0.55945   0.50000   0.00000  Uiso   1.00
C614   C     0.19070   0.94050   0.50000   0.00000  Uiso   1.00
C615   C     0.30930   0.55950   0.50000   0.00000  Uiso   1.00
C616   C     0.49199   0.71162   0.35778   0.00000  Uiso   1.00
Cu617  Cu    0.00000   0.75000   0.54689   0.00000  Uiso   1.00
Cu618  Cu    0.00000   0.75000   0.45311   0.00000  Uiso   1.00
Cu619  Cu    0.25000   0.50000   0.54689   0.00000  Uiso   1.00
Cu620  Cu    0.25000   0.50000   0.45311   0.00000  Uiso   1.00
H621   H     0.40285   0.65305   0.42508   0.00000  Uiso   1.00
H622   H     0.34685   0.59724   0.57492   0.00000  Uiso   1.00
H623   H     0.34685   0.59724   0.42508   0.00000  Uiso   1.00
H624   H     0.15315   0.90276   0.57492   0.00000  Uiso   1.00
H625   H     0.34715   0.90305   0.57492   0.00000  Uiso   1.00
H626   H     0.15285   0.59695   0.42508   0.00000  Uiso   1.00
H627   H     0.15285   0.59695   0.57492   0.00000  Uiso   1.00
H628   H     0.34715   0.90305   0.42508   0.00000  Uiso   1.00
H629   H     0.00149   0.67025   0.40746   0.00000  Uiso   1.00
H630   H     0.49851   0.82975   0.59254   0.00000  Uiso   1.00
H631   H     0.49851   0.82975   0.40746   0.00000  Uiso   1.00
H632   H     0.09715   0.84695   0.57492   0.00000  Uiso   1.00
H633   H     0.00149   0.67025   0.59254   0.00000  Uiso   1.00
H634   H     0.24851   0.92025   0.40746   0.00000  Uiso   1.00
H635   H     0.25149   0.57975   0.59254   0.00000  Uiso   1.00
H636   H     0.25149   0.57975   0.40746   0.00000  Uiso   1.00
H637   H     0.24851   0.92025   0.59254   0.00000  Uiso   1.00
H638   H     0.09715   0.84695   0.42508   0.00000  Uiso   1.00
H639   H     0.40285   0.65305   0.57492   0.00000  Uiso   1.00
H640   H     0.09685   0.65276   0.57492   0.00000  Uiso   1.00
H641   H     0.40315   0.84724   0.42508   0.00000  Uiso   1.00
H642   H     0.40315   0.84724   0.57492   0.00000  Uiso   1.00
H643   H     0.09685   0.65276   0.42508   0.00000  Uiso   1.00
H644   H     0.15315   0.90276   0.42508   0.00000  Uiso   1.00
N645   N     0.00000   0.75000   0.61736   0.00000  Uiso   1.00
N646   N     0.00000   0.75000   0.38264   0.00000  Uiso   1.00
N647   N     0.25000   0.50000   0.61736   0.00000  Uiso   1.00
N648   N     0.25000   0.50000   0.38264   0.00000  Uiso   1.00
O649   O     0.04508   0.70491   0.53958   0.00000  Uiso   1.00
O650   O     0.20491   0.54509   0.46042   0.00000  Uiso   1.00
O651   O     0.20491   0.54509   0.53958   0.00000  Uiso   1.00
O652   O     0.29508   0.95491   0.46042   0.00000  Uiso   1.00
O653   O     0.20491   0.95491   0.46042   0.00000  Uiso   1.00
O654   O     0.29508   0.54509   0.53958   0.00000  Uiso   1.00
O655   O     0.29508   0.54509   0.46042   0.00000  Uiso   1.00
O656   O     0.20491   0.95491   0.53958   0.00000  Uiso   1.00
O657   O     0.48439   0.67132   0.37901   0.00000  Uiso   1.00
O658   O     0.01561   0.82868   0.62099   0.00000  Uiso   1.00
O659   O     0.01561   0.82868   0.37901   0.00000  Uiso   1.00
O660   O     0.45491   0.79509   0.46042   0.00000  Uiso   1.00
O661   O     0.48439   0.67132   0.62099   0.00000  Uiso   1.00
O662   O     0.26561   0.92132   0.37901   0.00000  Uiso   1.00
O663   O     0.23439   0.57868   0.62099   0.00000  Uiso   1.00
O664   O     0.23439   0.57868   0.37901   0.00000  Uiso   1.00
O665   O     0.26561   0.92132   0.62099   0.00000  Uiso   1.00
O666   O     0.45491   0.79509   0.53958   0.00000  Uiso   1.00
O667   O     0.04508   0.70491   0.46042   0.00000  Uiso   1.00
O668   O     0.45491   0.70491   0.46042   0.00000  Uiso   1.00
O669   O     0.04508   0.79509   0.53958   0.00000  Uiso   1.00
O670   O     0.04508   0.79509   0.46042   0.00000  Uiso   1.00
O671   O     0.45491   0.70491   0.53958   0.00000  Uiso   1.00
O672   O     0.29508   0.95491   0.53958   0.00000  Uiso   1.00
C673   C     0.55930   0.69050   0.50000   0.00000  Uiso   1.00
C674   C     0.50801   0.78838   0.64222   0.00000  Uiso   1.00
C675   C     0.50801   0.78838   0.35778   0.00000  Uiso   1.00
C676   C     0.99199   0.71162   0.64222   0.00000  Uiso   1.00
C677   C     0.75801   0.96162   0.35778   0.00000  Uiso   1.00
C678   C     0.74199   0.53838   0.64222   0.00000  Uiso   1.00
C679   C     0.74199   0.53838   0.35778   0.00000  Uiso   1.00
C680   C     0.75801   0.96162   0.64222   0.00000  Uiso   1.00
C681   C     0.89088   0.64106   0.45797   0.00000  Uiso   1.00
C682   C     0.60912   0.85895   0.54203   0.00000  Uiso   1.00
C683   C     0.60912   0.85895   0.45797   0.00000  Uiso   1.00
C684   C     0.94070   0.80950   0.50000   0.00000  Uiso   1.00
C685   C     0.89088   0.64106   0.54203   0.00000  Uiso   1.00
C686   C     0.60888   0.64082   0.54203   0.00000  Uiso   1.00
C687   C     0.89112   0.85918   0.45797   0.00000  Uiso   1.00
C688   C     0.89112   0.85918   0.54203   0.00000  Uiso   1.00
C689   C     0.60888   0.64082   0.45797   0.00000  Uiso   1.00
C690   C     0.64112   0.89082   0.45797   0.00000  Uiso   1.00
C691   C     0.85888   0.60918   0.54203   0.00000  Uiso   1.00
C692   C     0.85888   0.60918   0.45797   0.00000  Uiso   1.00
C693   C     0.64112   0.89082   0.54203   0.00000  Uiso   1.00
C694   C     0.85912   0.89106   0.54203   0.00000  Uiso   1.00
C695   C     0.94065   0.69056   0.50000   0.00000  Uiso   1.00
C696   C     0.64088   0.60895   0.45797   0.00000  Uiso   1.00
C697   C     0.64088   0.60895   0.54203   0.00000  Uiso   1.00
C698   C     0.85912   0.89106   0.45797   0.00000  Uiso   1.00
C699   C     0.59293   0.84289   0.50000   0.00000  Uiso   1.00
C700   C     0.90707   0.65711   0.50000   0.00000  Uiso   1.00
C701   C     0.90724   0.84306   0.50000   0.00000  Uiso   1.00
C702   C     0.59276   0.65695   0.50000   0.00000  Uiso   1.00
C703   C     0.84276   0.59306   0.50000   0.00000  Uiso   1.00
C704   C     0.65724   0.90695   0.50000   0.00000  Uiso   1.00
C705   C     0.65707   0.59289   0.50000   0.00000  Uiso   1.00
C706   C     0.55935   0.80945   0.50000   0.00000  Uiso   1.00
C707   C     0.84293   0.90711   0.50000   0.00000  Uiso   1.00
C708   C     0.80935   0.94056   0.50000   0.00000  Uiso   1.00
C709   C     0.69065   0.55945   0.50000   0.00000  Uiso   1.00
C710   C     0.69070   0.94050   0.50000   0.00000  Uiso   1.00
C711   C     0.80930   0.55950   0.50000   0.00000  Uiso   1.00
C712   C     0.99199   0.71162   0.35778   0.00000  Uiso   1.00
Cu713  Cu    0.50000   0.75000   0.54689   0.00000  Uiso   1.00
Cu714  Cu    0.50000   0.75000   0.45311   0.00000  Uiso   1.00
Cu715  Cu    0.75000   0.50000   0.54689   0.00000  Uiso   1.00
Cu716  Cu    0.75000   0.50000   0.45311   0.00000  Uiso   1.00
H717   H     0.90285   0.65305   0.42508   0.00000  Uiso   1.00
H718   H     0.84685   0.59724   0.57492   0.00000  Uiso   1.00
H719   H     0.84685   0.59724   0.42508   0.00000  Uiso   1.00
H720   H     0.65315   0.90276   0.57492   0.00000  Uiso   1.00
H721   H     0.84715   0.90305   0.57492   0.00000  Uiso   1.00
H722   H     0.65285   0.59695   0.42508   0.00000  Uiso   1.00
H723   H     0.65285   0.59695   0.57492   0.00000  Uiso   1.00
H724   H     0.84715   0.90305   0.42508   0.00000  Uiso   1.00
H725   H     0.50149   0.67025   0.40746   0.00000  Uiso   1.00
H726   H     0.99851   0.82975   0.59254   0.00000  Uiso   1.00
H727   H     0.99851   0.82975   0.40746   0.00000  Uiso   1.00
H728   H     0.59715   0.84695   0.57492   0.00000  Uiso   1.00
H729   H     0.50149   0.67025   0.59254   0.00000  Uiso   1.00
H730   H     0.74851   0.92025   0.40746   0.00000  Uiso   1.00
H731   H     0.75149   0.57975   0.59254   0.00000  Uiso   1.00
H732   H     0.75149   0.57975   0.40746   0.00000  Uiso   1.00
H733   H     0.74851   0.92025   0.59254   0.00000  Uiso   1.00
H734   H     0.59715   0.84695   0.42508   0.00000  Uiso   1.00
H735   H     0.90285   0.65305   0.57492   0.00000  Uiso   1.00
H736   H     0.59685   0.65276   0.57492   0.00000  Uiso   1.00
H737   H     0.90315   0.84724   0.42508   0.00000  Uiso   1.00
H738   H     0.90315   0.84724   0.57492   0.00000  Uiso   1.00
H739   H     0.59685   0.65276   0.42508   0.00000  Uiso   1.00
H740   H     0.65315   0.90276   0.42508   0.00000  Uiso   1.00
N741   N     0.50000   0.75000   0.61736   0.00000  Uiso   1.00
N742   N     0.50000   0.75000   0.38264   0.00000  Uiso   1.00
N743   N     0.75000   0.50000   0.61736   0.00000  Uiso   1.00
N744   N     0.75000   0.50000   0.38264   0.00000  Uiso   1.00
O745   O     0.54508   0.70491   0.53958   0.00000  Uiso   1.00
O746   O     0.70491   0.54509   0.46042   0.00000  Uiso   1.00
O747   O     0.70491   0.54509   0.53958   0.00000  Uiso   1.00
O748   O     0.79508   0.95491   0.46042   0.00000  Uiso   1.00
O749   O     0.70491   0.95491   0.46042   0.00000  Uiso   1.00
O750   O     0.79508   0.54509   0.53958   0.00000  Uiso   1.00
O751   O     0.79508   0.54509   0.46042   0.00000  Uiso   1.00
O752   O     0.70491   0.95491   0.53958   0.00000  Uiso   1.00
O753   O     0.98439   0.67132   0.37901   0.00000  Uiso   1.00
O754   O     0.51561   0.82868   0.62099   0.00000  Uiso   1.00
O755   O     0.51561   0.82868   0.37901   0.00000  Uiso   1.00
O756   O     0.95491   0.79509   0.46042   0.00000  Uiso   1.00
O757   O     0.98439   0.67132   0.62099   0.00000  Uiso   1.00
O758   O     0.76561   0.92132   0.37901   0.00000  Uiso   1.00
O759   O     0.73439   0.57868   0.62099   0.00000  Uiso   1.00
O760   O     0.73439   0.57868   0.37901   0.00000  Uiso   1.00
O761   O     0.76561   0.92132   0.62099   0.00000  Uiso   1.00
O762   O     0.95491   0.79509   0.53958   0.00000  Uiso   1.00
O763   O     0.54508   0.70491   0.46042   0.00000  Uiso   1.00
O764   O     0.95491   0.70491   0.46042   0.00000  Uiso   1.00
O765   O     0.54508   0.79509   0.53958   0.00000  Uiso   1.00
O766   O     0.54508   0.79509   0.46042   0.00000  Uiso   1.00
O767   O     0.95491   0.70491   0.53958   0.00000  Uiso   1.00
O768   O     0.79508   0.95491   0.53958   0.00000  Uiso   1.00
C769   C     0.05930   0.19050   0.83333   0.00000  Uiso   1.00
C770   C     0.00801   0.28838   0.97555   0.00000  Uiso   1.00
C771   C     0.00801   0.28838   0.69112   0.00000  Uiso   1.00
C772   C     0.49199   0.21162   0.97555   0.00000  Uiso   1.00
C773   C     0.25801   0.46162   0.69112   0.00000  Uiso   1.00
C774   C     0.24199   0.03838   0.97555   0.00000  Uiso   1.00
C775   C     0.24199   0.03838   0.69112   0.00000  Uiso   1.00
C776   C     0.25801   0.46162   0.97555   0.00000  Uiso   1.00
C777   C     0.39088   0.14106   0.79130   0.00000  Uiso   1.00
C778   C     0.10912   0.35895   0.87537   0.00000  Uiso   1.00
C779   C     0.10912   0.35895   0.79130   0.00000  Uiso   1.00
C780   C     0.44070   0.30950   0.83333   0.00000  Uiso   1.00
C781   C     0.39088   0.14106   0.87537   0.00000  Uiso   1.00
C782   C     0.10888   0.14082   0.87537   0.00000  Uiso   1.00
C783   C     0.39112   0.35918   0.79130   0.00000  Uiso   1.00
C784   C     0.39112   0.35918   0.87537   0.00000  Uiso   1.00
C785   C     0.10888   0.14082   0.79130   0.00000  Uiso   1.00
C786   C     0.14112   0.39082   0.79130   0.00000  Uiso   1.00
C787   C     0.35888   0.10918   0.87537   0.00000  Uiso   1.00
C788   C     0.35888   0.10918   0.79130   0.00000  Uiso   1.00
C789   C     0.14112   0.39082   0.87537   0.00000  Uiso   1.00
C790   C     0.35912   0.39106   0.87537   0.00000  Uiso   1.00
C791   C     0.44065   0.19056   0.83333   0.00000  Uiso   1.00
C792   C     0.14088   0.10895   0.79130   0.00000  Uiso   1.00
C793   C     0.14088   0.10895   0.87537   0.00000  Uiso   1.00
C794   C     0.35912   0.39106   0.79130   0.00000  Uiso   1.00
C795   C     0.09293   0.34289   0.83333   0.00000  Uiso   1.00
C796   C     0.40707   0.15711   0.83333   0.00000  Uiso   1.00
C797   C     0.40724   0.34306   0.83333   0.00000  Uiso   1.00
C798   C     0.09276   0.15695   0.83333   0.00000  Uiso   1.00
C799   C     0.34276   0.09306   0.83333   0.00000  Uiso   1.00
C800   C     0.15724   0.40695   0.83333   0.00000  Uiso   1.00
C801   C     0.15707   0.09289   0.83333   0.00000  Uiso   1.00
C802   C     0.05935   0.30945   0.83333   0.00000  Uiso   1.00
C803   C     0.34293   0.40711   0.83333   0.00000  Uiso   1.00
C804   C     0.30935   0.44056   0.83333   0.00000  Uiso   1.00
C805   C     0.19065   0.05945   0.83333   0.00000  Uiso   1.00
C806   C     0.19070   0.44050   0.83333   0.00000  Uiso   1.00
C807   C     0.30930   0.05950   0.83333   0.00000  Uiso   1.00
C808   C     0.49199   0.21162   0.69112   0.00000  Uiso   1.00
Cu809  Cu    0.00000   0.25000   0.88022   0.00000  Uiso   1.00
Cu810  Cu    0.00000   0.25000   0.78645   0.00000  Uiso   1.00
Cu811  Cu    0.25000   0.00000   0.88022   0.00000  Uiso   1.00
Cu812  Cu    0.25000   0.00000   0.78645   0.00000  Uiso   1.00
H813   H     0.40285   0.15305   0.75842   0.00000  Uiso   1.00
H814   H     0.34685   0.09724   0.90825   0.00000  Uiso   1.00
H815   H     0.34685   0.09724   0.75841   0.00000  Uiso   1.00
H816   H     0.15315   0.40276   0.90825   0.00000  Uiso   1.00
H817   H     0.34715   0.40305   0.90825   0.00000  Uiso   1.00
H818   H     0.15285   0.09695   0.75842   0.00000  Uiso   1.00
H819   H     0.15285   0.09695   0.90825   0.00000  Uiso   1.00
H820   H     0.34715   0.40305   0.75842   0.00000  Uiso   1.00
H821   H     0.00149   0.17025   0.74079   0.00000  Uiso   1.00
H822   H     0.49851   0.32975   0.92588   0.00000  Uiso   1.00
H823   H     0.49851   0.32975   0.74079   0.00000  Uiso   1.00
H824   H     0.09715   0.34695   0.90825   0.00000  Uiso   1.00
H825   H     0.00149   0.17025   0.92588   0.00000  Uiso   1.00
H826   H     0.24851   0.42025   0.74079   0.00000  Uiso   1.00
H827   H     0.25149   0.07975   0.92588   0.00000  Uiso   1.00
H828   H     0.25149   0.07975   0.74079   0.00000  Uiso   1.00
H829   H     0.24851   0.42025   0.92588   0.00000  Uiso   1.00
H830   H     0.09715   0.34695   0.75842   0.00000  Uiso   1.00
H831   H     0.40285   0.15305   0.90825   0.00000  Uiso   1.00
H832   H     0.09685   0.15276   0.90825   0.00000  Uiso   1.00
H833   H     0.40315   0.34724   0.75841   0.00000  Uiso   1.00
H834   H     0.40315   0.34724   0.90825   0.00000  Uiso   1.00
H835   H     0.09685   0.15276   0.75841   0.00000  Uiso   1.00
H836   H     0.15315   0.40276   0.75841   0.00000  Uiso   1.00
N837   N     0.00000   0.25000   0.95069   0.00000  Uiso   1.00
N838   N     0.00000   0.25000   0.71598   0.00000  Uiso   1.00
N839   N     0.25000   0.00000   0.95069   0.00000  Uiso   1.00
N840   N     0.25000   0.00000   0.71598   0.00000  Uiso   1.00
O841   O     0.04508   0.20491   0.87291   0.00000  Uiso   1.00
O842   O     0.20491   0.04509   0.79375   0.00000  Uiso   1.00
O843   O     0.20491   0.04509   0.87291   0.00000  Uiso   1.00
O844   O     0.29508   0.45491   0.79375   0.00000  Uiso   1.00
O845   O     0.20491   0.45491   0.79375   0.00000  Uiso   1.00
O846   O     0.29508   0.04509   0.87291   0.00000  Uiso   1.00
O847   O     0.29508   0.04509   0.79375   0.00000  Uiso   1.00
O848   O     0.20491   0.45491   0.87291   0.00000  Uiso   1.00
O849   O     0.48439   0.17132   0.71235   0.00000  Uiso   1.00
O850   O     0.01561   0.32868   0.95432   0.00000  Uiso   1.00
O851   O     0.01561   0.32868   0.71235   0.00000  Uiso   1.00
O852   O     0.45491   0.29509   0.79375   0.00000  Uiso   1.00
O853   O     0.48439   0.17132   0.95432   0.00000  Uiso   1.00
O854   O     0.26561   0.42132   0.71235   0.00000  Uiso   1.00
O855   O     0.23439   0.07868   0.95432   0.00000  Uiso   1.00
O856   O     0.23439   0.07868   0.71235   0.00000  Uiso   1.00
O857   O     0.26561   0.42132   0.95432   0.00000  Uiso   1.00
O858   O     0.45491   0.29509   0.87291   0.00000  Uiso   1.00
O859   O     0.04508   0.20491   0.79375   0.00000  Uiso   1.00
O860   O     0.45491   0.20491   0.79375   0.00000  Uiso   1.00
O861   O     0.04508   0.29509   0.87291   0.00000  Uiso   1.00
O862   O     0.04508   0.29509   0.79375   0.00000  Uiso   1.00
O863   O     0.45491   0.20491   0.87291   0.00000  Uiso   1.00
O864   O     0.29508   0.45491   0.87291   0.00000  Uiso   1.00
C865   C     0.55930   0.19050   0.83333   0.00000  Uiso   1.00
C866   C     0.50801   0.28838   0.97555   0.00000  Uiso   1.00
C867   C     0.50801   0.28838   0.69112   0.00000  Uiso   1.00
C868   C     0.99199   0.21162   0.97555   0.00000  Uiso   1.00
C869   C     0.75801   0.46162   0.69112   0.00000  Uiso   1.00
C870   C     0.74199   0.03838   0.97555   0.00000  Uiso   1.00
C871   C     0.74199   0.03838   0.69112   0.00000  Uiso   1.00
C872   C     0.75801   0.46162   0.97555   0.00000  Uiso   1.00
C873   C     0.89088   0.14106   0.79130   0.00000  Uiso   1.00
C874   C     0.60912   0.35895   0.87537   0.00000  Uiso   1.00
C875   C     0.60912   0.35895   0.79130   0.00000  Uiso   1.00
C876   C     0.94070   0.30950   0.83333   0.00000  Uiso   1.00
C877   C     0.89088   0.14106   0.87537   0.00000  Uiso   1.00
C878   C     0.60888   0.14082   0.87537   0.00000  Uiso   1.00
C879   C     0.89112   0.35918   0.79130   0.00000  Uiso   1.00
C880   C     0.89112   0.35918   0.87537   0.00000  Uiso   1.00
C881   C     0.60888   0.14082   0.79130   0.00000  Uiso   1.00
C882   C     0.64112   0.39082   0.79130   0.00000  Uiso   1.00
C883   C     0.85888   0.10918   0.87537   0.00000  Uiso   1.00
C884   C     0.85888   0.10918   0.79130   0.00000  Uiso   1.00
C885   C     0.64112   0.39082   0.87537   0.00000  Uiso   1.00
C886   C     0.85912   0.39106   0.87537   0.00000  Uiso   1.00
C887   C     0.94065   0.19056   0.83333   0.00000  Uiso   1.00
C888   C     0.64088   0.10895   0.79130   0.00000  Uiso   1.00
C889   C     0.64088   0.10895   0.87537   0.00000  Uiso   1.00
C890   C     0.85912   0.39106   0.79130   0.00000  Uiso   1.00
C891   C     0.59293   0.34289   0.83333   0.00000  Uiso   1.00
C892   C     0.90707   0.15711   0.83333   0.00000  Uiso   1.00
C893   C     0.90724   0.34306   0.83333   0.00000  Uiso   1.00
C894   C     0.59276   0.15695   0.83333   0.00000  Uiso   1.00
C895   C     0.84276   0.09306   0.83333   0.00000  Uiso   1.00
C896   C     0.65724   0.40695   0.83333   0.00000  Uiso   1.00
C897   C     0.65707   0.09289   0.83333   0.00000  Uiso   1.00
C898   C     0.55935   0.30945   0.83333   0.00000  Uiso   1.00
C899   C     0.84293   0.40711   0.83333   0.00000  Uiso   1.00
C900   C     0.80935   0.44056   0.83333   0.00000  Uiso   1.00
C901   C     0.69065   0.05945   0.83333   0.00000  Uiso   1.00
C902   C     0.69070   0.44050   0.83333   0.00000  Uiso   1.00
C903   C     0.80930   0.05950   0.83333   0.00000  Uiso   1.00
C904   C     0.99199   0.21162   0.69112   0.00000  Uiso   1.00
Cu905  Cu    0.50000   0.25000   0.88022   0.00000  Uiso   1.00
Cu906  Cu    0.50000   0.25000   0.78645   0.00000  Uiso   1.00
Cu907  Cu    0.75000   0.00000   0.88022   0.00000  Uiso   1.00
Cu908  Cu    0.75000   0.00000   0.78645   0.00000  Uiso   1.00
H909   H     0.90285   0.15305   0.75842   0.00000  Uiso   1.00
H910   H     0.84685   0.09724   0.90825   0.00000  Uiso   1.00
H911   H     0.84685   0.09724   0.75841   0.00000  Uiso   1.00
H912   H     0.65315   0.40276   0.90825   0.00000  Uiso   1.00
H913   H     0.84715   0.40305   0.90825   0.00000  Uiso   1.00
H914   H     0.65285   0.09695   0.75842   0.00000  Uiso   1.00
H915   H     0.65285   0.09695   0.90825   0.00000  Uiso   1.00
H916   H     0.84715   0.40305   0.75842   0.00000  Uiso   1.00
H917   H     0.50149   0.17025   0.74079   0.00000  Uiso   1.00
H918   H     0.99851   0.32975   0.92588   0.00000  Uiso   1.00
H919   H     0.99851   0.32975   0.74079   0.00000  Uiso   1.00
H920   H     0.59715   0.34695   0.90825   0.00000  Uiso   1.00
H921   H     0.50149   0.17025   0.92588   0.00000  Uiso   1.00
H922   H     0.74851   0.42025   0.74079   0.00000  Uiso   1.00
H923   H     0.75149   0.07975   0.92588   0.00000  Uiso   1.00
H924   H     0.75149   0.07975   0.74079   0.00000  Uiso   1.00
H925   H     0.74851   0.42025   0.92588   0.00000  Uiso   1.00
H926   H     0.59715   0.34695   0.75842   0.00000  Uiso   1.00
H927   H     0.90285   0.15305   0.90825   0.00000  Uiso   1.00
H928   H     0.59685   0.15276   0.90825   0.00000  Uiso   1.00
H929   H     0.90315   0.34724   0.75841   0.00000  Uiso   1.00
H930   H     0.90315   0.34724   0.90825   0.00000  Uiso   1.00
H931   H     0.59685   0.15276   0.75841   0.00000  Uiso   1.00
H932   H     0.65315   0.40276   0.75841   0.00000  Uiso   1.00
N933   N     0.50000   0.25000   0.95069   0.00000  Uiso   1.00
N934   N     0.50000   0.25000   0.71598   0.00000  Uiso   1.00
N935   N     0.75000   0.00000   0.95069   0.00000  Uiso   1.00
N936   N     0.75000   0.00000   0.71598   0.00000  Uiso   1.00
O937   O     0.54508   0.20491   0.87291   0.00000  Uiso   1.00
O938   O     0.70491   0.04509   0.79375   0.00000  Uiso   1.00
O939   O     0.70491   0.04509   0.87291   0.00000  Uiso   1.00
O940   O     0.79508   0.45491   0.79375   0.00000  Uiso   1.00
O941   O     0.70491   0.45491   0.79375   0.00000  Uiso   1.00
O942   O     0.79508   0.04509   0.87291   0.00000  Uiso   1.00
O943   O     0.79508   0.04509   0.79375   0.00000  Uiso   1.00
O944   O     0.70491   0.45491   0.87291   0.00000  Uiso   1.00
O945   O     0.98439   0.17132   0.71235   0.00000  Uiso   1.00
O946   O     0.51561   0.32868   0.95432   0.00000  Uiso   1.00
O947   O     0.51561   0.32868   0.71235   0.00000  Uiso   1.00
O948   O     0.95491   0.29509   0.79375   0.00000  Uiso   1.00
O949   O     0.98439   0.17132   0.95432   0.00000  Uiso   1.00
O950   O     0.76561   0.42132   0.71235   0.00000  Uiso   1.00
O951   O     0.73439   0.07868   0.95432   0.00000  Uiso   1.00
O952   O     0.73439   0.07868   0.71235   0.00000  Uiso   1.00
O953   O     0.76561   0.42132   0.95432   0.00000  Uiso   1.00
O954   O     0.95491   0.29509   0.87291   0.00000  Uiso   1.00
O955   O     0.54508   0.20491   0.79375   0.00000  Uiso   1.00
O956   O     0.95491   0.20491   0.79375   0.00000  Uiso   1.00
O957   O     0.54508   0.29509   0.87291   0.00000  Uiso   1.00
O958   O     0.54508   0.29509   0.79375   0.00000  Uiso   1.00
O959   O     0.95491   0.20491   0.87291   0.00000  Uiso   1.00
O960   O     0.79508   0.45491   0.87291   0.00000  Uiso   1.00
C961   C     0.05930   0.69050   0.83333   0.00000  Uiso   1.00
C962   C     0.00801   0.78838   0.97555   0.00000  Uiso   1.00
C963   C     0.00801   0.78838   0.69112   0.00000  Uiso   1.00
C964   C     0.49199   0.71162   0.97555   0.00000  Uiso   1.00
C965   C     0.25801   0.96162   0.69112   0.00000  Uiso   1.00
C966   C     0.24199   0.53838   0.97555   0.00000  Uiso   1.00
C967   C     0.24199   0.53838   0.69112   0.00000  Uiso   1.00
C968   C     0.25801   0.96162   0.97555   0.00000  Uiso   1.00
C969   C     0.39088   0.64106   0.79130   0.00000  Uiso   1.00
C970   C     0.10912   0.85895   0.87537   0.00000  Uiso   1.00
C971   C     0.10912   0.85895   0.79130   0.00000  Uiso   1.00
C972   C     0.44070   0.80950   0.83333   0.00000  Uiso   1.00
C973   C     0.39088   0.64106   0.87537   0.00000  Uiso   1.00
C974   C     0.10888   0.64082   0.87537   0.00000  Uiso   1.00
C975   C     0.39112   0.85918   0.79130   0.00000  Uiso   1.00
C976   C     0.39112   0.85918   0.87537   0.00000  Uiso   1.00
C977   C     0.10888   0.64082   0.79130   0.00000  Uiso   1.00
C978   C     0.14112   0.89082   0.79130   0.00000  Uiso   1.00
C979   C     0.35888   0.60918   0.87537   0.00000  Uiso   1.00
C980   C     0.35888   0.60918   0.79130   0.00000  Uiso   1.00
C981   C     0.14112   0.89082   0.87537   0.00000  Uiso   1.00
C982   C     0.35912   0.89106   0.87537   0.00000  Uiso   1.00
C983   C     0.44065   0.69056   0.83333   0.00000  Uiso   1.00
C984   C     0.14088   0.60895   0.79130   0.00000  Uiso   1.00
C985   C     0.14088   0.60895   0.87537   0.00000  Uiso   1.00
C986   C     0.35912   0.89106   0.79130   0.00000  Uiso   1.00
C987   C     0.09293   0.84289   0.83333   0.00000  Uiso   1.00
C988   C     0.40707   0.65711   0.83333   0.00000  Uiso   1.00
C989   C     0.40724   0.84306   0.83333   0.00000  Uiso   1.00
C990   C     0.09276   0.65695   0.83333   0.00000  Uiso   1.00
C991   C     0.34276   0.59306   0.83333   0.00000  Uiso   1.00
C992   C     0.15724   0.90695   0.83333   0.00000  Uiso   1.00
C993   C     0.15707   0.59289   0.83333   0.00000  Uiso   1.00
C994   C     0.05935   0.80945   0.83333   0.00000  Uiso   1.00
C995   C     0.34293   0.90711   0.83333   0.00000  Uiso   1.00
C996   C     0.30935   0.94056   0.83333   0.00000  Uiso   1.00
C997   C     0.19065   0.55945   0.83333   0.00000  Uiso   1.00
C998   C     0.19070   0.94050   0.83333   0.00000  Uiso   1.00
C999   C     0.30930   0.55950   0.83333   0.00000  Uiso   1.00
C1000  C     0.49199   0.71162   0.69112   0.00000  Uiso   1.00
Cu1001 Cu    0.00000   0.75000   0.88022   0.00000  Uiso   1.00
Cu1002 Cu    0.00000   0.75000   0.78645   0.00000  Uiso   1.00
Cu1003 Cu    0.25000   0.50000   0.88022   0.00000  Uiso   1.00
Cu1004 Cu    0.25000   0.50000   0.78645   0.00000  Uiso   1.00
H1005  H     0.40285   0.65305   0.75842   0.00000  Uiso   1.00
H1006  H     0.34685   0.59724   0.90825   0.00000  Uiso   1.00
H1007  H     0.34685   0.59724   0.75841   0.00000  Uiso   1.00
H1008  H     0.15315   0.90276   0.90825   0.00000  Uiso   1.00
H1009  H     0.34715   0.90305   0.90825   0.00000  Uiso   1.00
H1010  H     0.15285   0.59695   0.75842   0.00000  Uiso   1.00
H1011  H     0.15285   0.59695   0.90825   0.00000  Uiso   1.00
H1012  H     0.34715   0.90305   0.75842   0.00000  Uiso   1.00
H1013  H     0.00149   0.67025   0.74079   0.00000  Uiso   1.00
H1014  H     0.49851   0.82975   0.92588   0.00000  Uiso   1.00
H1015  H     0.49851   0.82975   0.74079   0.00000  Uiso   1.00
H1016  H     0.09715   0.84695   0.90825   0.00000  Uiso   1.00
H1017  H     0.00149   0.67025   0.92588   0.00000  Uiso   1.00
H1018  H     0.24851   0.92025   0.74079   0.00000  Uiso   1.00
H1019  H     0.25149   0.57975   0.92588   0.00000  Uiso   1.00
H1020  H     0.25149   0.57975   0.74079   0.00000  Uiso   1.00
H1021  H     0.24851   0.92025   0.92588   0.00000  Uiso   1.00
H1022  H     0.09715   0.84695   0.75842   0.00000  Uiso   1.00
H1023  H     0.40285   0.65305   0.90825   0.00000  Uiso   1.00
H1024  H     0.09685   0.65276   0.90825   0.00000  Uiso   1.00
H1025  H     0.40315   0.84724   0.75841   0.00000  Uiso   1.00
H1026  H     0.40315   0.84724   0.90825   0.00000  Uiso   1.00
H1027  H     0.09685   0.65276   0.75841   0.00000  Uiso   1.00
H1028  H     0.15315   0.90276   0.75841   0.00000  Uiso   1.00
N1029  N     0.00000   0.75000   0.95069   0.00000  Uiso   1.00
N1030  N     0.00000   0.75000   0.71598   0.00000  Uiso   1.00
N1031  N     0.25000   0.50000   0.95069   0.00000  Uiso   1.00
N1032  N     0.25000   0.50000   0.71598   0.00000  Uiso   1.00
O1033  O     0.04508   0.70491   0.87291   0.00000  Uiso   1.00
O1034  O     0.20491   0.54509   0.79375   0.00000  Uiso   1.00
O1035  O     0.20491   0.54509   0.87291   0.00000  Uiso   1.00
O1036  O     0.29508   0.95491   0.79375   0.00000  Uiso   1.00
O1037  O     0.20491   0.95491   0.79375   0.00000  Uiso   1.00
O1038  O     0.29508   0.54509   0.87291   0.00000  Uiso   1.00
O1039  O     0.29508   0.54509   0.79375   0.00000  Uiso   1.00
O1040  O     0.20491   0.95491   0.87291   0.00000  Uiso   1.00
O1041  O     0.48439   0.67132   0.71235   0.00000  Uiso   1.00
O1042  O     0.01561   0.82868   0.95432   0.00000  Uiso   1.00
O1043  O     0.01561   0.82868   0.71235   0.00000  Uiso   1.00
O1044  O     0.45491   0.79509   0.79375   0.00000  Uiso   1.00
O1045  O     0.48439   0.67132   0.95432   0.00000  Uiso   1.00
O1046  O     0.26561   0.92132   0.71235   0.00000  Uiso   1.00
O1047  O     0.23439   0.57868   0.95432   0.00000  Uiso   1.00
O1048  O     0.23439   0.57868   0.71235   0.00000  Uiso   1.00
O1049  O     0.26561   0.92132   0.95432   0.00000  Uiso   1.00
O1050  O     0.45491   0.79509   0.87291   0.00000  Uiso   1.00
O1051  O     0.04508   0.70491   0.79375   0.00000  Uiso   1.00
O1052  O     0.45491   0.70491   0.79375   0.00000  Uiso   1.00
O1053  O     0.04508   0.79509   0.87291   0.00000  Uiso   1.00
O1054  O     0.04508   0.79509   0.79375   0.00000  Uiso   1.00
O1055  O     0.45491   0.70491   0.87291   0.00000  Uiso   1.00
O1056  O     0.29508   0.95491   0.87291   0.00000  Uiso   1.00
C1057  C     0.55930   0.69050   0.83333   0.00000  Uiso   1.00
C1058  C     0.50801   0.78838   0.97555   0.00000  Uiso   1.00
C1059  C     0.50801   0.78838   0.69112   0.00000  Uiso   1.00
C1060  C     0.99199   0.71162   0.97555   0.00000  Uiso   1.00
C1061  C     0.75801   0.96162   0.69112   0.00000  Uiso   1.00
C1062  C     0.74199   0.53838   0.97555   0.00000  Uiso   1.00
C1063  C     0.74199   0.53838   0.69112   0.00000  Uiso   1.00
C1064  C     0.75801   0.96162   0.97555   0.00000  Uiso   1.00
C1065  C     0.89088   0.64106   0.79130   0.00000  Uiso   1.00
C1066  C     0.60912   0.85895   0.87537   0.00000  Uiso   1.00
C1067  C     0.60912   0.85895   0.79130   0.00000  Uiso   1.00
C1068  C     0.94070   0.80950   0.83333   0.00000  Uiso   1.00
C1069  C     0.89088   0.64106   0.87537   0.00000  Uiso   1.00
C1070  C     0.60888   0.64082   0.87537   0.00000  Uiso   1.00
C1071  C     0.89112   0.85918   0.79130   0.00000  Uiso   1.00
C1072  C     0.89112   0.85918   0.87537   0.00000  Uiso   1.00
C1073  C     0.60888   0.64082   0.79130   0.00000  Uiso   1.00
C1074  C     0.64112   0.89082   0.79130   0.00000  Uiso   1.00
C1075  C     0.85888   0.60918   0.87537   0.00000  Uiso   1.00
C1076  C     0.85888   0.60918   0.79130   0.00000  Uiso   1.00
C1077  C     0.64112   0.89082   0.87537   0.00000  Uiso   1.00
C1078  C     0.85912   0.89106   0.87537   0.00000  Uiso   1.00
C1079  C     0.94065   0.69056   0.83333   0.00000  Uiso   1.00
C1080  C     0.64088   0.60895   0.79130   0.00000  Uiso   1.00
C1081  C     0.64088   0.60895   0.87537   0.00000  Uiso   1.00
C1082  C     0.85912   0.89106   0.79130   0.00000  Uiso   1.00
C1083  C     0.59293   0.84289   0.83333   0.00000  Uiso   1.00
C1084  C     0.90707   0.65711   0.83333   0.00000  Uiso   1.00
C1085  C     0.90724   0.84306   0.83333   0.00000  Uiso   1.00
C1086  C     0.59276   0.65695   0.83333   0.00000  Uiso   1.00
C1087  C     0.84276   0.59306   0.83333   0.00000  Uiso   1.00
C1088  C     0.65724   0.90695   0.83333   0.00000  Uiso   1.00
C1089  C     0.65707   0.59289   0.83333   0.00000  Uiso   1.00
C1090  C     0.55935   0.80945   0.83333   0.00000  Uiso   1.00
C1091  C     0.84293   0.90711   0.83333   0.00000  Uiso   1.00
C1092  C     0.80935   0.94056   0.83333   0.00000  Uiso   1.00
C1093  C     0.69065   0.55945   0.83333   0.00000  Uiso   1.00
C1094  C     0.69070   0.94050   0.83333   0.00000  Uiso   1.00
C1095  C     0.80930   0.55950   0.83333   0.00000  Uiso   1.00
C1096  C     0.99199   0.71162   0.69112   0.00000  Uiso   1.00
Cu1097 Cu    0.50000   0.75000   0.88022   0.00000  Uiso   1.00
Cu1098 Cu    0.50000   0.75000   0.78645   0.00000  Uiso   1.00
Cu1099 Cu    0.75000   0.50000   0.88022   0.00000  Uiso   1.00
Cu1100 Cu    0.75000   0.50000   0.78645   0.00000  Uiso   1.00
H1101  H     0.90285   0.65305   0.75842   0.00000  Uiso   1.00
H1102  H     0.84685   0.59724   0.90825   0.00000  Uiso   1.00
H1103  H     0.84685   0.59724   0.75841   0.00000  Uiso   1.00
H1104  H     0.65315   0.90276   0.90825   0.00000  Uiso   1.00
H1105  H     0.84715   0.90305   0.90825   0.00000  Uiso   1.00
H1106  H     0.65285   0.59695   0.75842   0.00000  Uiso   1.00
H1107  H     0.65285   0.59695   0.90825   0.00000  Uiso   1.00
H1108  H     0.84715   0.90305   0.75842   0.00000  Uiso   1.00
H1109  H     0.50149   0.67025   0.74079   0.00000  Uiso   1.00
H1110  H     0.99851   0.82975   0.92588   0.00000  Uiso   1.00
H1111  H     0.99851   0.82975   0.74079   0.00000  Uiso   1.00
H1112  H     0.59715   0.84695   0.90825   0.00000  Uiso   1.00
H1113  H     0.50149   0.67025   0.92588   0.00000  Uiso   1.00
H1114  H     0.74851   0.92025   0.74079   0.00000  Uiso   1.00
H1115  H     0.75149   0.57975   0.92588   0.00000  Uiso   1.00
H1116  H     0.75149   0.57975   0.74079   0.00000  Uiso   1.00
H1117  H     0.74851   0.92025   0.92588   0.00000  Uiso   1.00
H1118  H     0.59715   0.84695   0.75842   0.00000  Uiso   1.00
H1119  H     0.90285   0.65305   0.90825   0.00000  Uiso   1.00
H1120  H     0.59685   0.65276   0.90825   0.00000  Uiso   1.00
H1121  H     0.90315   0.84724   0.75841   0.00000  Uiso   1.00
H1122  H     0.90315   0.84724   0.90825   0.00000  Uiso   1.00
H1123  H     0.59685   0.65276   0.75841   0.00000  Uiso   1.00
H1124  H     0.65315   0.90276   0.75841   0.00000  Uiso   1.00
N1125  N     0.50000   0.75000   0.95069   0.00000  Uiso   1.00
N1126  N     0.50000   0.75000   0.71598   0.00000  Uiso   1.00
N1127  N     0.75000   0.50000   0.95069   0.00000  Uiso   1.00
N1128  N     0.75000   0.50000   0.71598   0.00000  Uiso   1.00
O1129  O     0.54508   0.70491   0.87291   0.00000  Uiso   1.00
O1130  O     0.70491   0.54509   0.79375   0.00000  Uiso   1.00
O1131  O     0.70491   0.54509   0.87291   0.00000  Uiso   1.00
O1132  O     0.79508   0.95491   0.79375   0.00000  Uiso   1.00
O1133  O     0.70491   0.95491   0.79375   0.00000  Uiso   1.00
O1134  O     0.79508   0.54509   0.87291   0.00000  Uiso   1.00
O1135  O     0.79508   0.54509   0.79375   0.00000  Uiso   1.00
O1136  O     0.70491   0.95491   0.87291   0.00000  Uiso   1.00
O1137  O     0.98439   0.67132   0.71235   0.00000  Uiso   1.00
O1138  O     0.51561   0.82868   0.95432   0.00000  Uiso   1.00
O1139  O     0.51561   0.82868   0.71235   0.00000  Uiso   1.00
O1140  O     0.95491   0.79509   0.79375   0.00000  Uiso   1.00
O1141  O     0.98439   0.67132   0.95432   0.00000  Uiso   1.00
O1142  O     0.76561   0.92132   0.71235   0.00000  Uiso   1.00
O1143  O     0.73439   0.57868   0.95432   0.00000  Uiso   1.00
O1144  O     0.73439   0.57868   0.71235   0.00000  Uiso   1.00
O1145  O     0.76561   0.92132   0.95432   0.00000  Uiso   1.00
O1146  O     0.95491   0.79509   0.87291   0.00000  Uiso   1.00
O1147  O     0.54508   0.70491   0.79375   0.00000  Uiso   1.00
O1148  O     0.95491   0.70491   0.79375   0.00000  Uiso   1.00
O1149  O     0.54508   0.79509   0.87291   0.00000  Uiso   1.00
O1150  O     0.54508   0.79509   0.79375   0.00000  Uiso   1.00
O1151  O     0.95491   0.70491   0.87291   0.00000  Uiso   1.00
O1152  O     0.79508   0.95491   0.87291   0.00000  Uiso   1.00
loop_
_geom_bond_atom_site_label_1
_geom_bond_atom_site_label_2
_geom_bond_distance
_geom_bond_site_symmetry_2
_ccdc_geom_bond_type
C1     O91     1.301   .     A
C1     O73     1.301   .     A
C1     C30     1.452   .     S
C2     N69     1.378   .     A
C2     O82     1.375   .     S
C2     C387    1.413   .     S
C3     N70     1.378   .     A
C3     O83     1.375   .     S
C3     C770    1.413   1_554 S
C4     O85     1.375   .     S
C4     C424    1.413   .     S
C4     N165    1.378   .     S
C5     O86     1.375   .     S
C5     C776    1.413   1_554 S
C5     N264    1.378   .     S
C6     N71     1.378   .     A
C6     O87     1.375   .     S
C6     C391    1.413   .     S
C7     N72     1.378   .     A
C7     O88     1.375   .     S
C7     C774    1.413   1_554 S
C8     O89     1.375   .     S
C8     C389    1.413   .     S
C8     N263    1.378   .     S
C9     H45     1.083   .     S
C9     C20     1.384   .     A
C9     C28     1.401   .     A
C10    C27     1.401   .     A
C10    H56     1.083   .     S
C10    C21     1.384   .     A
C11    C18     1.384   .     A
C11    H62     1.083   .     S
C11    C27     1.401   .     A
C12    C29     1.452   .     S
C12    O90     1.301   .     A
C12    O84     1.301   .     A
C13    C28     1.401   .     A
C13    C19     1.384   .     A
C13    H63     1.083   .     S
C14    C30     1.401   .     A
C14    H64     1.083   .     S
C14    C25     1.384   .     A
C15    H65     1.083   .     S
C15    C29     1.401   .     A
C15    C26     1.384   .     A
C16    C22     1.384   .     A
C16    C29     1.401   .     A
C16    H66     1.083   .     S
C17    C30     1.401   .     A
C17    H67     1.083   .     S
C17    C24     1.384   .     A
C18    H68     1.083   .     S
C18    C32     1.401   .     A
C19    C31     1.401   .     A
C19    H46     1.083   .     S
C20    H47     1.083   .     S
C20    C31     1.401   .     A
C21    H48     1.083   .     S
C21    C32     1.401   .     A
C22    C35     1.401   .     A
C22    H49     1.083   .     S
C23    C28     1.452   .     S
C23    O95     1.301   .     A
C23    O92     1.301   .     A
C24    H50     1.083   .     S
C24    C33     1.401   .     A
C25    H51     1.083   .     S
C25    C33     1.401   .     A
C26    H52     1.083   .     S
C26    C35     1.401   .     A
C27    C34     1.452   .     S
C31    C39     1.452   .     S
C32    C38     1.452   .     S
C33    C37     1.452   .     S
C34    O93     1.301   .     A
C34    O94     1.301   .     A
C35    C36     1.452   .     S
C36    O76     1.301   .     A
C36    O96     1.301   .     A
C37    O74     1.301   .     A
C37    O75     1.301   .     A
C38    O77     1.301   .     A
C38    O80     1.301   .     A
C39    O78     1.301   .     A
C39    O79     1.301   .     A
C40    O81     1.375   .     S
C40    C772    1.413   1_554 S
C40    N166    1.378   .     S
Cu41   Cu42    2.710   .     S
Cu41   O93     1.965   .     S
Cu41   N69     2.037   .     S
Cu41   O73     1.965   .     S
Cu41   O186    1.965   1_455 S
Cu41   O191    1.965   1_455 S
Cu42   N70     2.037   .     S
Cu42   O91     1.965   .     S
Cu42   O94     1.965   .     S
Cu42   O180    1.965   1_455 S
Cu42   O188    1.965   1_455 S
Cu43   O78     1.965   .     S
Cu43   N71     2.037   .     S
Cu43   O75     1.965   .     S
Cu43   Cu44    2.710   .     S
Cu43   O272    1.965   1_545 S
Cu43   O288    1.965   1_545 S
Cu44   O74     1.965   .     S
Cu44   O79     1.965   .     S
Cu44   N72     2.037   .     S
Cu44   O268    1.965   1_545 S
Cu44   O269    1.965   1_545 S
H53    O177    0.982   1_455 S
H54    O178    0.982   .     S
H55    O179    0.982   .     S
H57    O181    0.982   1_455 S
H58    O86     0.982   .     S
H59    O87     0.982   .     S
H60    O88     0.982   .     S
H61    O89     0.982   .     S
N69    C100    1.378   1_455 S
N70    C136    1.378   1_455 S
N71    C200    1.378   1_545 S
N72    C197    1.378   1_545 S
O76    Cu236   1.965   .     S
O77    Cu236   1.965   .     S
O80    Cu235   1.965   .     S
O81    H149    0.982   .     S
O82    H150    0.982   1_455 S
O83    H151    0.982   1_455 S
O84    Cu138   1.965   .     S
O85    H153    0.982   .     S
O90    Cu137   1.965   .     S
O92    Cu138   1.965   .     S
O95    Cu137   1.965   .     S
O96    Cu235   1.965   .     S
C97    O187    1.301   .     A
C97    O169    1.301   .     A
C97    C126    1.452   .     S
C98    N165    1.378   .     A
C98    O178    1.375   .     S
C98    C483    1.413   .     S
C99    N166    1.378   .     A
C99    O179    1.375   .     S
C99    C866    1.413   1_554 S
C100   O181    1.375   .     S
C100   C520    1.413   .     S
C100   N69     1.378   1_655 S
C101   O182    1.375   .     S
C101   C872    1.413   1_554 S
C101   N360    1.378   .     S
C102   N167    1.378   .     A
C102   O183    1.375   .     S
C102   C487    1.413   .     S
C103   N168    1.378   .     A
C103   O184    1.375   .     S
C103   C870    1.413   1_554 S
C104   O185    1.375   .     S
C104   C485    1.413   .     S
C104   N359    1.378   .     S
C105   H141    1.083   .     S
C105   C116    1.384   .     A
C105   C124    1.401   .     A
C106   C123    1.401   .     A
C106   H152    1.083   .     S
C106   C117    1.384   .     A
C107   C114    1.384   .     A
C107   H158    1.083   .     S
C107   C123    1.401   .     A
C108   C125    1.452   .     S
C108   O186    1.301   .     A
C108   O180    1.301   .     A
C109   C124    1.401   .     A
C109   C115    1.384   .     A
C109   H159    1.083   .     S
C110   C126    1.401   .     A
C110   H160    1.083   .     S
C110   C121    1.384   .     A
C111   H161    1.083   .     S
C111   C125    1.401   .     A
C111   C122    1.384   .     A
C112   C118    1.384   .     A
C112   C125    1.401   .     A
C112   H162    1.083   .     S
C113   C126    1.401   .     A
C113   H163    1.083   .     S
C113   C120    1.384   .     A
C114   H164    1.083   .     S
C114   C128    1.401   .     A
C115   C127    1.401   .     A
C115   H142    1.083   .     S
C116   H143    1.083   .     S
C116   C127    1.401   .     A
C117   H144    1.083   .     S
C117   C128    1.401   .     A
C118   C131    1.401   .     A
C118   H145    1.083   .     S
C119   C124    1.452   .     S
C119   O191    1.301   .     A
C119   O188    1.301   .     A
C120   H146    1.083   .     S
C120   C129    1.401   .     A
C121   H147    1.083   .     S
C121   C129    1.401   .     A
C122   H148    1.083   .     S
C122   C131    1.401   .     A
C123   C130    1.452   .     S
C127   C135    1.452   .     S
C128   C134    1.452   .     S
C129   C133    1.452   .     S
C130   O189    1.301   .     A
C130   O190    1.301   .     A
C131   C132    1.452   .     S
C132   O172    1.301   .     A
C132   O192    1.301   .     A
C133   O170    1.301   .     A
C133   O171    1.301   .     A
C134   O173    1.301   .     A
C134   O176    1.301   .     A
C135   O174    1.301   .     A
C135   O175    1.301   .     A
C136   O177    1.375   .     S
C136   C868    1.413   1_554 S
C136   N70     1.378   1_655 S
Cu137  Cu138   2.710   .     S
Cu137  O189    1.965   .     S
Cu137  N165    2.037   .     S
Cu137  O169    1.965   .     S
Cu138  N166    2.037   .     S
Cu138  O187    1.965   .     S
Cu138  O190    1.965   .     S
Cu139  O174    1.965   .     S
Cu139  N167    2.037   .     S
Cu139  O171    1.965   .     S
Cu139  Cu140   2.710   .     S
Cu139  O368    1.965   1_545 S
Cu139  O384    1.965   1_545 S
Cu140  O170    1.965   .     S
Cu140  O175    1.965   .     S
Cu140  N168    2.037   .     S
Cu140  O364    1.965   1_545 S
Cu140  O365    1.965   1_545 S
H150   O82     0.982   1_655 S
H151   O83     0.982   1_655 S
H154   O182    0.982   .     S
H155   O183    0.982   .     S
H156   O184    0.982   .     S
H157   O185    0.982   .     S
N167   C296    1.378   1_545 S
N168   C293    1.378   1_545 S
O172   Cu332   1.965   .     S
O173   Cu332   1.965   .     S
O176   Cu331   1.965   .     S
O177   H53     0.982   1_655 S
O180   Cu42    1.965   1_655 S
O181   H57     0.982   1_655 S
O186   Cu41    1.965   1_655 S
O188   Cu42    1.965   1_655 S
O191   Cu41    1.965   1_655 S
O192   Cu331   1.965   .     S
C193   O283    1.301   .     A
C193   O265    1.301   .     A
C193   C222    1.452   .     S
C194   N261    1.378   .     A
C194   O274    1.375   .     S
C194   C579    1.413   .     S
C195   N262    1.378   .     A
C195   O275    1.375   .     S
C195   C962    1.413   1_554 S
C196   O277    1.375   .     S
C196   C616    1.413   .     S
C196   N357    1.378   .     S
C197   O278    1.375   .     S
C197   C968    1.413   1_554 S
C197   N72     1.378   1_565 S
C198   N263    1.378   .     A
C198   O279    1.375   .     S
C198   C583    1.413   .     S
C199   N264    1.378   .     A
C199   O280    1.375   .     S
C199   C966    1.413   1_554 S
C200   O281    1.375   .     S
C200   C581    1.413   .     S
C200   N71     1.378   1_565 S
C201   H237    1.083   .     S
C201   C212    1.384   .     A
C201   C220    1.401   .     A
C202   C219    1.401   .     A
C202   H248    1.083   .     S
C202   C213    1.384   .     A
C203   C210    1.384   .     A
C203   H254    1.083   .     S
C203   C219    1.401   .     A
C204   C221    1.452   .     S
C204   O282    1.301   .     A
C204   O276    1.301   .     A
C205   C220    1.401   .     A
C205   C211    1.384   .     A
C205   H255    1.083   .     S
C206   C222    1.401   .     A
C206   H256    1.083   .     S
C206   C217    1.384   .     A
C207   H257    1.083   .     S
C207   C221    1.401   .     A
C207   C218    1.384   .     A
C208   C214    1.384   .     A
C208   C221    1.401   .     A
C208   H258    1.083   .     S
C209   C222    1.401   .     A
C209   H259    1.083   .     S
C209   C216    1.384   .     A
C210   H260    1.083   .     S
C210   C224    1.401   .     A
C211   C223    1.401   .     A
C211   H238    1.083   .     S
C212   H239    1.083   .     S
C212   C223    1.401   .     A
C213   H240    1.083   .     S
C213   C224    1.401   .     A
C214   C227    1.401   .     A
C214   H241    1.083   .     S
C215   C220    1.452   .     S
C215   O287    1.301   .     A
C215   O284    1.301   .     A
C216   H242    1.083   .     S
C216   C225    1.401   .     A
C217   H243    1.083   .     S
C217   C225    1.401   .     A
C218   H244    1.083   .     S
C218   C227    1.401   .     A
C219   C226    1.452   .     S
C223   C231    1.452   .     S
C224   C230    1.452   .     S
C225   C229    1.452   .     S
C226   O285    1.301   .     A
C226   O286    1.301   .     A
C227   C228    1.452   .     S
C228   O268    1.301   .     A
C228   O288    1.301   .     A
C229   O266    1.301   .     A
C229   O267    1.301   .     A
C230   O269    1.301   .     A
C230   O272    1.301   .     A
C231   O270    1.301   .     A
C231   O271    1.301   .     A
C232   O273    1.375   .     S
C232   C964    1.413   1_554 S
C232   N358    1.378   .     S
Cu233  Cu234   2.710   .     S
Cu233  O285    1.965   .     S
Cu233  N261    2.037   .     S
Cu233  O265    1.965   .     S
Cu233  O378    1.965   1_455 S
Cu233  O383    1.965   1_455 S
Cu234  N262    2.037   .     S
Cu234  O283    1.965   .     S
Cu234  O286    1.965   .     S
Cu234  O372    1.965   1_455 S
Cu234  O380    1.965   1_455 S
Cu235  O270    1.965   .     S
Cu235  N263    2.037   .     S
Cu235  O267    1.965   .     S
Cu235  Cu236   2.710   .     S
Cu236  O266    1.965   .     S
Cu236  O271    1.965   .     S
Cu236  N264    2.037   .     S
H245   O369    0.982   1_455 S
H246   O370    0.982   .     S
H247   O371    0.982   .     S
H249   O373    0.982   1_455 S
H250   O278    0.982   .     S
H251   O279    0.982   .     S
H252   O280    0.982   .     S
H253   O281    0.982   .     S
N261   C292    1.378   1_455 S
N262   C328    1.378   1_455 S
O268   Cu44    1.965   1_565 S
O269   Cu44    1.965   1_565 S
O272   Cu43    1.965   1_565 S
O273   H341    0.982   .     S
O274   H342    0.982   1_455 S
O275   H343    0.982   1_455 S
O276   Cu330   1.965   .     S
O277   H345    0.982   .     S
O282   Cu329   1.965   .     S
O284   Cu330   1.965   .     S
O287   Cu329   1.965   .     S
O288   Cu43    1.965   1_565 S
C289   O379    1.301   .     A
C289   O361    1.301   .     A
C289   C318    1.452   .     S
C290   N357    1.378   .     A
C290   O370    1.375   .     S
C290   C675    1.413   .     S
C291   N358    1.378   .     A
C291   O371    1.375   .     S
C291   C1058   1.413   1_554 S
C292   O373    1.375   .     S
C292   C712    1.413   .     S
C292   N261    1.378   1_655 S
C293   O374    1.375   .     S
C293   C1064   1.413   1_554 S
C293   N168    1.378   1_565 S
C294   N359    1.378   .     A
C294   O375    1.375   .     S
C294   C679    1.413   .     S
C295   N360    1.378   .     A
C295   O376    1.375   .     S
C295   C1062   1.413   1_554 S
C296   O377    1.375   .     S
C296   C677    1.413   .     S
C296   N167    1.378   1_565 S
C297   H333    1.083   .     S
C297   C308    1.384   .     A
C297   C316    1.401   .     A
C298   C315    1.401   .     A
C298   H344    1.083   .     S
C298   C309    1.384   .     A
C299   C306    1.384   .     A
C299   H350    1.083   .     S
C299   C315    1.401   .     A
C300   C317    1.452   .     S
C300   O378    1.301   .     A
C300   O372    1.301   .     A
C301   C316    1.401   .     A
C301   C307    1.384   .     A
C301   H351    1.083   .     S
C302   C318    1.401   .     A
C302   H352    1.083   .     S
C302   C313    1.384   .     A
C303   H353    1.083   .     S
C303   C317    1.401   .     A
C303   C314    1.384   .     A
C304   C310    1.384   .     A
C304   C317    1.401   .     A
C304   H354    1.083   .     S
C305   C318    1.401   .     A
C305   H355    1.083   .     S
C305   C312    1.384   .     A
C306   H356    1.083   .     S
C306   C320    1.401   .     A
C307   C319    1.401   .     A
C307   H334    1.083   .     S
C308   H335    1.083   .     S
C308   C319    1.401   .     A
C309   H336    1.083   .     S
C309   C320    1.401   .     A
C310   C323    1.401   .     A
C310   H337    1.083   .     S
C311   C316    1.452   .     S
C311   O383    1.301   .     A
C311   O380    1.301   .     A
C312   H338    1.083   .     S
C312   C321    1.401   .     A
C313   H339    1.083   .     S
C313   C321    1.401   .     A
C314   H340    1.083   .     S
C314   C323    1.401   .     A
C315   C322    1.452   .     S
C319   C327    1.452   .     S
C320   C326    1.452   .     S
C321   C325    1.452   .     S
C322   O381    1.301   .     A
C322   O382    1.301   .     A
C323   C324    1.452   .     S
C324   O364    1.301   .     A
C324   O384    1.301   .     A
C325   O362    1.301   .     A
C325   O363    1.301   .     A
C326   O365    1.301   .     A
C326   O368    1.301   .     A
C327   O366    1.301   .     A
C327   O367    1.301   .     A
C328   O369    1.375   .     S
C328   C1060   1.413   1_554 S
C328   N262    1.378   1_655 S
Cu329  Cu330   2.710   .     S
Cu329  O381    1.965   .     S
Cu329  N357    2.037   .     S
Cu329  O361    1.965   .     S
Cu330  N358    2.037   .     S
Cu330  O379    1.965   .     S
Cu330  O382    1.965   .     S
Cu331  O366    1.965   .     S
Cu331  N359    2.037   .     S
Cu331  O363    1.965   .     S
Cu331  Cu332   2.710   .     S
Cu332  O362    1.965   .     S
Cu332  O367    1.965   .     S
Cu332  N360    2.037   .     S
H342   O274    0.982   1_655 S
H343   O275    0.982   1_655 S
H346   O374    0.982   .     S
H347   O375    0.982   .     S
H348   O376    0.982   .     S
H349   O377    0.982   .     S
O364   Cu140   1.965   1_565 S
O365   Cu140   1.965   1_565 S
O368   Cu139   1.965   1_565 S
O369   H245    0.982   1_655 S
O372   Cu234   1.965   1_655 S
O373   H249    0.982   1_655 S
O378   Cu233   1.965   1_655 S
O380   Cu234   1.965   1_655 S
O383   Cu233   1.965   1_655 S
O384   Cu139   1.965   1_565 S
C385   O475    1.301   .     A
C385   O457    1.301   .     A
C385   C414    1.452   .     S
C386   N453    1.378   .     A
C386   O466    1.375   .     S
C386   C771    1.413   .     S
C387   N454    1.378   .     A
C387   O467    1.375   .     S
C388   O469    1.375   .     S
C388   C808    1.413   .     S
C388   N549    1.378   .     S
C389   O470    1.375   .     S
C389   N648    1.378   .     S
C390   N455    1.378   .     A
C390   O471    1.375   .     S
C390   C775    1.413   .     S
C391   N456    1.378   .     A
C391   O472    1.375   .     S
C392   O473    1.375   .     S
C392   C773    1.413   .     S
C392   N647    1.378   .     S
C393   H429    1.083   .     S
C393   C404    1.384   .     A
C393   C412    1.401   .     A
C394   C411    1.401   .     A
C394   H440    1.083   .     S
C394   C405    1.384   .     A
C395   C402    1.384   .     A
C395   H446    1.083   .     S
C395   C411    1.401   .     A
C396   C413    1.452   .     S
C396   O474    1.301   .     A
C396   O468    1.301   .     A
C397   C412    1.401   .     A
C397   C403    1.384   .     A
C397   H447    1.083   .     S
C398   C414    1.401   .     A
C398   H448    1.083   .     S
C398   C409    1.384   .     A
C399   H449    1.083   .     S
C399   C413    1.401   .     A
C399   C410    1.384   .     A
C400   C406    1.384   .     A
C400   C413    1.401   .     A
C400   H450    1.083   .     S
C401   C414    1.401   .     A
C401   H451    1.083   .     S
C401   C408    1.384   .     A
C402   H452    1.083   .     S
C402   C416    1.401   .     A
C403   C415    1.401   .     A
C403   H430    1.083   .     S
C404   H431    1.083   .     S
C404   C415    1.401   .     A
C405   H432    1.083   .     S
C405   C416    1.401   .     A
C406   C419    1.401   .     A
C406   H433    1.083   .     S
C407   C412    1.452   .     S
C407   O479    1.301   .     A
C407   O476    1.301   .     A
C408   H434    1.083   .     S
C408   C417    1.401   .     A
C409   H435    1.083   .     S
C409   C417    1.401   .     A
C410   H436    1.083   .     S
C410   C419    1.401   .     A
C411   C418    1.452   .     S
C415   C423    1.452   .     S
C416   C422    1.452   .     S
C417   C421    1.452   .     S
C418   O477    1.301   .     A
C418   O478    1.301   .     A
C419   C420    1.452   .     S
C420   O460    1.301   .     A
C420   O480    1.301   .     A
C421   O458    1.301   .     A
C421   O459    1.301   .     A
C422   O461    1.301   .     A
C422   O464    1.301   .     A
C423   O462    1.301   .     A
C423   O463    1.301   .     A
C424   O465    1.375   .     S
C424   N550    1.378   .     S
Cu425  Cu426   2.710   .     S
Cu425  O477    1.965   .     S
Cu425  N453    2.037   .     S
Cu425  O457    1.965   .     S
Cu425  O570    1.965   1_455 S
Cu425  O575    1.965   1_455 S
Cu426  N454    2.037   .     S
Cu426  O475    1.965   .     S
Cu426  O478    1.965   .     S
Cu426  O564    1.965   1_455 S
Cu426  O572    1.965   1_455 S
Cu427  O462    1.965   .     S
Cu427  N455    2.037   .     S
Cu427  O459    1.965   .     S
Cu427  Cu428   2.710   .     S
Cu427  O656    1.965   1_545 S
Cu427  O672    1.965   1_545 S
Cu428  O458    1.965   .     S
Cu428  O463    1.965   .     S
Cu428  N456    2.037   .     S
Cu428  O652    1.965   1_545 S
Cu428  O653    1.965   1_545 S
H437   O561    0.982   1_455 S
H438   O562    0.982   .     S
H439   O563    0.982   .     S
H441   O565    0.982   1_455 S
H442   O470    0.982   .     S
H443   O471    0.982   .     S
H444   O472    0.982   .     S
H445   O473    0.982   .     S
N453   C484    1.378   1_455 S
N454   C520    1.378   1_455 S
N455   C584    1.378   1_545 S
N456   C581    1.378   1_545 S
O460   Cu620   1.965   .     S
O461   Cu620   1.965   .     S
O464   Cu619   1.965   .     S
O465   H533    0.982   .     S
O466   H534    0.982   1_455 S
O467   H535    0.982   1_455 S
O468   Cu522   1.965   .     S
O469   H537    0.982   .     S
O474   Cu521   1.965   .     S
O476   Cu522   1.965   .     S
O479   Cu521   1.965   .     S
O480   Cu619   1.965   .     S
C481   O571    1.301   .     A
C481   O553    1.301   .     A
C481   C510    1.452   .     S
C482   N549    1.378   .     A
C482   O562    1.375   .     S
C482   C867    1.413   .     S
C483   N550    1.378   .     A
C483   O563    1.375   .     S
C484   O565    1.375   .     S
C484   C904    1.413   .     S
C484   N453    1.378   1_655 S
C485   O566    1.375   .     S
C485   N744    1.378   .     S
C486   N551    1.378   .     A
C486   O567    1.375   .     S
C486   C871    1.413   .     S
C487   N552    1.378   .     A
C487   O568    1.375   .     S
C488   O569    1.375   .     S
C488   C869    1.413   .     S
C488   N743    1.378   .     S
C489   H525    1.083   .     S
C489   C500    1.384   .     A
C489   C508    1.401   .     A
C490   C507    1.401   .     A
C490   H536    1.083   .     S
C490   C501    1.384   .     A
C491   C498    1.384   .     A
C491   H542    1.083   .     S
C491   C507    1.401   .     A
C492   C509    1.452   .     S
C492   O570    1.301   .     A
C492   O564    1.301   .     A
C493   C508    1.401   .     A
C493   C499    1.384   .     A
C493   H543    1.083   .     S
C494   C510    1.401   .     A
C494   H544    1.083   .     S
C494   C505    1.384   .     A
C495   H545    1.083   .     S
C495   C509    1.401   .     A
C495   C506    1.384   .     A
C496   C502    1.384   .     A
C496   C509    1.401   .     A
C496   H546    1.083   .     S
C497   C510    1.401   .     A
C497   H547    1.083   .     S
C497   C504    1.384   .     A
C498   H548    1.083   .     S
C498   C512    1.401   .     A
C499   C511    1.401   .     A
C499   H526    1.083   .     S
C500   H527    1.083   .     S
C500   C511    1.401   .     A
C501   H528    1.083   .     S
C501   C512    1.401   .     A
C502   C515    1.401   .     A
C502   H529    1.083   .     S
C503   C508    1.452   .     S
C503   O575    1.301   .     A
C503   O572    1.301   .     A
C504   H530    1.083   .     S
C504   C513    1.401   .     A
C505   H531    1.083   .     S
C505   C513    1.401   .     A
C506   H532    1.083   .     S
C506   C515    1.401   .     A
C507   C514    1.452   .     S
C511   C519    1.452   .     S
C512   C518    1.452   .     S
C513   C517    1.452   .     S
C514   O573    1.301   .     A
C514   O574    1.301   .     A
C515   C516    1.452   .     S
C516   O556    1.301   .     A
C516   O576    1.301   .     A
C517   O554    1.301   .     A
C517   O555    1.301   .     A
C518   O557    1.301   .     A
C518   O560    1.301   .     A
C519   O558    1.301   .     A
C519   O559    1.301   .     A
C520   O561    1.375   .     S
C520   N454    1.378   1_655 S
Cu521  Cu522   2.710   .     S
Cu521  O573    1.965   .     S
Cu521  N549    2.037   .     S
Cu521  O553    1.965   .     S
Cu522  N550    2.037   .     S
Cu522  O571    1.965   .     S
Cu522  O574    1.965   .     S
Cu523  O558    1.965   .     S
Cu523  N551    2.037   .     S
Cu523  O555    1.965   .     S
Cu523  Cu524   2.710   .     S
Cu523  O752    1.965   1_545 S
Cu523  O768    1.965   1_545 S
Cu524  O554    1.965   .     S
Cu524  O559    1.965   .     S
Cu524  N552    2.037   .     S
Cu524  O748    1.965   1_545 S
Cu524  O749    1.965   1_545 S
H534   O466    0.982   1_655 S
H535   O467    0.982   1_655 S
H538   O566    0.982   .     S
H539   O567    0.982   .     S
H540   O568    0.982   .     S
H541   O569    0.982   .     S
N551   C680    1.378   1_545 S
N552   C677    1.378   1_545 S
O556   Cu716   1.965   .     S
O557   Cu716   1.965   .     S
O560   Cu715   1.965   .     S
O561   H437    0.982   1_655 S
O564   Cu426   1.965   1_655 S
O565   H441    0.982   1_655 S
O570   Cu425   1.965   1_655 S
O572   Cu426   1.965   1_655 S
O575   Cu425   1.965   1_655 S
O576   Cu715   1.965   .     S
C577   O667    1.301   .     A
C577   O649    1.301   .     A
C577   C606    1.452   .     S
C578   N645    1.378   .     A
C578   O658    1.375   .     S
C578   C963    1.413   .     S
C579   N646    1.378   .     A
C579   O659    1.375   .     S
C580   O661    1.375   .     S
C580   C1000   1.413   .     S
C580   N741    1.378   .     S
C581   O662    1.375   .     S
C581   N456    1.378   1_565 S
C582   N647    1.378   .     A
C582   O663    1.375   .     S
C582   C967    1.413   .     S
C583   N648    1.378   .     A
C583   O664    1.375   .     S
C584   O665    1.375   .     S
C584   C965    1.413   .     S
C584   N455    1.378   1_565 S
C585   H621    1.083   .     S
C585   C596    1.384   .     A
C585   C604    1.401   .     A
C586   C603    1.401   .     A
C586   H632    1.083   .     S
C586   C597    1.384   .     A
C587   C594    1.384   .     A
C587   H638    1.083   .     S
C587   C603    1.401   .     A
C588   C605    1.452   .     S
C588   O666    1.301   .     A
C588   O660    1.301   .     A
C589   C604    1.401   .     A
C589   C595    1.384   .     A
C589   H639    1.083   .     S
C590   C606    1.401   .     A
C590   H640    1.083   .     S
C590   C601    1.384   .     A
C591   H641    1.083   .     S
C591   C605    1.401   .     A
C591   C602    1.384   .     A
C592   C598    1.384   .     A
C592   C605    1.401   .     A
C592   H642    1.083   .     S
C593   C606    1.401   .     A
C593   H643    1.083   .     S
C593   C600    1.384   .     A
C594   H644    1.083   .     S
C594   C608    1.401   .     A
C595   C607    1.401   .     A
C595   H622    1.083   .     S
C596   H623    1.083   .     S
C596   C607    1.401   .     A
C597   H624    1.083   .     S
C597   C608    1.401   .     A
C598   C611    1.401   .     A
C598   H625    1.083   .     S
C599   C604    1.452   .     S
C599   O671    1.301   .     A
C599   O668    1.301   .     A
C600   H626    1.083   .     S
C600   C609    1.401   .     A
C601   H627    1.083   .     S
C601   C609    1.401   .     A
C602   H628    1.083   .     S
C602   C611    1.401   .     A
C603   C610    1.452   .     S
C607   C615    1.452   .     S
C608   C614    1.452   .     S
C609   C613    1.452   .     S
C610   O669    1.301   .     A
C610   O670    1.301   .     A
C611   C612    1.452   .     S
C612   O652    1.301   .     A
C612   O672    1.301   .     A
C613   O650    1.301   .     A
C613   O651    1.301   .     A
C614   O653    1.301   .     A
C614   O656    1.301   .     A
C615   O654    1.301   .     A
C615   O655    1.301   .     A
C616   O657    1.375   .     S
C616   N742    1.378   .     S
Cu617  Cu618   2.710   .     S
Cu617  O669    1.965   .     S
Cu617  N645    2.037   .     S
Cu617  O649    1.965   .     S
Cu617  O762    1.965   1_455 S
Cu617  O767    1.965   1_455 S
Cu618  N646    2.037   .     S
Cu618  O667    1.965   .     S
Cu618  O670    1.965   .     S
Cu618  O756    1.965   1_455 S
Cu618  O764    1.965   1_455 S
Cu619  O654    1.965   .     S
Cu619  N647    2.037   .     S
Cu619  O651    1.965   .     S
Cu619  Cu620   2.710   .     S
Cu620  O650    1.965   .     S
Cu620  O655    1.965   .     S
Cu620  N648    2.037   .     S
H629   O753    0.982   1_455 S
H630   O754    0.982   .     S
H631   O755    0.982   .     S
H633   O757    0.982   1_455 S
H634   O662    0.982   .     S
H635   O663    0.982   .     S
H636   O664    0.982   .     S
H637   O665    0.982   .     S
N645   C676    1.378   1_455 S
N646   C712    1.378   1_455 S
O652   Cu428   1.965   1_565 S
O653   Cu428   1.965   1_565 S
O656   Cu427   1.965   1_565 S
O657   H725    0.982   .     S
O658   H726    0.982   1_455 S
O659   H727    0.982   1_455 S
O660   Cu714   1.965   .     S
O661   H729    0.982   .     S
O666   Cu713   1.965   .     S
O668   Cu714   1.965   .     S
O671   Cu713   1.965   .     S
O672   Cu427   1.965   1_565 S
C673   O763    1.301   .     A
C673   O745    1.301   .     A
C673   C702    1.452   .     S
C674   N741    1.378   .     A
C674   O754    1.375   .     S
C674   C1059   1.413   .     S
C675   N742    1.378   .     A
C675   O755    1.375   .     S
C676   O757    1.375   .     S
C676   C1096   1.413   .     S
C676   N645    1.378   1_655 S
C677   O758    1.375   .     S
C677   N552    1.378   1_565 S
C678   N743    1.378   .     A
C678   O759    1.375   .     S
C678   C1063   1.413   .     S
C679   N744    1.378   .     A
C679   O760    1.375   .     S
C680   O761    1.375   .     S
C680   C1061   1.413   .     S
C680   N551    1.378   1_565 S
C681   H717    1.083   .     S
C681   C692    1.384   .     A
C681   C700    1.401   .     A
C682   C699    1.401   .     A
C682   H728    1.083   .     S
C682   C693    1.384   .     A
C683   C690    1.384   .     A
C683   H734    1.083   .     S
C683   C699    1.401   .     A
C684   C701    1.452   .     S
C684   O762    1.301   .     A
C684   O756    1.301   .     A
C685   C700    1.401   .     A
C685   C691    1.384   .     A
C685   H735    1.083   .     S
C686   C702    1.401   .     A
C686   H736    1.083   .     S
C686   C697    1.384   .     A
C687   H737    1.083   .     S
C687   C701    1.401   .     A
C687   C698    1.384   .     A
C688   C694    1.384   .     A
C688   C701    1.401   .     A
C688   H738    1.083   .     S
C689   C702    1.401   .     A
C689   H739    1.083   .     S
C689   C696    1.384   .     A
C690   H740    1.083   .     S
C690   C704    1.401   .     A
C691   C703    1.401   .     A
C691   H718    1.083   .     S
C692   H719    1.083   .     S
C692   C703    1.401   .     A
C693   H720    1.083   .     S
C693   C704    1.401   .     A
C694   C707    1.401   .     A
C694   H721    1.083   .     S
C695   C700    1.452   .     S
C695   O767    1.301   .     A
C695   O764    1.301   .     A
C696   H722    1.083   .     S
C696   C705    1.401   .     A
C697   H723    1.083   .     S
C697   C705    1.401   .     A
C698   H724    1.083   .     S
C698   C707    1.401   .     A
C699   C706    1.452   .     S
C703   C711    1.452   .     S
C704   C710    1.452   .     S
C705   C709    1.452   .     S
C706   O765    1.301   .     A
C706   O766    1.301   .     A
C707   C708    1.452   .     S
C708   O748    1.301   .     A
C708   O768    1.301   .     A
C709   O746    1.301   .     A
C709   O747    1.301   .     A
C710   O749    1.301   .     A
C710   O752    1.301   .     A
C711   O750    1.301   .     A
C711   O751    1.301   .     A
C712   O753    1.375   .     S
C712   N646    1.378   1_655 S
Cu713  Cu714   2.710   .     S
Cu713  O765    1.965   .     S
Cu713  N741    2.037   .     S
Cu713  O745    1.965   .     S
Cu714  N742    2.037   .     S
Cu714  O763    1.965   .     S
Cu714  O766    1.965   .     S
Cu715  O750    1.965   .     S
Cu715  N743    2.037   .     S
Cu715  O747    1.965   .     S
Cu715  Cu716   2.710   .     S
Cu716  O746    1.965   .     S
Cu716  O751    1.965   .     S
Cu716  N744    2.037   .     S
H726   O658    0.982   1_655 S
H727   O659    0.982   1_655 S
H730   O758    0.982   .     S
H731   O759    0.982   .     S
H732   O760    0.982   .     S
H733   O761    0.982   .     S
O748   Cu524   1.965   1_565 S
O749   Cu524   1.965   1_565 S
O752   Cu523   1.965   1_565 S
O753   H629    0.982   1_655 S
O756   Cu618   1.965   1_655 S
O757   H633    0.982   1_655 S
O762   Cu617   1.965   1_655 S
O764   Cu618   1.965   1_655 S
O767   Cu617   1.965   1_655 S
O768   Cu523   1.965   1_565 S
C769   O859    1.301   .     A
C769   O841    1.301   .     A
C769   C798    1.452   .     S
C770   N837    1.378   .     A
C770   O850    1.375   .     S
C770   C3      1.413   1_556 S
C771   N838    1.378   .     A
C771   O851    1.375   .     S
C772   O853    1.375   .     S
C772   C40     1.413   1_556 S
C772   N933    1.378   .     S
C773   O854    1.375   .     S
C773   N1032   1.378   .     S
C774   N839    1.378   .     A
C774   O855    1.375   .     S
C774   C7      1.413   1_556 S
C775   N840    1.378   .     A
C775   O856    1.375   .     S
C776   O857    1.375   .     S
C776   C5      1.413   1_556 S
C776   N1031   1.378   .     S
C777   H813    1.083   .     S
C777   C788    1.384   .     A
C777   C796    1.401   .     A
C778   C795    1.401   .     A
C778   H824    1.083   .     S
C778   C789    1.384   .     A
C779   C786    1.384   .     A
C779   H830    1.083   .     S
C779   C795    1.401   .     A
C780   C797    1.452   .     S
C780   O858    1.301   .     A
C780   O852    1.301   .     A
C781   C796    1.401   .     A
C781   C787    1.384   .     A
C781   H831    1.083   .     S
C782   C798    1.401   .     A
C782   H832    1.083   .     S
C782   C793    1.384   .     A
C783   H833    1.083   .     S
C783   C797    1.401   .     A
C783   C794    1.384   .     A
C784   C790    1.384   .     A
C784   C797    1.401   .     A
C784   H834    1.083   .     S
C785   C798    1.401   .     A
C785   H835    1.083   .     S
C785   C792    1.384   .     A
C786   H836    1.083   .     S
C786   C800    1.401   .     A
C787   C799    1.401   .     A
C787   H814    1.083   .     S
C788   H815    1.083   .     S
C788   C799    1.401   .     A
C789   H816    1.083   .     S
C789   C800    1.401   .     A
C790   C803    1.401   .     A
C790   H817    1.083   .     S
C791   C796    1.452   .     S
C791   O863    1.301   .     A
C791   O860    1.301   .     A
C792   H818    1.083   .     S
C792   C801    1.401   .     A
C793   H819    1.083   .     S
C793   C801    1.401   .     A
C794   H820    1.083   .     S
C794   C803    1.401   .     A
C795   C802    1.452   .     S
C799   C807    1.452   .     S
C800   C806    1.452   .     S
C801   C805    1.452   .     S
C802   O861    1.301   .     A
C802   O862    1.301   .     A
C803   C804    1.452   .     S
C804   O844    1.301   .     A
C804   O864    1.301   .     A
C805   O842    1.301   .     A
C805   O843    1.301   .     A
C806   O845    1.301   .     A
C806   O848    1.301   .     A
C807   O846    1.301   .     A
C807   O847    1.301   .     A
C808   O849    1.375   .     S
C808   N934    1.378   .     S
Cu809  Cu810   2.710   .     S
Cu809  O861    1.965   .     S
Cu809  N837    2.037   .     S
Cu809  O841    1.965   .     S
Cu809  O954    1.965   1_455 S
Cu809  O959    1.965   1_455 S
Cu810  N838    2.037   .     S
Cu810  O859    1.965   .     S
Cu810  O862    1.965   .     S
Cu810  O948    1.965   1_455 S
Cu810  O956    1.965   1_455 S
Cu811  O846    1.965   .     S
Cu811  N839    2.037   .     S
Cu811  O843    1.965   .     S
Cu811  Cu812   2.710   .     S
Cu811  O1040   1.965   1_545 S
Cu811  O1056   1.965   1_545 S
Cu812  O842    1.965   .     S
Cu812  O847    1.965   .     S
Cu812  N840    2.037   .     S
Cu812  O1036   1.965   1_545 S
Cu812  O1037   1.965   1_545 S
H821   O945    0.982   1_455 S
H822   O946    0.982   .     S
H823   O947    0.982   .     S
H825   O949    0.982   1_455 S
H826   O854    0.982   .     S
H827   O855    0.982   .     S
H828   O856    0.982   .     S
H829   O857    0.982   .     S
N837   C868    1.378   1_455 S
N838   C904    1.378   1_455 S
N839   C968    1.378   1_545 S
N840   C965    1.378   1_545 S
O844   Cu1004  1.965   .     S
O845   Cu1004  1.965   .     S
O848   Cu1003  1.965   .     S
O849   H917    0.982   .     S
O850   H918    0.982   1_455 S
O851   H919    0.982   1_455 S
O852   Cu906   1.965   .     S
O853   H921    0.982   .     S
O858   Cu905   1.965   .     S
O860   Cu906   1.965   .     S
O863   Cu905   1.965   .     S
O864   Cu1003  1.965   .     S
C865   O955    1.301   .     A
C865   O937    1.301   .     A
C865   C894    1.452   .     S
C866   N933    1.378   .     A
C866   O946    1.375   .     S
C866   C99     1.413   1_556 S
C867   N934    1.378   .     A
C867   O947    1.375   .     S
C868   O949    1.375   .     S
C868   C136    1.413   1_556 S
C868   N837    1.378   1_655 S
C869   O950    1.375   .     S
C869   N1128   1.378   .     S
C870   N935    1.378   .     A
C870   O951    1.375   .     S
C870   C103    1.413   1_556 S
C871   N936    1.378   .     A
C871   O952    1.375   .     S
C872   O953    1.375   .     S
C872   C101    1.413   1_556 S
C872   N1127   1.378   .     S
C873   H909    1.083   .     S
C873   C884    1.384   .     A
C873   C892    1.401   .     A
C874   C891    1.401   .     A
C874   H920    1.083   .     S
C874   C885    1.384   .     A
C875   C882    1.384   .     A
C875   H926    1.083   .     S
C875   C891    1.401   .     A
C876   C893    1.452   .     S
C876   O954    1.301   .     A
C876   O948    1.301   .     A
C877   C892    1.401   .     A
C877   C883    1.384   .     A
C877   H927    1.083   .     S
C878   C894    1.401   .     A
C878   H928    1.083   .     S
C878   C889    1.384   .     A
C879   H929    1.083   .     S
C879   C893    1.401   .     A
C879   C890    1.384   .     A
C880   C886    1.384   .     A
C880   C893    1.401   .     A
C880   H930    1.083   .     S
C881   C894    1.401   .     A
C881   H931    1.083   .     S
C881   C888    1.384   .     A
C882   H932    1.083   .     S
C882   C896    1.401   .     A
C883   C895    1.401   .     A
C883   H910    1.083   .     S
C884   H911    1.083   .     S
C884   C895    1.401   .     A
C885   H912    1.083   .     S
C885   C896    1.401   .     A
C886   C899    1.401   .     A
C886   H913    1.083   .     S
C887   C892    1.452   .     S
C887   O959    1.301   .     A
C887   O956    1.301   .     A
C888   H914    1.083   .     S
C888   C897    1.401   .     A
C889   H915    1.083   .     S
C889   C897    1.401   .     A
C890   H916    1.083   .     S
C890   C899    1.401   .     A
C891   C898    1.452   .     S
C895   C903    1.452   .     S
C896   C902    1.452   .     S
C897   C901    1.452   .     S
C898   O957    1.301   .     A
C898   O958    1.301   .     A
C899   C900    1.452   .     S
C900   O940    1.301   .     A
C900   O960    1.301   .     A
C901   O938    1.301   .     A
C901   O939    1.301   .     A
C902   O941    1.301   .     A
C902   O944    1.301   .     A
C903   O942    1.301   .     A
C903   O943    1.301   .     A
C904   O945    1.375   .     S
C904   N838    1.378   1_655 S
Cu905  Cu906   2.710   .     S
Cu905  O957    1.965   .     S
Cu905  N933    2.037   .     S
Cu905  O937    1.965   .     S
Cu906  N934    2.037   .     S
Cu906  O955    1.965   .     S
Cu906  O958    1.965   .     S
Cu907  O942    1.965   .     S
Cu907  N935    2.037   .     S
Cu907  O939    1.965   .     S
Cu907  Cu908   2.710   .     S
Cu907  O1136   1.965   1_545 S
Cu907  O1152   1.965   1_545 S
Cu908  O938    1.965   .     S
Cu908  O943    1.965   .     S
Cu908  N936    2.037   .     S
Cu908  O1132   1.965   1_545 S
Cu908  O1133   1.965   1_545 S
H918   O850    0.982   1_655 S
H919   O851    0.982   1_655 S
H922   O950    0.982   .     S
H923   O951    0.982   .     S
H924   O952    0.982   .     S
H925   O953    0.982   .     S
N935   C1064   1.378   1_545 S
N936   C1061   1.378   1_545 S
O940   Cu1100  1.965   .     S
O941   Cu1100  1.965   .     S
O944   Cu1099  1.965   .     S
O945   H821    0.982   1_655 S
O948   Cu810   1.965   1_655 S
O949   H825    0.982   1_655 S
O954   Cu809   1.965   1_655 S
O956   Cu810   1.965   1_655 S
O959   Cu809   1.965   1_655 S
O960   Cu1099  1.965   .     S
C961   O1051   1.301   .     A
C961   O1033   1.301   .     A
C961   C990    1.452   .     S
C962   N1029   1.378   .     A
C962   O1042   1.375   .     S
C962   C195    1.413   1_556 S
C963   N1030   1.378   .     A
C963   O1043   1.375   .     S
C964   O1045   1.375   .     S
C964   C232    1.413   1_556 S
C964   N1125   1.378   .     S
C965   O1046   1.375   .     S
C965   N840    1.378   1_565 S
C966   N1031   1.378   .     A
C966   O1047   1.375   .     S
C966   C199    1.413   1_556 S
C967   N1032   1.378   .     A
C967   O1048   1.375   .     S
C968   O1049   1.375   .     S
C968   C197    1.413   1_556 S
C968   N839    1.378   1_565 S
C969   H1005   1.083   .     S
C969   C980    1.384   .     A
C969   C988    1.401   .     A
C970   C987    1.401   .     A
C970   H1016   1.083   .     S
C970   C981    1.384   .     A
C971   C978    1.384   .     A
C971   H1022   1.083   .     S
C971   C987    1.401   .     A
C972   C989    1.452   .     S
C972   O1050   1.301   .     A
C972   O1044   1.301   .     A
C973   C988    1.401   .     A
C973   C979    1.384   .     A
C973   H1023   1.083   .     S
C974   C990    1.401   .     A
C974   H1024   1.083   .     S
C974   C985    1.384   .     A
C975   H1025   1.083   .     S
C975   C989    1.401   .     A
C975   C986    1.384   .     A
C976   C982    1.384   .     A
C976   C989    1.401   .     A
C976   H1026   1.083   .     S
C977   C990    1.401   .     A
C977   H1027   1.083   .     S
C977   C984    1.384   .     A
C978   H1028   1.083   .     S
C978   C992    1.401   .     A
C979   C991    1.401   .     A
C979   H1006   1.083   .     S
C980   H1007   1.083   .     S
C980   C991    1.401   .     A
C981   H1008   1.083   .     S
C981   C992    1.401   .     A
C982   C995    1.401   .     A
C982   H1009   1.083   .     S
C983   C988    1.452   .     S
C983   O1055   1.301   .     A
C983   O1052   1.301   .     A
C984   H1010   1.083   .     S
C984   C993    1.401   .     A
C985   H1011   1.083   .     S
C985   C993    1.401   .     A
C986   H1012   1.083   .     S
C986   C995    1.401   .     A
C987   C994    1.452   .     S
C991   C999    1.452   .     S
C992   C998    1.452   .     S
C993   C997    1.452   .     S
C994   O1053   1.301   .     A
C994   O1054   1.301   .     A
C995   C996    1.452   .     S
C996   O1036   1.301   .     A
C996   O1056   1.301   .     A
C997   O1034   1.301   .     A
C997   O1035   1.301   .     A
C998   O1037   1.301   .     A
C998   O1040   1.301   .     A
C999   O1038   1.301   .     A
C999   O1039   1.301   .     A
C1000  O1041   1.375   .     S
C1000  N1126   1.378   .     S
Cu1001 Cu1002  2.710   .     S
Cu1001 O1053   1.965   .     S
Cu1001 N1029   2.037   .     S
Cu1001 O1033   1.965   .     S
Cu1001 O1146   1.965   1_455 S
Cu1001 O1151   1.965   1_455 S
Cu1002 N1030   2.037   .     S
Cu1002 O1051   1.965   .     S
Cu1002 O1054   1.965   .     S
Cu1002 O1140   1.965   1_455 S
Cu1002 O1148   1.965   1_455 S
Cu1003 O1038   1.965   .     S
Cu1003 N1031   2.037   .     S
Cu1003 O1035   1.965   .     S
Cu1003 Cu1004  2.710   .     S
Cu1004 O1034   1.965   .     S
Cu1004 O1039   1.965   .     S
Cu1004 N1032   2.037   .     S
H1013  O1137   0.982   1_455 S
H1014  O1138   0.982   .     S
H1015  O1139   0.982   .     S
H1017  O1141   0.982   1_455 S
H1018  O1046   0.982   .     S
H1019  O1047   0.982   .     S
H1020  O1048   0.982   .     S
H1021  O1049   0.982   .     S
N1029  C1060   1.378   1_455 S
N1030  C1096   1.378   1_455 S
O1036  Cu812   1.965   1_565 S
O1037  Cu812   1.965   1_565 S
O1040  Cu811   1.965   1_565 S
O1041  H1109   0.982   .     S
O1042  H1110   0.982   1_455 S
O1043  H1111   0.982   1_455 S
O1044  Cu1098  1.965   .     S
O1045  H1113   0.982   .     S
O1050  Cu1097  1.965   .     S
O1052  Cu1098  1.965   .     S
O1055  Cu1097  1.965   .     S
O1056  Cu811   1.965   1_565 S
C1057  O1147   1.301   .     A
C1057  O1129   1.301   .     A
C1057  C1086   1.452   .     S
C1058  N1125   1.378   .     A
C1058  O1138   1.375   .     S
C1058  C291    1.413   1_556 S
C1059  N1126   1.378   .     A
C1059  O1139   1.375   .     S
C1060  O1141   1.375   .     S
C1060  C328    1.413   1_556 S
C1060  N1029   1.378   1_655 S
C1061  O1142   1.375   .     S
C1061  N936    1.378   1_565 S
C1062  N1127   1.378   .     A
C1062  O1143   1.375   .     S
C1062  C295    1.413   1_556 S
C1063  N1128   1.378   .     A
C1063  O1144   1.375   .     S
C1064  O1145   1.375   .     S
C1064  C293    1.413   1_556 S
C1064  N935    1.378   1_565 S
C1065  H1101   1.083   .     S
C1065  C1076   1.384   .     A
C1065  C1084   1.401   .     A
C1066  C1083   1.401   .     A
C1066  H1112   1.083   .     S
C1066  C1077   1.384   .     A
C1067  C1074   1.384   .     A
C1067  H1118   1.083   .     S
C1067  C1083   1.401   .     A
C1068  C1085   1.452   .     S
C1068  O1146   1.301   .     A
C1068  O1140   1.301   .     A
C1069  C1084   1.401   .     A
C1069  C1075   1.384   .     A
C1069  H1119   1.083   .     S
C1070  C1086   1.401   .     A
C1070  H1120   1.083   .     S
C1070  C1081   1.384   .     A
C1071  H1121   1.083   .     S
C1071  C1085   1.401   .     A
C1071  C1082   1.384   .     A
C1072  C1078   1.384   .     A
C1072  C1085   1.401   .     A
C1072  H1122   1.083   .     S
C1073  C1086   1.401   .     A
C1073  H1123   1.083   .     S
C1073  C1080   1.384   .     A
C1074  H1124   1.083   .     S
C1074  C1088   1.401   .     A
C1075  C1087   1.401   .     A
C1075  H1102   1.083   .     S
C1076  H1103   1.083   .     S
C1076  C1087   1.401   .     A
C1077  H1104   1.083   .     S
C1077  C1088   1.401   .     A
C1078  C1091   1.401   .     A
C1078  H1105   1.083   .     S
C1079  C1084   1.452   .     S
C1079  O1151   1.301   .     A
C1079  O1148   1.301   .     A
C1080  H1106   1.083   .     S
C1080  C1089   1.401   .     A
C1081  H1107   1.083   .     S
C1081  C1089   1.401   .     A
C1082  H1108   1.083   .     S
C1082  C1091   1.401   .     A
C1083  C1090   1.452   .     S
C1087  C1095   1.452   .     S
C1088  C1094   1.452   .     S
C1089  C1093   1.452   .     S
C1090  O1149   1.301   .     A
C1090  O1150   1.301   .     A
C1091  C1092   1.452   .     S
C1092  O1132   1.301   .     A
C1092  O1152   1.301   .     A
C1093  O1130   1.301   .     A
C1093  O1131   1.301   .     A
C1094  O1133   1.301   .     A
C1094  O1136   1.301   .     A
C1095  O1134   1.301   .     A
C1095  O1135   1.301   .     A
C1096  O1137   1.375   .     S
C1096  N1030   1.378   1_655 S
Cu1097 Cu1098  2.710   .     S
Cu1097 O1149   1.965   .     S
Cu1097 N1125   2.037   .     S
Cu1097 O1129   1.965   .     S
Cu1098 N1126   2.037   .     S
Cu1098 O1147   1.965   .     S
Cu1098 O1150   1.965   .     S
Cu1099 O1134   1.965   .     S
Cu1099 N1127   2.037   .     S
Cu1099 O1131   1.965   .     S
Cu1099 Cu1100  2.710   .     S
Cu1100 O1130   1.965   .     S
Cu1100 O1135   1.965   .     S
Cu1100 N1128   2.037   .     S
H1110  O1042   0.982   1_655 S
H1111  O1043   0.982   1_655 S
H1114  O1142   0.982   .     S
H1115  O1143   0.982   .     S
H1116  O1144   0.982   .     S
H1117  O1145   0.982   .     S
O1132  Cu908   1.965   1_565 S
O1133  Cu908   1.965   1_565 S
O1136  Cu907   1.965   1_565 S
O1137  H1013   0.982   1_655 S
O1140  Cu1002  1.965   1_655 S
O1141  H1017   0.982   1_655 S
O1146  Cu1001  1.965   1_655 S
O1148  Cu1002  1.965   1_655 S
O1151  Cu1001  1.965   1_655 S
O1152  Cu907   1.965   1_565 S
