data_str_m2_o1_o10_pcu_sym.194
_audit_creation_date              2020-01-03
_audit_creation_method            'Materials Studio'
_symmetry_space_group_name_H-M    'P1'
_symmetry_Int_Tables_number       1
_symmetry_cell_setting            triclinic
loop_
_symmetry_equiv_pos_as_xyz
  x,y,z
_cell_length_a                    26.1964
_cell_length_b                    32.4252
_cell_length_c                    28.5865
_cell_angle_alpha                 89.9896
_cell_angle_beta                  97.9105
_cell_angle_gamma                 90.1625
loop_
_atom_site_label
_atom_site_type_symbol
_atom_site_fract_x
_atom_site_fract_y
_atom_site_fract_z
_atom_site_U_iso_or_equiv
_atom_site_adp_type
_atom_site_occupancy
C1     C     0.16665   0.08747   0.16666   0.00000  Uiso   1.00
C2     C     0.16669   0.24586   0.16668   0.00000  Uiso   1.00
C3     C     0.06792   0.16666   0.15458   0.00000  Uiso   1.00
C4     C     0.26541   0.16668   0.17875   0.00000  Uiso   1.00
C5     C     0.01265   0.16668   0.14793   0.00000  Uiso   1.00
C6     C     0.32069   0.16665   0.18541   0.00000  Uiso   1.00
C7     C     0.13262   0.02152   0.13266   0.00000  Uiso   1.00
C8     C     0.20072   0.31181   0.20067   0.00000  Uiso   1.00
C9     C     0.13263   0.31166   0.13266   0.00000  Uiso   1.00
C10    C     0.20070   0.02167   0.20067   0.00000  Uiso   1.00
C11    C     0.16668   0.29050   0.16666   0.00000  Uiso   1.00
C12    C     0.16665   0.04283   0.16667   0.00000  Uiso   1.00
C13    C     0.13316   0.14225   0.02056   0.00000  Uiso   1.00
C14    C     0.20017   0.19109   0.31277   0.00000  Uiso   1.00
C15    C     0.13317   0.14226   0.30431   0.00000  Uiso   1.00
C16    C     0.20016   0.19108   0.02902   0.00000  Uiso   1.00
Cu17   Cu    0.16667   0.16667   0.21355   0.00000  Uiso   1.00
Cu18   Cu    0.16667   0.16666   0.11978   0.00000  Uiso   1.00
H19    H     0.32602   0.16674   0.11197   0.00000  Uiso   1.00
H20    H     0.00732   0.16659   0.22137   0.00000  Uiso   1.00
H21    H     0.10635   0.12263   0.03584   0.00000  Uiso   1.00
H22    H     0.22698   0.21070   0.29750   0.00000  Uiso   1.00
H23    H     0.10637   0.12265   0.28227   0.00000  Uiso   1.00
H24    H     0.22697   0.21068   0.05107   0.00000  Uiso   1.00
N25    N     0.16668   0.16668   0.28403   0.00000  Uiso   1.00
N26    N     0.16665   0.16666   0.04931   0.00000  Uiso   1.00
O27    O     0.16666   0.10655   0.20625   0.00000  Uiso   1.00
O28    O     0.16667   0.22678   0.12709   0.00000  Uiso   1.00
O29    O     0.16666   0.10654   0.12706   0.00000  Uiso   1.00
O30    O     0.16667   0.22679   0.20628   0.00000  Uiso   1.00
O31    O     0.09161   0.16667   0.19712   0.00000  Uiso   1.00
O32    O     0.24172   0.16666   0.13621   0.00000  Uiso   1.00
O33    O     0.09161   0.16666   0.11793   0.00000  Uiso   1.00
O34    O     0.24172   0.16667   0.21540   0.00000  Uiso   1.00
N35    N     0.09730   0.04409   0.09925   0.00000  Uiso   1.00
H36    H     0.10377   0.03623   0.06511   0.00000  Uiso   1.00
H37    H     0.05963   0.03584   0.10354   0.00000  Uiso   1.00
N38    N     0.23604   0.28924   0.23408   0.00000  Uiso   1.00
H39    H     0.22956   0.29711   0.26822   0.00000  Uiso   1.00
H40    H     0.27370   0.29749   0.22980   0.00000  Uiso   1.00
N41    N     0.09732   0.28893   0.09925   0.00000  Uiso   1.00
H42    H     0.10376   0.29688   0.06511   0.00000  Uiso   1.00
H43    H     0.05966   0.29698   0.10357   0.00000  Uiso   1.00
N44    N     0.23601   0.04440   0.23408   0.00000  Uiso   1.00
H45    H     0.22957   0.03645   0.26822   0.00000  Uiso   1.00
H46    H     0.27368   0.03636   0.22977   0.00000  Uiso   1.00
C47    C     0.49998   0.08747   0.16666   0.00000  Uiso   1.00
C48    C     0.50002   0.24586   0.16668   0.00000  Uiso   1.00
C49    C     0.40126   0.16666   0.15458   0.00000  Uiso   1.00
C50    C     0.59874   0.16668   0.17875   0.00000  Uiso   1.00
C51    C     0.34598   0.16668   0.14793   0.00000  Uiso   1.00
C52    C     0.65402   0.16665   0.18541   0.00000  Uiso   1.00
C53    C     0.46595   0.02152   0.13266   0.00000  Uiso   1.00
C54    C     0.53405   0.31181   0.20067   0.00000  Uiso   1.00
C55    C     0.46597   0.31166   0.13266   0.00000  Uiso   1.00
C56    C     0.53403   0.02167   0.20067   0.00000  Uiso   1.00
C57    C     0.50002   0.29050   0.16666   0.00000  Uiso   1.00
C58    C     0.49998   0.04283   0.16667   0.00000  Uiso   1.00
C59    C     0.46649   0.14225   0.02056   0.00000  Uiso   1.00
C60    C     0.53351   0.19109   0.31277   0.00000  Uiso   1.00
C61    C     0.46650   0.14226   0.30431   0.00000  Uiso   1.00
C62    C     0.53349   0.19108   0.02902   0.00000  Uiso   1.00
Cu63   Cu    0.50000   0.16667   0.21355   0.00000  Uiso   1.00
Cu64   Cu    0.50000   0.16666   0.11978   0.00000  Uiso   1.00
H65    H     0.65935   0.16674   0.11197   0.00000  Uiso   1.00
H66    H     0.34065   0.16659   0.22137   0.00000  Uiso   1.00
H67    H     0.43968   0.12263   0.03584   0.00000  Uiso   1.00
H68    H     0.56032   0.21070   0.29750   0.00000  Uiso   1.00
H69    H     0.43970   0.12265   0.28227   0.00000  Uiso   1.00
H70    H     0.56030   0.21068   0.05107   0.00000  Uiso   1.00
N71    N     0.50001   0.16668   0.28403   0.00000  Uiso   1.00
N72    N     0.49999   0.16666   0.04931   0.00000  Uiso   1.00
O73    O     0.50000   0.10655   0.20625   0.00000  Uiso   1.00
O74    O     0.50000   0.22678   0.12709   0.00000  Uiso   1.00
O75    O     0.50000   0.10654   0.12706   0.00000  Uiso   1.00
O76    O     0.50000   0.22679   0.20628   0.00000  Uiso   1.00
O77    O     0.42495   0.16667   0.19712   0.00000  Uiso   1.00
O78    O     0.57505   0.16666   0.13621   0.00000  Uiso   1.00
O79    O     0.42494   0.16666   0.11793   0.00000  Uiso   1.00
O80    O     0.57506   0.16667   0.21540   0.00000  Uiso   1.00
N81    N     0.43063   0.04409   0.09925   0.00000  Uiso   1.00
H82    H     0.43710   0.03623   0.06511   0.00000  Uiso   1.00
H83    H     0.39296   0.03584   0.10354   0.00000  Uiso   1.00
N84    N     0.56937   0.28924   0.23408   0.00000  Uiso   1.00
H85    H     0.56289   0.29711   0.26822   0.00000  Uiso   1.00
H86    H     0.60704   0.29749   0.22980   0.00000  Uiso   1.00
N87    N     0.43066   0.28893   0.09925   0.00000  Uiso   1.00
H88    H     0.43710   0.29688   0.06511   0.00000  Uiso   1.00
H89    H     0.39299   0.29698   0.10357   0.00000  Uiso   1.00
N90    N     0.56934   0.04440   0.23408   0.00000  Uiso   1.00
H91    H     0.56290   0.03645   0.26822   0.00000  Uiso   1.00
H92    H     0.60701   0.03636   0.22977   0.00000  Uiso   1.00
C93    C     0.83331   0.08747   0.16666   0.00000  Uiso   1.00
C94    C     0.83335   0.24586   0.16668   0.00000  Uiso   1.00
C95    C     0.73459   0.16666   0.15458   0.00000  Uiso   1.00
C96    C     0.93208   0.16668   0.17875   0.00000  Uiso   1.00
C97    C     0.67931   0.16668   0.14793   0.00000  Uiso   1.00
C98    C     0.98735   0.16665   0.18541   0.00000  Uiso   1.00
C99    C     0.79928   0.02152   0.13266   0.00000  Uiso   1.00
C100   C     0.86738   0.31181   0.20067   0.00000  Uiso   1.00
C101   C     0.79930   0.31166   0.13266   0.00000  Uiso   1.00
C102   C     0.86737   0.02167   0.20067   0.00000  Uiso   1.00
C103   C     0.83335   0.29050   0.16666   0.00000  Uiso   1.00
C104   C     0.83332   0.04283   0.16667   0.00000  Uiso   1.00
C105   C     0.79982   0.14225   0.02056   0.00000  Uiso   1.00
C106   C     0.86684   0.19109   0.31277   0.00000  Uiso   1.00
C107   C     0.79984   0.14226   0.30431   0.00000  Uiso   1.00
C108   C     0.86683   0.19108   0.02902   0.00000  Uiso   1.00
Cu109  Cu    0.83333   0.16667   0.21355   0.00000  Uiso   1.00
Cu110  Cu    0.83333   0.16666   0.11978   0.00000  Uiso   1.00
H111   H     0.99268   0.16674   0.11197   0.00000  Uiso   1.00
H112   H     0.67398   0.16659   0.22137   0.00000  Uiso   1.00
H113   H     0.77302   0.12263   0.03584   0.00000  Uiso   1.00
H114   H     0.89365   0.21070   0.29750   0.00000  Uiso   1.00
H115   H     0.77303   0.12265   0.28227   0.00000  Uiso   1.00
H116   H     0.89363   0.21068   0.05107   0.00000  Uiso   1.00
N117   N     0.83335   0.16668   0.28403   0.00000  Uiso   1.00
N118   N     0.83332   0.16666   0.04931   0.00000  Uiso   1.00
O119   O     0.83333   0.10655   0.20625   0.00000  Uiso   1.00
O120   O     0.83334   0.22678   0.12709   0.00000  Uiso   1.00
O121   O     0.83333   0.10654   0.12706   0.00000  Uiso   1.00
O122   O     0.83334   0.22679   0.20628   0.00000  Uiso   1.00
O123   O     0.75828   0.16667   0.19712   0.00000  Uiso   1.00
O124   O     0.90839   0.16666   0.13621   0.00000  Uiso   1.00
O125   O     0.75828   0.16666   0.11793   0.00000  Uiso   1.00
O126   O     0.90839   0.16667   0.21540   0.00000  Uiso   1.00
N127   N     0.76396   0.04409   0.09925   0.00000  Uiso   1.00
H128   H     0.77044   0.03623   0.06511   0.00000  Uiso   1.00
H129   H     0.72630   0.03584   0.10354   0.00000  Uiso   1.00
N130   N     0.90270   0.28924   0.23408   0.00000  Uiso   1.00
H131   H     0.89623   0.29711   0.26822   0.00000  Uiso   1.00
H132   H     0.94037   0.29749   0.22980   0.00000  Uiso   1.00
N133   N     0.76399   0.28893   0.09925   0.00000  Uiso   1.00
H134   H     0.77043   0.29688   0.06511   0.00000  Uiso   1.00
H135   H     0.72632   0.29698   0.10357   0.00000  Uiso   1.00
N136   N     0.90268   0.04440   0.23408   0.00000  Uiso   1.00
H137   H     0.89624   0.03645   0.26822   0.00000  Uiso   1.00
H138   H     0.94034   0.03636   0.22977   0.00000  Uiso   1.00
C139   C     0.16665   0.42080   0.16666   0.00000  Uiso   1.00
C140   C     0.16669   0.57920   0.16668   0.00000  Uiso   1.00
C141   C     0.06792   0.49999   0.15458   0.00000  Uiso   1.00
C142   C     0.26541   0.50001   0.17875   0.00000  Uiso   1.00
C143   C     0.01265   0.50002   0.14793   0.00000  Uiso   1.00
C144   C     0.32069   0.49998   0.18541   0.00000  Uiso   1.00
C145   C     0.13262   0.35485   0.13266   0.00000  Uiso   1.00
C146   C     0.20072   0.64515   0.20067   0.00000  Uiso   1.00
C147   C     0.13263   0.64499   0.13266   0.00000  Uiso   1.00
C148   C     0.20070   0.35501   0.20067   0.00000  Uiso   1.00
C149   C     0.16668   0.62384   0.16666   0.00000  Uiso   1.00
C150   C     0.16665   0.37616   0.16667   0.00000  Uiso   1.00
C151   C     0.13316   0.47558   0.02056   0.00000  Uiso   1.00
C152   C     0.20017   0.52442   0.31277   0.00000  Uiso   1.00
C153   C     0.13317   0.47559   0.30431   0.00000  Uiso   1.00
C154   C     0.20016   0.52441   0.02902   0.00000  Uiso   1.00
Cu155  Cu    0.16667   0.50001   0.21355   0.00000  Uiso   1.00
Cu156  Cu    0.16667   0.49999   0.11978   0.00000  Uiso   1.00
H157   H     0.32602   0.50008   0.11197   0.00000  Uiso   1.00
H158   H     0.00732   0.49992   0.22137   0.00000  Uiso   1.00
H159   H     0.10635   0.45597   0.03584   0.00000  Uiso   1.00
H160   H     0.22698   0.54403   0.29750   0.00000  Uiso   1.00
H161   H     0.10637   0.45598   0.28227   0.00000  Uiso   1.00
H162   H     0.22697   0.54402   0.05107   0.00000  Uiso   1.00
N163   N     0.16668   0.50001   0.28403   0.00000  Uiso   1.00
N164   N     0.16665   0.49999   0.04931   0.00000  Uiso   1.00
O165   O     0.16666   0.43989   0.20625   0.00000  Uiso   1.00
O166   O     0.16667   0.56011   0.12709   0.00000  Uiso   1.00
O167   O     0.16666   0.43988   0.12706   0.00000  Uiso   1.00
O168   O     0.16667   0.56012   0.20628   0.00000  Uiso   1.00
O169   O     0.09161   0.50000   0.19712   0.00000  Uiso   1.00
O170   O     0.24172   0.50000   0.13621   0.00000  Uiso   1.00
O171   O     0.09161   0.49999   0.11793   0.00000  Uiso   1.00
O172   O     0.24172   0.50001   0.21540   0.00000  Uiso   1.00
N173   N     0.09730   0.37742   0.09925   0.00000  Uiso   1.00
H174   H     0.10377   0.36956   0.06511   0.00000  Uiso   1.00
H175   H     0.05963   0.36917   0.10354   0.00000  Uiso   1.00
N176   N     0.23604   0.62258   0.23408   0.00000  Uiso   1.00
H177   H     0.22956   0.63044   0.26822   0.00000  Uiso   1.00
H178   H     0.27370   0.63083   0.22980   0.00000  Uiso   1.00
N179   N     0.09732   0.62226   0.09925   0.00000  Uiso   1.00
H180   H     0.10376   0.63021   0.06511   0.00000  Uiso   1.00
H181   H     0.05966   0.63031   0.10357   0.00000  Uiso   1.00
N182   N     0.23601   0.37774   0.23408   0.00000  Uiso   1.00
H183   H     0.22957   0.36979   0.26822   0.00000  Uiso   1.00
H184   H     0.27368   0.36969   0.22977   0.00000  Uiso   1.00
C185   C     0.49998   0.42080   0.16666   0.00000  Uiso   1.00
C186   C     0.50002   0.57920   0.16668   0.00000  Uiso   1.00
C187   C     0.40126   0.49999   0.15458   0.00000  Uiso   1.00
C188   C     0.59874   0.50001   0.17875   0.00000  Uiso   1.00
C189   C     0.34598   0.50002   0.14793   0.00000  Uiso   1.00
C190   C     0.65402   0.49998   0.18541   0.00000  Uiso   1.00
C191   C     0.46595   0.35485   0.13266   0.00000  Uiso   1.00
C192   C     0.53405   0.64515   0.20067   0.00000  Uiso   1.00
C193   C     0.46597   0.64499   0.13266   0.00000  Uiso   1.00
C194   C     0.53403   0.35501   0.20067   0.00000  Uiso   1.00
C195   C     0.50002   0.62384   0.16666   0.00000  Uiso   1.00
C196   C     0.49998   0.37616   0.16667   0.00000  Uiso   1.00
C197   C     0.46649   0.47558   0.02056   0.00000  Uiso   1.00
C198   C     0.53351   0.52442   0.31277   0.00000  Uiso   1.00
C199   C     0.46650   0.47559   0.30431   0.00000  Uiso   1.00
C200   C     0.53349   0.52441   0.02902   0.00000  Uiso   1.00
Cu201  Cu    0.50000   0.50001   0.21355   0.00000  Uiso   1.00
Cu202  Cu    0.50000   0.49999   0.11978   0.00000  Uiso   1.00
H203   H     0.65935   0.50008   0.11197   0.00000  Uiso   1.00
H204   H     0.34065   0.49992   0.22137   0.00000  Uiso   1.00
H205   H     0.43968   0.45597   0.03584   0.00000  Uiso   1.00
H206   H     0.56032   0.54403   0.29750   0.00000  Uiso   1.00
H207   H     0.43970   0.45598   0.28227   0.00000  Uiso   1.00
H208   H     0.56030   0.54402   0.05107   0.00000  Uiso   1.00
N209   N     0.50001   0.50001   0.28403   0.00000  Uiso   1.00
N210   N     0.49999   0.49999   0.04931   0.00000  Uiso   1.00
O211   O     0.50000   0.43989   0.20625   0.00000  Uiso   1.00
O212   O     0.50000   0.56011   0.12709   0.00000  Uiso   1.00
O213   O     0.50000   0.43988   0.12706   0.00000  Uiso   1.00
O214   O     0.50000   0.56012   0.20628   0.00000  Uiso   1.00
O215   O     0.42495   0.50000   0.19712   0.00000  Uiso   1.00
O216   O     0.57505   0.50000   0.13621   0.00000  Uiso   1.00
O217   O     0.42494   0.49999   0.11793   0.00000  Uiso   1.00
O218   O     0.57506   0.50001   0.21540   0.00000  Uiso   1.00
N219   N     0.43063   0.37742   0.09925   0.00000  Uiso   1.00
H220   H     0.43710   0.36956   0.06511   0.00000  Uiso   1.00
H221   H     0.39296   0.36917   0.10354   0.00000  Uiso   1.00
N222   N     0.56937   0.62258   0.23408   0.00000  Uiso   1.00
H223   H     0.56289   0.63044   0.26822   0.00000  Uiso   1.00
H224   H     0.60704   0.63083   0.22980   0.00000  Uiso   1.00
N225   N     0.43066   0.62226   0.09925   0.00000  Uiso   1.00
H226   H     0.43710   0.63021   0.06511   0.00000  Uiso   1.00
H227   H     0.39299   0.63031   0.10357   0.00000  Uiso   1.00
N228   N     0.56934   0.37774   0.23408   0.00000  Uiso   1.00
H229   H     0.56290   0.36979   0.26822   0.00000  Uiso   1.00
H230   H     0.60701   0.36969   0.22977   0.00000  Uiso   1.00
C231   C     0.83331   0.42080   0.16666   0.00000  Uiso   1.00
C232   C     0.83335   0.57920   0.16668   0.00000  Uiso   1.00
C233   C     0.73459   0.49999   0.15458   0.00000  Uiso   1.00
C234   C     0.93208   0.50001   0.17875   0.00000  Uiso   1.00
C235   C     0.67931   0.50002   0.14793   0.00000  Uiso   1.00
C236   C     0.98735   0.49998   0.18541   0.00000  Uiso   1.00
C237   C     0.79928   0.35485   0.13266   0.00000  Uiso   1.00
C238   C     0.86738   0.64515   0.20067   0.00000  Uiso   1.00
C239   C     0.79930   0.64499   0.13266   0.00000  Uiso   1.00
C240   C     0.86737   0.35501   0.20067   0.00000  Uiso   1.00
C241   C     0.83335   0.62384   0.16666   0.00000  Uiso   1.00
C242   C     0.83332   0.37616   0.16667   0.00000  Uiso   1.00
C243   C     0.79982   0.47558   0.02056   0.00000  Uiso   1.00
C244   C     0.86684   0.52442   0.31277   0.00000  Uiso   1.00
C245   C     0.79984   0.47559   0.30431   0.00000  Uiso   1.00
C246   C     0.86683   0.52441   0.02902   0.00000  Uiso   1.00
Cu247  Cu    0.83333   0.50001   0.21355   0.00000  Uiso   1.00
Cu248  Cu    0.83333   0.49999   0.11978   0.00000  Uiso   1.00
H249   H     0.99268   0.50008   0.11197   0.00000  Uiso   1.00
H250   H     0.67398   0.49992   0.22137   0.00000  Uiso   1.00
H251   H     0.77302   0.45597   0.03584   0.00000  Uiso   1.00
H252   H     0.89365   0.54403   0.29750   0.00000  Uiso   1.00
H253   H     0.77303   0.45598   0.28227   0.00000  Uiso   1.00
H254   H     0.89363   0.54402   0.05107   0.00000  Uiso   1.00
N255   N     0.83335   0.50001   0.28403   0.00000  Uiso   1.00
N256   N     0.83332   0.49999   0.04931   0.00000  Uiso   1.00
O257   O     0.83333   0.43989   0.20625   0.00000  Uiso   1.00
O258   O     0.83334   0.56011   0.12709   0.00000  Uiso   1.00
O259   O     0.83333   0.43988   0.12706   0.00000  Uiso   1.00
O260   O     0.83334   0.56012   0.20628   0.00000  Uiso   1.00
O261   O     0.75828   0.50000   0.19712   0.00000  Uiso   1.00
O262   O     0.90839   0.50000   0.13621   0.00000  Uiso   1.00
O263   O     0.75828   0.49999   0.11793   0.00000  Uiso   1.00
O264   O     0.90839   0.50001   0.21540   0.00000  Uiso   1.00
N265   N     0.76396   0.37742   0.09925   0.00000  Uiso   1.00
H266   H     0.77044   0.36956   0.06511   0.00000  Uiso   1.00
H267   H     0.72630   0.36917   0.10354   0.00000  Uiso   1.00
N268   N     0.90270   0.62258   0.23408   0.00000  Uiso   1.00
H269   H     0.89623   0.63044   0.26822   0.00000  Uiso   1.00
H270   H     0.94037   0.63083   0.22980   0.00000  Uiso   1.00
N271   N     0.76399   0.62226   0.09925   0.00000  Uiso   1.00
H272   H     0.77043   0.63021   0.06511   0.00000  Uiso   1.00
H273   H     0.72632   0.63031   0.10357   0.00000  Uiso   1.00
N274   N     0.90268   0.37774   0.23408   0.00000  Uiso   1.00
H275   H     0.89624   0.36979   0.26822   0.00000  Uiso   1.00
H276   H     0.94034   0.36969   0.22977   0.00000  Uiso   1.00
C277   C     0.16665   0.75414   0.16666   0.00000  Uiso   1.00
C278   C     0.16669   0.91253   0.16668   0.00000  Uiso   1.00
C279   C     0.06792   0.83332   0.15458   0.00000  Uiso   1.00
C280   C     0.26541   0.83334   0.17875   0.00000  Uiso   1.00
C281   C     0.01265   0.83335   0.14793   0.00000  Uiso   1.00
C282   C     0.32069   0.83332   0.18541   0.00000  Uiso   1.00
C283   C     0.13262   0.68819   0.13266   0.00000  Uiso   1.00
C284   C     0.20072   0.97848   0.20067   0.00000  Uiso   1.00
C285   C     0.13263   0.97833   0.13266   0.00000  Uiso   1.00
C286   C     0.20070   0.68834   0.20067   0.00000  Uiso   1.00
C287   C     0.16668   0.95717   0.16666   0.00000  Uiso   1.00
C288   C     0.16665   0.70950   0.16667   0.00000  Uiso   1.00
C289   C     0.13316   0.80891   0.02056   0.00000  Uiso   1.00
C290   C     0.20017   0.85775   0.31277   0.00000  Uiso   1.00
C291   C     0.13317   0.80892   0.30431   0.00000  Uiso   1.00
C292   C     0.20016   0.85774   0.02902   0.00000  Uiso   1.00
Cu293  Cu    0.16667   0.83334   0.21355   0.00000  Uiso   1.00
Cu294  Cu    0.16667   0.83333   0.11978   0.00000  Uiso   1.00
H295   H     0.32602   0.83341   0.11197   0.00000  Uiso   1.00
H296   H     0.00732   0.83326   0.22137   0.00000  Uiso   1.00
H297   H     0.10635   0.78930   0.03584   0.00000  Uiso   1.00
H298   H     0.22698   0.87737   0.29750   0.00000  Uiso   1.00
H299   H     0.10637   0.78932   0.28227   0.00000  Uiso   1.00
H300   H     0.22697   0.87735   0.05107   0.00000  Uiso   1.00
N301   N     0.16668   0.83334   0.28403   0.00000  Uiso   1.00
N302   N     0.16665   0.83332   0.04931   0.00000  Uiso   1.00
O303   O     0.16666   0.77322   0.20625   0.00000  Uiso   1.00
O304   O     0.16667   0.89345   0.12709   0.00000  Uiso   1.00
O305   O     0.16666   0.77321   0.12706   0.00000  Uiso   1.00
O306   O     0.16667   0.89346   0.20628   0.00000  Uiso   1.00
O307   O     0.09161   0.83334   0.19712   0.00000  Uiso   1.00
O308   O     0.24172   0.83333   0.13621   0.00000  Uiso   1.00
O309   O     0.09161   0.83333   0.11793   0.00000  Uiso   1.00
O310   O     0.24172   0.83334   0.21540   0.00000  Uiso   1.00
N311   N     0.09730   0.71076   0.09925   0.00000  Uiso   1.00
H312   H     0.10377   0.70289   0.06511   0.00000  Uiso   1.00
H313   H     0.05963   0.70251   0.10354   0.00000  Uiso   1.00
N314   N     0.23604   0.95591   0.23408   0.00000  Uiso   1.00
H315   H     0.22956   0.96377   0.26822   0.00000  Uiso   1.00
H316   H     0.27370   0.96416   0.22980   0.00000  Uiso   1.00
N317   N     0.09732   0.95560   0.09925   0.00000  Uiso   1.00
H318   H     0.10376   0.96355   0.06511   0.00000  Uiso   1.00
H319   H     0.05966   0.96364   0.10357   0.00000  Uiso   1.00
N320   N     0.23601   0.71107   0.23408   0.00000  Uiso   1.00
H321   H     0.22957   0.70312   0.26822   0.00000  Uiso   1.00
H322   H     0.27368   0.70302   0.22977   0.00000  Uiso   1.00
C323   C     0.49998   0.75414   0.16666   0.00000  Uiso   1.00
C324   C     0.50002   0.91253   0.16668   0.00000  Uiso   1.00
C325   C     0.40126   0.83332   0.15458   0.00000  Uiso   1.00
C326   C     0.59874   0.83334   0.17875   0.00000  Uiso   1.00
C327   C     0.34598   0.83335   0.14793   0.00000  Uiso   1.00
C328   C     0.65402   0.83332   0.18541   0.00000  Uiso   1.00
C329   C     0.46595   0.68819   0.13266   0.00000  Uiso   1.00
C330   C     0.53405   0.97848   0.20067   0.00000  Uiso   1.00
C331   C     0.46597   0.97833   0.13266   0.00000  Uiso   1.00
C332   C     0.53403   0.68834   0.20067   0.00000  Uiso   1.00
C333   C     0.50002   0.95717   0.16666   0.00000  Uiso   1.00
C334   C     0.49998   0.70950   0.16667   0.00000  Uiso   1.00
C335   C     0.46649   0.80891   0.02056   0.00000  Uiso   1.00
C336   C     0.53351   0.85775   0.31277   0.00000  Uiso   1.00
C337   C     0.46650   0.80892   0.30431   0.00000  Uiso   1.00
C338   C     0.53349   0.85774   0.02902   0.00000  Uiso   1.00
Cu339  Cu    0.50000   0.83334   0.21355   0.00000  Uiso   1.00
Cu340  Cu    0.50000   0.83333   0.11978   0.00000  Uiso   1.00
H341   H     0.65935   0.83341   0.11197   0.00000  Uiso   1.00
H342   H     0.34065   0.83326   0.22137   0.00000  Uiso   1.00
H343   H     0.43968   0.78930   0.03584   0.00000  Uiso   1.00
H344   H     0.56032   0.87737   0.29750   0.00000  Uiso   1.00
H345   H     0.43970   0.78932   0.28227   0.00000  Uiso   1.00
H346   H     0.56030   0.87735   0.05107   0.00000  Uiso   1.00
N347   N     0.50001   0.83334   0.28403   0.00000  Uiso   1.00
N348   N     0.49999   0.83332   0.04931   0.00000  Uiso   1.00
O349   O     0.50000   0.77322   0.20625   0.00000  Uiso   1.00
O350   O     0.50000   0.89345   0.12709   0.00000  Uiso   1.00
O351   O     0.50000   0.77321   0.12706   0.00000  Uiso   1.00
O352   O     0.50000   0.89346   0.20628   0.00000  Uiso   1.00
O353   O     0.42495   0.83334   0.19712   0.00000  Uiso   1.00
O354   O     0.57505   0.83333   0.13621   0.00000  Uiso   1.00
O355   O     0.42494   0.83333   0.11793   0.00000  Uiso   1.00
O356   O     0.57506   0.83334   0.21540   0.00000  Uiso   1.00
N357   N     0.43063   0.71076   0.09925   0.00000  Uiso   1.00
H358   H     0.43710   0.70289   0.06511   0.00000  Uiso   1.00
H359   H     0.39296   0.70251   0.10354   0.00000  Uiso   1.00
N360   N     0.56937   0.95591   0.23408   0.00000  Uiso   1.00
H361   H     0.56289   0.96377   0.26822   0.00000  Uiso   1.00
H362   H     0.60704   0.96416   0.22980   0.00000  Uiso   1.00
N363   N     0.43066   0.95560   0.09925   0.00000  Uiso   1.00
H364   H     0.43710   0.96355   0.06511   0.00000  Uiso   1.00
H365   H     0.39299   0.96364   0.10357   0.00000  Uiso   1.00
N366   N     0.56934   0.71107   0.23408   0.00000  Uiso   1.00
H367   H     0.56290   0.70312   0.26822   0.00000  Uiso   1.00
H368   H     0.60701   0.70302   0.22977   0.00000  Uiso   1.00
C369   C     0.83331   0.75414   0.16666   0.00000  Uiso   1.00
C370   C     0.83335   0.91253   0.16668   0.00000  Uiso   1.00
C371   C     0.73459   0.83332   0.15458   0.00000  Uiso   1.00
C372   C     0.93208   0.83334   0.17875   0.00000  Uiso   1.00
C373   C     0.67931   0.83335   0.14793   0.00000  Uiso   1.00
C374   C     0.98735   0.83332   0.18541   0.00000  Uiso   1.00
C375   C     0.79928   0.68819   0.13266   0.00000  Uiso   1.00
C376   C     0.86738   0.97848   0.20067   0.00000  Uiso   1.00
C377   C     0.79930   0.97833   0.13266   0.00000  Uiso   1.00
C378   C     0.86737   0.68834   0.20067   0.00000  Uiso   1.00
C379   C     0.83335   0.95717   0.16666   0.00000  Uiso   1.00
C380   C     0.83332   0.70950   0.16667   0.00000  Uiso   1.00
C381   C     0.79982   0.80891   0.02056   0.00000  Uiso   1.00
C382   C     0.86684   0.85775   0.31277   0.00000  Uiso   1.00
C383   C     0.79984   0.80892   0.30431   0.00000  Uiso   1.00
C384   C     0.86683   0.85774   0.02902   0.00000  Uiso   1.00
Cu385  Cu    0.83333   0.83334   0.21355   0.00000  Uiso   1.00
Cu386  Cu    0.83333   0.83333   0.11978   0.00000  Uiso   1.00
H387   H     0.99268   0.83341   0.11197   0.00000  Uiso   1.00
H388   H     0.67398   0.83326   0.22137   0.00000  Uiso   1.00
H389   H     0.77302   0.78930   0.03584   0.00000  Uiso   1.00
H390   H     0.89365   0.87737   0.29750   0.00000  Uiso   1.00
H391   H     0.77303   0.78932   0.28227   0.00000  Uiso   1.00
H392   H     0.89363   0.87735   0.05107   0.00000  Uiso   1.00
N393   N     0.83335   0.83334   0.28403   0.00000  Uiso   1.00
N394   N     0.83332   0.83332   0.04931   0.00000  Uiso   1.00
O395   O     0.83333   0.77322   0.20625   0.00000  Uiso   1.00
O396   O     0.83334   0.89345   0.12709   0.00000  Uiso   1.00
O397   O     0.83333   0.77321   0.12706   0.00000  Uiso   1.00
O398   O     0.83334   0.89346   0.20628   0.00000  Uiso   1.00
O399   O     0.75828   0.83334   0.19712   0.00000  Uiso   1.00
O400   O     0.90839   0.83333   0.13621   0.00000  Uiso   1.00
O401   O     0.75828   0.83333   0.11793   0.00000  Uiso   1.00
O402   O     0.90839   0.83334   0.21540   0.00000  Uiso   1.00
N403   N     0.76396   0.71076   0.09925   0.00000  Uiso   1.00
H404   H     0.77044   0.70289   0.06511   0.00000  Uiso   1.00
H405   H     0.72630   0.70251   0.10354   0.00000  Uiso   1.00
N406   N     0.90270   0.95591   0.23408   0.00000  Uiso   1.00
H407   H     0.89623   0.96377   0.26822   0.00000  Uiso   1.00
H408   H     0.94037   0.96416   0.22980   0.00000  Uiso   1.00
N409   N     0.76399   0.95560   0.09925   0.00000  Uiso   1.00
H410   H     0.77043   0.96355   0.06511   0.00000  Uiso   1.00
H411   H     0.72632   0.96364   0.10357   0.00000  Uiso   1.00
N412   N     0.90268   0.71107   0.23408   0.00000  Uiso   1.00
H413   H     0.89624   0.70312   0.26822   0.00000  Uiso   1.00
H414   H     0.94034   0.70302   0.22977   0.00000  Uiso   1.00
C415   C     0.16665   0.08747   0.49999   0.00000  Uiso   1.00
C416   C     0.16669   0.24586   0.50001   0.00000  Uiso   1.00
C417   C     0.06792   0.16666   0.48791   0.00000  Uiso   1.00
C418   C     0.26541   0.16668   0.51209   0.00000  Uiso   1.00
C419   C     0.01265   0.16668   0.48126   0.00000  Uiso   1.00
C420   C     0.32069   0.16665   0.51874   0.00000  Uiso   1.00
C421   C     0.13262   0.02152   0.46600   0.00000  Uiso   1.00
C422   C     0.20072   0.31181   0.53400   0.00000  Uiso   1.00
C423   C     0.13263   0.31166   0.46599   0.00000  Uiso   1.00
C424   C     0.20070   0.02167   0.53401   0.00000  Uiso   1.00
C425   C     0.16668   0.29050   0.50000   0.00000  Uiso   1.00
C426   C     0.16665   0.04283   0.50000   0.00000  Uiso   1.00
C427   C     0.13316   0.14225   0.35390   0.00000  Uiso   1.00
C428   C     0.20017   0.19109   0.64610   0.00000  Uiso   1.00
C429   C     0.13317   0.14226   0.63765   0.00000  Uiso   1.00
C430   C     0.20016   0.19108   0.36235   0.00000  Uiso   1.00
Cu431  Cu    0.16667   0.16667   0.54689   0.00000  Uiso   1.00
Cu432  Cu    0.16667   0.16666   0.45311   0.00000  Uiso   1.00
H433   H     0.32602   0.16674   0.44530   0.00000  Uiso   1.00
H434   H     0.00732   0.16659   0.55470   0.00000  Uiso   1.00
H435   H     0.10635   0.12263   0.36917   0.00000  Uiso   1.00
H436   H     0.22698   0.21070   0.63083   0.00000  Uiso   1.00
H437   H     0.10637   0.12265   0.61560   0.00000  Uiso   1.00
H438   H     0.22697   0.21068   0.38440   0.00000  Uiso   1.00
N439   N     0.16668   0.16668   0.61736   0.00000  Uiso   1.00
N440   N     0.16665   0.16666   0.38264   0.00000  Uiso   1.00
O441   O     0.16666   0.10655   0.53958   0.00000  Uiso   1.00
O442   O     0.16667   0.22678   0.46042   0.00000  Uiso   1.00
O443   O     0.16666   0.10654   0.46039   0.00000  Uiso   1.00
O444   O     0.16667   0.22679   0.53961   0.00000  Uiso   1.00
O445   O     0.09161   0.16667   0.53046   0.00000  Uiso   1.00
O446   O     0.24172   0.16666   0.46954   0.00000  Uiso   1.00
O447   O     0.09161   0.16666   0.45127   0.00000  Uiso   1.00
O448   O     0.24172   0.16667   0.54873   0.00000  Uiso   1.00
N449   N     0.09730   0.04409   0.43259   0.00000  Uiso   1.00
H450   H     0.10377   0.03623   0.39845   0.00000  Uiso   1.00
H451   H     0.05963   0.03584   0.43687   0.00000  Uiso   1.00
N452   N     0.23604   0.28924   0.56741   0.00000  Uiso   1.00
H453   H     0.22956   0.29711   0.60155   0.00000  Uiso   1.00
H454   H     0.27370   0.29749   0.56313   0.00000  Uiso   1.00
N455   N     0.09732   0.28893   0.43258   0.00000  Uiso   1.00
H456   H     0.10376   0.29688   0.39845   0.00000  Uiso   1.00
H457   H     0.05966   0.29698   0.43690   0.00000  Uiso   1.00
N458   N     0.23601   0.04440   0.56742   0.00000  Uiso   1.00
H459   H     0.22957   0.03645   0.60155   0.00000  Uiso   1.00
H460   H     0.27368   0.03636   0.56310   0.00000  Uiso   1.00
C461   C     0.49998   0.08747   0.49999   0.00000  Uiso   1.00
C462   C     0.50002   0.24586   0.50001   0.00000  Uiso   1.00
C463   C     0.40126   0.16666   0.48791   0.00000  Uiso   1.00
C464   C     0.59874   0.16668   0.51209   0.00000  Uiso   1.00
C465   C     0.34598   0.16668   0.48126   0.00000  Uiso   1.00
C466   C     0.65402   0.16665   0.51874   0.00000  Uiso   1.00
C467   C     0.46595   0.02152   0.46600   0.00000  Uiso   1.00
C468   C     0.53405   0.31181   0.53400   0.00000  Uiso   1.00
C469   C     0.46597   0.31166   0.46599   0.00000  Uiso   1.00
C470   C     0.53403   0.02167   0.53401   0.00000  Uiso   1.00
C471   C     0.50002   0.29050   0.50000   0.00000  Uiso   1.00
C472   C     0.49998   0.04283   0.50000   0.00000  Uiso   1.00
C473   C     0.46649   0.14225   0.35390   0.00000  Uiso   1.00
C474   C     0.53351   0.19109   0.64610   0.00000  Uiso   1.00
C475   C     0.46650   0.14226   0.63765   0.00000  Uiso   1.00
C476   C     0.53349   0.19108   0.36235   0.00000  Uiso   1.00
Cu477  Cu    0.50000   0.16667   0.54689   0.00000  Uiso   1.00
Cu478  Cu    0.50000   0.16666   0.45311   0.00000  Uiso   1.00
H479   H     0.65935   0.16674   0.44530   0.00000  Uiso   1.00
H480   H     0.34065   0.16659   0.55470   0.00000  Uiso   1.00
H481   H     0.43968   0.12263   0.36917   0.00000  Uiso   1.00
H482   H     0.56032   0.21070   0.63083   0.00000  Uiso   1.00
H483   H     0.43970   0.12265   0.61560   0.00000  Uiso   1.00
H484   H     0.56030   0.21068   0.38440   0.00000  Uiso   1.00
N485   N     0.50001   0.16668   0.61736   0.00000  Uiso   1.00
N486   N     0.49999   0.16666   0.38264   0.00000  Uiso   1.00
O487   O     0.50000   0.10655   0.53958   0.00000  Uiso   1.00
O488   O     0.50000   0.22678   0.46042   0.00000  Uiso   1.00
O489   O     0.50000   0.10654   0.46039   0.00000  Uiso   1.00
O490   O     0.50000   0.22679   0.53961   0.00000  Uiso   1.00
O491   O     0.42495   0.16667   0.53046   0.00000  Uiso   1.00
O492   O     0.57505   0.16666   0.46954   0.00000  Uiso   1.00
O493   O     0.42494   0.16666   0.45127   0.00000  Uiso   1.00
O494   O     0.57506   0.16667   0.54873   0.00000  Uiso   1.00
N495   N     0.43063   0.04409   0.43259   0.00000  Uiso   1.00
H496   H     0.43710   0.03623   0.39845   0.00000  Uiso   1.00
H497   H     0.39296   0.03584   0.43687   0.00000  Uiso   1.00
N498   N     0.56937   0.28924   0.56741   0.00000  Uiso   1.00
H499   H     0.56289   0.29711   0.60155   0.00000  Uiso   1.00
H500   H     0.60704   0.29749   0.56313   0.00000  Uiso   1.00
N501   N     0.43066   0.28893   0.43258   0.00000  Uiso   1.00
H502   H     0.43710   0.29688   0.39845   0.00000  Uiso   1.00
H503   H     0.39299   0.29698   0.43690   0.00000  Uiso   1.00
N504   N     0.56934   0.04440   0.56742   0.00000  Uiso   1.00
H505   H     0.56290   0.03645   0.60155   0.00000  Uiso   1.00
H506   H     0.60701   0.03636   0.56310   0.00000  Uiso   1.00
C507   C     0.83331   0.08747   0.49999   0.00000  Uiso   1.00
C508   C     0.83335   0.24586   0.50001   0.00000  Uiso   1.00
C509   C     0.73459   0.16666   0.48791   0.00000  Uiso   1.00
C510   C     0.93208   0.16668   0.51209   0.00000  Uiso   1.00
C511   C     0.67931   0.16668   0.48126   0.00000  Uiso   1.00
C512   C     0.98735   0.16665   0.51874   0.00000  Uiso   1.00
C513   C     0.79928   0.02152   0.46600   0.00000  Uiso   1.00
C514   C     0.86738   0.31181   0.53400   0.00000  Uiso   1.00
C515   C     0.79930   0.31166   0.46599   0.00000  Uiso   1.00
C516   C     0.86737   0.02167   0.53401   0.00000  Uiso   1.00
C517   C     0.83335   0.29050   0.50000   0.00000  Uiso   1.00
C518   C     0.83332   0.04283   0.50000   0.00000  Uiso   1.00
C519   C     0.79982   0.14225   0.35390   0.00000  Uiso   1.00
C520   C     0.86684   0.19109   0.64610   0.00000  Uiso   1.00
C521   C     0.79984   0.14226   0.63765   0.00000  Uiso   1.00
C522   C     0.86683   0.19108   0.36235   0.00000  Uiso   1.00
Cu523  Cu    0.83333   0.16667   0.54689   0.00000  Uiso   1.00
Cu524  Cu    0.83333   0.16666   0.45311   0.00000  Uiso   1.00
H525   H     0.99268   0.16674   0.44530   0.00000  Uiso   1.00
H526   H     0.67398   0.16659   0.55470   0.00000  Uiso   1.00
H527   H     0.77302   0.12263   0.36917   0.00000  Uiso   1.00
H528   H     0.89365   0.21070   0.63083   0.00000  Uiso   1.00
H529   H     0.77303   0.12265   0.61560   0.00000  Uiso   1.00
H530   H     0.89363   0.21068   0.38440   0.00000  Uiso   1.00
N531   N     0.83335   0.16668   0.61736   0.00000  Uiso   1.00
N532   N     0.83332   0.16666   0.38264   0.00000  Uiso   1.00
O533   O     0.83333   0.10655   0.53958   0.00000  Uiso   1.00
O534   O     0.83334   0.22678   0.46042   0.00000  Uiso   1.00
O535   O     0.83333   0.10654   0.46039   0.00000  Uiso   1.00
O536   O     0.83334   0.22679   0.53961   0.00000  Uiso   1.00
O537   O     0.75828   0.16667   0.53046   0.00000  Uiso   1.00
O538   O     0.90839   0.16666   0.46954   0.00000  Uiso   1.00
O539   O     0.75828   0.16666   0.45127   0.00000  Uiso   1.00
O540   O     0.90839   0.16667   0.54873   0.00000  Uiso   1.00
N541   N     0.76396   0.04409   0.43259   0.00000  Uiso   1.00
H542   H     0.77044   0.03623   0.39845   0.00000  Uiso   1.00
H543   H     0.72630   0.03584   0.43687   0.00000  Uiso   1.00
N544   N     0.90270   0.28924   0.56741   0.00000  Uiso   1.00
H545   H     0.89623   0.29711   0.60155   0.00000  Uiso   1.00
H546   H     0.94037   0.29749   0.56313   0.00000  Uiso   1.00
N547   N     0.76399   0.28893   0.43258   0.00000  Uiso   1.00
H548   H     0.77043   0.29688   0.39845   0.00000  Uiso   1.00
H549   H     0.72632   0.29698   0.43690   0.00000  Uiso   1.00
N550   N     0.90268   0.04440   0.56742   0.00000  Uiso   1.00
H551   H     0.89624   0.03645   0.60155   0.00000  Uiso   1.00
H552   H     0.94034   0.03636   0.56310   0.00000  Uiso   1.00
C553   C     0.16665   0.42080   0.49999   0.00000  Uiso   1.00
C554   C     0.16669   0.57920   0.50001   0.00000  Uiso   1.00
C555   C     0.06792   0.49999   0.48791   0.00000  Uiso   1.00
C556   C     0.26541   0.50001   0.51209   0.00000  Uiso   1.00
C557   C     0.01265   0.50002   0.48126   0.00000  Uiso   1.00
C558   C     0.32069   0.49998   0.51874   0.00000  Uiso   1.00
C559   C     0.13262   0.35485   0.46600   0.00000  Uiso   1.00
C560   C     0.20072   0.64515   0.53400   0.00000  Uiso   1.00
C561   C     0.13263   0.64499   0.46599   0.00000  Uiso   1.00
C562   C     0.20070   0.35501   0.53401   0.00000  Uiso   1.00
C563   C     0.16668   0.62384   0.50000   0.00000  Uiso   1.00
C564   C     0.16665   0.37616   0.50000   0.00000  Uiso   1.00
C565   C     0.13316   0.47558   0.35390   0.00000  Uiso   1.00
C566   C     0.20017   0.52442   0.64610   0.00000  Uiso   1.00
C567   C     0.13317   0.47559   0.63765   0.00000  Uiso   1.00
C568   C     0.20016   0.52441   0.36235   0.00000  Uiso   1.00
Cu569  Cu    0.16667   0.50001   0.54689   0.00000  Uiso   1.00
Cu570  Cu    0.16667   0.49999   0.45311   0.00000  Uiso   1.00
H571   H     0.32602   0.50008   0.44530   0.00000  Uiso   1.00
H572   H     0.00732   0.49992   0.55470   0.00000  Uiso   1.00
H573   H     0.10635   0.45597   0.36917   0.00000  Uiso   1.00
H574   H     0.22698   0.54403   0.63083   0.00000  Uiso   1.00
H575   H     0.10637   0.45598   0.61560   0.00000  Uiso   1.00
H576   H     0.22697   0.54402   0.38440   0.00000  Uiso   1.00
N577   N     0.16668   0.50001   0.61736   0.00000  Uiso   1.00
N578   N     0.16665   0.49999   0.38264   0.00000  Uiso   1.00
O579   O     0.16666   0.43989   0.53958   0.00000  Uiso   1.00
O580   O     0.16667   0.56011   0.46042   0.00000  Uiso   1.00
O581   O     0.16666   0.43988   0.46039   0.00000  Uiso   1.00
O582   O     0.16667   0.56012   0.53961   0.00000  Uiso   1.00
O583   O     0.09161   0.50000   0.53046   0.00000  Uiso   1.00
O584   O     0.24172   0.50000   0.46954   0.00000  Uiso   1.00
O585   O     0.09161   0.49999   0.45127   0.00000  Uiso   1.00
O586   O     0.24172   0.50001   0.54873   0.00000  Uiso   1.00
N587   N     0.09730   0.37742   0.43259   0.00000  Uiso   1.00
H588   H     0.10377   0.36956   0.39845   0.00000  Uiso   1.00
H589   H     0.05963   0.36917   0.43687   0.00000  Uiso   1.00
N590   N     0.23604   0.62258   0.56741   0.00000  Uiso   1.00
H591   H     0.22956   0.63044   0.60155   0.00000  Uiso   1.00
H592   H     0.27370   0.63083   0.56313   0.00000  Uiso   1.00
N593   N     0.09732   0.62226   0.43258   0.00000  Uiso   1.00
H594   H     0.10376   0.63021   0.39845   0.00000  Uiso   1.00
H595   H     0.05966   0.63031   0.43690   0.00000  Uiso   1.00
N596   N     0.23601   0.37774   0.56742   0.00000  Uiso   1.00
H597   H     0.22957   0.36979   0.60155   0.00000  Uiso   1.00
H598   H     0.27368   0.36969   0.56310   0.00000  Uiso   1.00
C599   C     0.49998   0.42080   0.49999   0.00000  Uiso   1.00
C600   C     0.50002   0.57920   0.50001   0.00000  Uiso   1.00
C601   C     0.40126   0.49999   0.48791   0.00000  Uiso   1.00
C602   C     0.59874   0.50001   0.51209   0.00000  Uiso   1.00
C603   C     0.34598   0.50002   0.48126   0.00000  Uiso   1.00
C604   C     0.65402   0.49998   0.51874   0.00000  Uiso   1.00
C605   C     0.46595   0.35485   0.46600   0.00000  Uiso   1.00
C606   C     0.53405   0.64515   0.53400   0.00000  Uiso   1.00
C607   C     0.46597   0.64499   0.46599   0.00000  Uiso   1.00
C608   C     0.53403   0.35501   0.53401   0.00000  Uiso   1.00
C609   C     0.50002   0.62384   0.50000   0.00000  Uiso   1.00
C610   C     0.49998   0.37616   0.50000   0.00000  Uiso   1.00
C611   C     0.46649   0.47558   0.35390   0.00000  Uiso   1.00
C612   C     0.53351   0.52442   0.64610   0.00000  Uiso   1.00
C613   C     0.46650   0.47559   0.63765   0.00000  Uiso   1.00
C614   C     0.53349   0.52441   0.36235   0.00000  Uiso   1.00
Cu615  Cu    0.50000   0.50001   0.54689   0.00000  Uiso   1.00
Cu616  Cu    0.50000   0.49999   0.45311   0.00000  Uiso   1.00
H617   H     0.65935   0.50008   0.44530   0.00000  Uiso   1.00
H618   H     0.34065   0.49992   0.55470   0.00000  Uiso   1.00
H619   H     0.43968   0.45597   0.36917   0.00000  Uiso   1.00
H620   H     0.56032   0.54403   0.63083   0.00000  Uiso   1.00
H621   H     0.43970   0.45598   0.61560   0.00000  Uiso   1.00
H622   H     0.56030   0.54402   0.38440   0.00000  Uiso   1.00
N623   N     0.50001   0.50001   0.61736   0.00000  Uiso   1.00
N624   N     0.49999   0.49999   0.38264   0.00000  Uiso   1.00
O625   O     0.50000   0.43989   0.53958   0.00000  Uiso   1.00
O626   O     0.50000   0.56011   0.46042   0.00000  Uiso   1.00
O627   O     0.50000   0.43988   0.46039   0.00000  Uiso   1.00
O628   O     0.50000   0.56012   0.53961   0.00000  Uiso   1.00
O629   O     0.42495   0.50000   0.53046   0.00000  Uiso   1.00
O630   O     0.57505   0.50000   0.46954   0.00000  Uiso   1.00
O631   O     0.42494   0.49999   0.45127   0.00000  Uiso   1.00
O632   O     0.57506   0.50001   0.54873   0.00000  Uiso   1.00
N633   N     0.43063   0.37742   0.43259   0.00000  Uiso   1.00
H634   H     0.43710   0.36956   0.39845   0.00000  Uiso   1.00
H635   H     0.39296   0.36917   0.43687   0.00000  Uiso   1.00
N636   N     0.56937   0.62258   0.56741   0.00000  Uiso   1.00
H637   H     0.56289   0.63044   0.60155   0.00000  Uiso   1.00
H638   H     0.60704   0.63083   0.56313   0.00000  Uiso   1.00
N639   N     0.43066   0.62226   0.43258   0.00000  Uiso   1.00
H640   H     0.43710   0.63021   0.39845   0.00000  Uiso   1.00
H641   H     0.39299   0.63031   0.43690   0.00000  Uiso   1.00
N642   N     0.56934   0.37774   0.56742   0.00000  Uiso   1.00
H643   H     0.56290   0.36979   0.60155   0.00000  Uiso   1.00
H644   H     0.60701   0.36969   0.56310   0.00000  Uiso   1.00
C645   C     0.83331   0.42080   0.49999   0.00000  Uiso   1.00
C646   C     0.83335   0.57920   0.50001   0.00000  Uiso   1.00
C647   C     0.73459   0.49999   0.48791   0.00000  Uiso   1.00
C648   C     0.93208   0.50001   0.51209   0.00000  Uiso   1.00
C649   C     0.67931   0.50002   0.48126   0.00000  Uiso   1.00
C650   C     0.98735   0.49998   0.51874   0.00000  Uiso   1.00
C651   C     0.79928   0.35485   0.46600   0.00000  Uiso   1.00
C652   C     0.86738   0.64515   0.53400   0.00000  Uiso   1.00
C653   C     0.79930   0.64499   0.46599   0.00000  Uiso   1.00
C654   C     0.86737   0.35501   0.53401   0.00000  Uiso   1.00
C655   C     0.83335   0.62384   0.50000   0.00000  Uiso   1.00
C656   C     0.83332   0.37616   0.50000   0.00000  Uiso   1.00
C657   C     0.79982   0.47558   0.35390   0.00000  Uiso   1.00
C658   C     0.86684   0.52442   0.64610   0.00000  Uiso   1.00
C659   C     0.79984   0.47559   0.63765   0.00000  Uiso   1.00
C660   C     0.86683   0.52441   0.36235   0.00000  Uiso   1.00
Cu661  Cu    0.83333   0.50001   0.54689   0.00000  Uiso   1.00
Cu662  Cu    0.83333   0.49999   0.45311   0.00000  Uiso   1.00
H663   H     0.99268   0.50008   0.44530   0.00000  Uiso   1.00
H664   H     0.67398   0.49992   0.55470   0.00000  Uiso   1.00
H665   H     0.77302   0.45597   0.36917   0.00000  Uiso   1.00
H666   H     0.89365   0.54403   0.63083   0.00000  Uiso   1.00
H667   H     0.77303   0.45598   0.61560   0.00000  Uiso   1.00
H668   H     0.89363   0.54402   0.38440   0.00000  Uiso   1.00
N669   N     0.83335   0.50001   0.61736   0.00000  Uiso   1.00
N670   N     0.83332   0.49999   0.38264   0.00000  Uiso   1.00
O671   O     0.83333   0.43989   0.53958   0.00000  Uiso   1.00
O672   O     0.83334   0.56011   0.46042   0.00000  Uiso   1.00
O673   O     0.83333   0.43988   0.46039   0.00000  Uiso   1.00
O674   O     0.83334   0.56012   0.53961   0.00000  Uiso   1.00
O675   O     0.75828   0.50000   0.53046   0.00000  Uiso   1.00
O676   O     0.90839   0.50000   0.46954   0.00000  Uiso   1.00
O677   O     0.75828   0.49999   0.45127   0.00000  Uiso   1.00
O678   O     0.90839   0.50001   0.54873   0.00000  Uiso   1.00
N679   N     0.76396   0.37742   0.43259   0.00000  Uiso   1.00
H680   H     0.77044   0.36956   0.39845   0.00000  Uiso   1.00
H681   H     0.72630   0.36917   0.43687   0.00000  Uiso   1.00
N682   N     0.90270   0.62258   0.56741   0.00000  Uiso   1.00
H683   H     0.89623   0.63044   0.60155   0.00000  Uiso   1.00
H684   H     0.94037   0.63083   0.56313   0.00000  Uiso   1.00
N685   N     0.76399   0.62226   0.43258   0.00000  Uiso   1.00
H686   H     0.77043   0.63021   0.39845   0.00000  Uiso   1.00
H687   H     0.72632   0.63031   0.43690   0.00000  Uiso   1.00
N688   N     0.90268   0.37774   0.56742   0.00000  Uiso   1.00
H689   H     0.89624   0.36979   0.60155   0.00000  Uiso   1.00
H690   H     0.94034   0.36969   0.56310   0.00000  Uiso   1.00
C691   C     0.16665   0.75414   0.49999   0.00000  Uiso   1.00
C692   C     0.16669   0.91253   0.50001   0.00000  Uiso   1.00
C693   C     0.06792   0.83332   0.48791   0.00000  Uiso   1.00
C694   C     0.26541   0.83334   0.51209   0.00000  Uiso   1.00
C695   C     0.01265   0.83335   0.48126   0.00000  Uiso   1.00
C696   C     0.32069   0.83332   0.51874   0.00000  Uiso   1.00
C697   C     0.13262   0.68819   0.46600   0.00000  Uiso   1.00
C698   C     0.20072   0.97848   0.53400   0.00000  Uiso   1.00
C699   C     0.13263   0.97833   0.46599   0.00000  Uiso   1.00
C700   C     0.20070   0.68834   0.53401   0.00000  Uiso   1.00
C701   C     0.16668   0.95717   0.50000   0.00000  Uiso   1.00
C702   C     0.16665   0.70950   0.50000   0.00000  Uiso   1.00
C703   C     0.13316   0.80891   0.35390   0.00000  Uiso   1.00
C704   C     0.20017   0.85775   0.64610   0.00000  Uiso   1.00
C705   C     0.13317   0.80892   0.63765   0.00000  Uiso   1.00
C706   C     0.20016   0.85774   0.36235   0.00000  Uiso   1.00
Cu707  Cu    0.16667   0.83334   0.54689   0.00000  Uiso   1.00
Cu708  Cu    0.16667   0.83333   0.45311   0.00000  Uiso   1.00
H709   H     0.32602   0.83341   0.44530   0.00000  Uiso   1.00
H710   H     0.00732   0.83326   0.55470   0.00000  Uiso   1.00
H711   H     0.10635   0.78930   0.36917   0.00000  Uiso   1.00
H712   H     0.22698   0.87737   0.63083   0.00000  Uiso   1.00
H713   H     0.10637   0.78932   0.61560   0.00000  Uiso   1.00
H714   H     0.22697   0.87735   0.38440   0.00000  Uiso   1.00
N715   N     0.16668   0.83334   0.61736   0.00000  Uiso   1.00
N716   N     0.16665   0.83332   0.38264   0.00000  Uiso   1.00
O717   O     0.16666   0.77322   0.53958   0.00000  Uiso   1.00
O718   O     0.16667   0.89345   0.46042   0.00000  Uiso   1.00
O719   O     0.16666   0.77321   0.46039   0.00000  Uiso   1.00
O720   O     0.16667   0.89346   0.53961   0.00000  Uiso   1.00
O721   O     0.09161   0.83334   0.53046   0.00000  Uiso   1.00
O722   O     0.24172   0.83333   0.46954   0.00000  Uiso   1.00
O723   O     0.09161   0.83333   0.45127   0.00000  Uiso   1.00
O724   O     0.24172   0.83334   0.54873   0.00000  Uiso   1.00
N725   N     0.09730   0.71076   0.43259   0.00000  Uiso   1.00
H726   H     0.10377   0.70289   0.39845   0.00000  Uiso   1.00
H727   H     0.05963   0.70251   0.43687   0.00000  Uiso   1.00
N728   N     0.23604   0.95591   0.56741   0.00000  Uiso   1.00
H729   H     0.22956   0.96377   0.60155   0.00000  Uiso   1.00
H730   H     0.27370   0.96416   0.56313   0.00000  Uiso   1.00
N731   N     0.09732   0.95560   0.43258   0.00000  Uiso   1.00
H732   H     0.10376   0.96355   0.39845   0.00000  Uiso   1.00
H733   H     0.05966   0.96364   0.43690   0.00000  Uiso   1.00
N734   N     0.23601   0.71107   0.56742   0.00000  Uiso   1.00
H735   H     0.22957   0.70312   0.60155   0.00000  Uiso   1.00
H736   H     0.27368   0.70302   0.56310   0.00000  Uiso   1.00
C737   C     0.49998   0.75414   0.49999   0.00000  Uiso   1.00
C738   C     0.50002   0.91253   0.50001   0.00000  Uiso   1.00
C739   C     0.40126   0.83332   0.48791   0.00000  Uiso   1.00
C740   C     0.59874   0.83334   0.51209   0.00000  Uiso   1.00
C741   C     0.34598   0.83335   0.48126   0.00000  Uiso   1.00
C742   C     0.65402   0.83332   0.51874   0.00000  Uiso   1.00
C743   C     0.46595   0.68819   0.46600   0.00000  Uiso   1.00
C744   C     0.53405   0.97848   0.53400   0.00000  Uiso   1.00
C745   C     0.46597   0.97833   0.46599   0.00000  Uiso   1.00
C746   C     0.53403   0.68834   0.53401   0.00000  Uiso   1.00
C747   C     0.50002   0.95717   0.50000   0.00000  Uiso   1.00
C748   C     0.49998   0.70950   0.50000   0.00000  Uiso   1.00
C749   C     0.46649   0.80891   0.35390   0.00000  Uiso   1.00
C750   C     0.53351   0.85775   0.64610   0.00000  Uiso   1.00
C751   C     0.46650   0.80892   0.63765   0.00000  Uiso   1.00
C752   C     0.53349   0.85774   0.36235   0.00000  Uiso   1.00
Cu753  Cu    0.50000   0.83334   0.54689   0.00000  Uiso   1.00
Cu754  Cu    0.50000   0.83333   0.45311   0.00000  Uiso   1.00
H755   H     0.65935   0.83341   0.44530   0.00000  Uiso   1.00
H756   H     0.34065   0.83326   0.55470   0.00000  Uiso   1.00
H757   H     0.43968   0.78930   0.36917   0.00000  Uiso   1.00
H758   H     0.56032   0.87737   0.63083   0.00000  Uiso   1.00
H759   H     0.43970   0.78932   0.61560   0.00000  Uiso   1.00
H760   H     0.56030   0.87735   0.38440   0.00000  Uiso   1.00
N761   N     0.50001   0.83334   0.61736   0.00000  Uiso   1.00
N762   N     0.49999   0.83332   0.38264   0.00000  Uiso   1.00
O763   O     0.50000   0.77322   0.53958   0.00000  Uiso   1.00
O764   O     0.50000   0.89345   0.46042   0.00000  Uiso   1.00
O765   O     0.50000   0.77321   0.46039   0.00000  Uiso   1.00
O766   O     0.50000   0.89346   0.53961   0.00000  Uiso   1.00
O767   O     0.42495   0.83334   0.53046   0.00000  Uiso   1.00
O768   O     0.57505   0.83333   0.46954   0.00000  Uiso   1.00
O769   O     0.42494   0.83333   0.45127   0.00000  Uiso   1.00
O770   O     0.57506   0.83334   0.54873   0.00000  Uiso   1.00
N771   N     0.43063   0.71076   0.43259   0.00000  Uiso   1.00
H772   H     0.43710   0.70289   0.39845   0.00000  Uiso   1.00
H773   H     0.39296   0.70251   0.43687   0.00000  Uiso   1.00
N774   N     0.56937   0.95591   0.56741   0.00000  Uiso   1.00
H775   H     0.56289   0.96377   0.60155   0.00000  Uiso   1.00
H776   H     0.60704   0.96416   0.56313   0.00000  Uiso   1.00
N777   N     0.43066   0.95560   0.43258   0.00000  Uiso   1.00
H778   H     0.43710   0.96355   0.39845   0.00000  Uiso   1.00
H779   H     0.39299   0.96364   0.43690   0.00000  Uiso   1.00
N780   N     0.56934   0.71107   0.56742   0.00000  Uiso   1.00
H781   H     0.56290   0.70312   0.60155   0.00000  Uiso   1.00
H782   H     0.60701   0.70302   0.56310   0.00000  Uiso   1.00
C783   C     0.83331   0.75414   0.49999   0.00000  Uiso   1.00
C784   C     0.83335   0.91253   0.50001   0.00000  Uiso   1.00
C785   C     0.73459   0.83332   0.48791   0.00000  Uiso   1.00
C786   C     0.93208   0.83334   0.51209   0.00000  Uiso   1.00
C787   C     0.67931   0.83335   0.48126   0.00000  Uiso   1.00
C788   C     0.98735   0.83332   0.51874   0.00000  Uiso   1.00
C789   C     0.79928   0.68819   0.46600   0.00000  Uiso   1.00
C790   C     0.86738   0.97848   0.53400   0.00000  Uiso   1.00
C791   C     0.79930   0.97833   0.46599   0.00000  Uiso   1.00
C792   C     0.86737   0.68834   0.53401   0.00000  Uiso   1.00
C793   C     0.83335   0.95717   0.50000   0.00000  Uiso   1.00
C794   C     0.83332   0.70950   0.50000   0.00000  Uiso   1.00
C795   C     0.79982   0.80891   0.35390   0.00000  Uiso   1.00
C796   C     0.86684   0.85775   0.64610   0.00000  Uiso   1.00
C797   C     0.79984   0.80892   0.63765   0.00000  Uiso   1.00
C798   C     0.86683   0.85774   0.36235   0.00000  Uiso   1.00
Cu799  Cu    0.83333   0.83334   0.54689   0.00000  Uiso   1.00
Cu800  Cu    0.83333   0.83333   0.45311   0.00000  Uiso   1.00
H801   H     0.99268   0.83341   0.44530   0.00000  Uiso   1.00
H802   H     0.67398   0.83326   0.55470   0.00000  Uiso   1.00
H803   H     0.77302   0.78930   0.36917   0.00000  Uiso   1.00
H804   H     0.89365   0.87737   0.63083   0.00000  Uiso   1.00
H805   H     0.77303   0.78932   0.61560   0.00000  Uiso   1.00
H806   H     0.89363   0.87735   0.38440   0.00000  Uiso   1.00
N807   N     0.83335   0.83334   0.61736   0.00000  Uiso   1.00
N808   N     0.83332   0.83332   0.38264   0.00000  Uiso   1.00
O809   O     0.83333   0.77322   0.53958   0.00000  Uiso   1.00
O810   O     0.83334   0.89345   0.46042   0.00000  Uiso   1.00
O811   O     0.83333   0.77321   0.46039   0.00000  Uiso   1.00
O812   O     0.83334   0.89346   0.53961   0.00000  Uiso   1.00
O813   O     0.75828   0.83334   0.53046   0.00000  Uiso   1.00
O814   O     0.90839   0.83333   0.46954   0.00000  Uiso   1.00
O815   O     0.75828   0.83333   0.45127   0.00000  Uiso   1.00
O816   O     0.90839   0.83334   0.54873   0.00000  Uiso   1.00
N817   N     0.76396   0.71076   0.43259   0.00000  Uiso   1.00
H818   H     0.77044   0.70289   0.39845   0.00000  Uiso   1.00
H819   H     0.72630   0.70251   0.43687   0.00000  Uiso   1.00
N820   N     0.90270   0.95591   0.56741   0.00000  Uiso   1.00
H821   H     0.89623   0.96377   0.60155   0.00000  Uiso   1.00
H822   H     0.94037   0.96416   0.56313   0.00000  Uiso   1.00
N823   N     0.76399   0.95560   0.43258   0.00000  Uiso   1.00
H824   H     0.77043   0.96355   0.39845   0.00000  Uiso   1.00
H825   H     0.72632   0.96364   0.43690   0.00000  Uiso   1.00
N826   N     0.90268   0.71107   0.56742   0.00000  Uiso   1.00
H827   H     0.89624   0.70312   0.60155   0.00000  Uiso   1.00
H828   H     0.94034   0.70302   0.56310   0.00000  Uiso   1.00
C829   C     0.16665   0.08747   0.83332   0.00000  Uiso   1.00
C830   C     0.16669   0.24586   0.83334   0.00000  Uiso   1.00
C831   C     0.06792   0.16666   0.82125   0.00000  Uiso   1.00
C832   C     0.26541   0.16668   0.84542   0.00000  Uiso   1.00
C833   C     0.01265   0.16668   0.81459   0.00000  Uiso   1.00
C834   C     0.32069   0.16665   0.85207   0.00000  Uiso   1.00
C835   C     0.13262   0.02152   0.79933   0.00000  Uiso   1.00
C836   C     0.20072   0.31181   0.86734   0.00000  Uiso   1.00
C837   C     0.13263   0.31166   0.79933   0.00000  Uiso   1.00
C838   C     0.20070   0.02167   0.86734   0.00000  Uiso   1.00
C839   C     0.16668   0.29050   0.83333   0.00000  Uiso   1.00
C840   C     0.16665   0.04283   0.83334   0.00000  Uiso   1.00
C841   C     0.13316   0.14225   0.68723   0.00000  Uiso   1.00
C842   C     0.20017   0.19109   0.97944   0.00000  Uiso   1.00
C843   C     0.13317   0.14226   0.97098   0.00000  Uiso   1.00
C844   C     0.20016   0.19108   0.69569   0.00000  Uiso   1.00
Cu845  Cu    0.16667   0.16667   0.88022   0.00000  Uiso   1.00
Cu846  Cu    0.16667   0.16666   0.78645   0.00000  Uiso   1.00
H847   H     0.32602   0.16674   0.77863   0.00000  Uiso   1.00
H848   H     0.00732   0.16659   0.88803   0.00000  Uiso   1.00
H849   H     0.10635   0.12263   0.70250   0.00000  Uiso   1.00
H850   H     0.22698   0.21070   0.96416   0.00000  Uiso   1.00
H851   H     0.10637   0.12265   0.94893   0.00000  Uiso   1.00
H852   H     0.22697   0.21068   0.71773   0.00000  Uiso   1.00
N853   N     0.16668   0.16668   0.95069   0.00000  Uiso   1.00
N854   N     0.16665   0.16666   0.71597   0.00000  Uiso   1.00
O855   O     0.16666   0.10655   0.87291   0.00000  Uiso   1.00
O856   O     0.16667   0.22678   0.79375   0.00000  Uiso   1.00
O857   O     0.16666   0.10654   0.79372   0.00000  Uiso   1.00
O858   O     0.16667   0.22679   0.87294   0.00000  Uiso   1.00
O859   O     0.09161   0.16667   0.86379   0.00000  Uiso   1.00
O860   O     0.24172   0.16666   0.80288   0.00000  Uiso   1.00
O861   O     0.09161   0.16666   0.78460   0.00000  Uiso   1.00
O862   O     0.24172   0.16667   0.88207   0.00000  Uiso   1.00
N863   N     0.09730   0.04409   0.76592   0.00000  Uiso   1.00
H864   H     0.10377   0.03623   0.73178   0.00000  Uiso   1.00
H865   H     0.05963   0.03584   0.77020   0.00000  Uiso   1.00
N866   N     0.23604   0.28924   0.90075   0.00000  Uiso   1.00
H867   H     0.22956   0.29711   0.93489   0.00000  Uiso   1.00
H868   H     0.27370   0.29749   0.89646   0.00000  Uiso   1.00
N869   N     0.09732   0.28893   0.76592   0.00000  Uiso   1.00
H870   H     0.10376   0.29688   0.73178   0.00000  Uiso   1.00
H871   H     0.05966   0.29698   0.77023   0.00000  Uiso   1.00
N872   N     0.23601   0.04440   0.90075   0.00000  Uiso   1.00
H873   H     0.22957   0.03645   0.93489   0.00000  Uiso   1.00
H874   H     0.27368   0.03636   0.89643   0.00000  Uiso   1.00
C875   C     0.49998   0.08747   0.83332   0.00000  Uiso   1.00
C876   C     0.50002   0.24586   0.83334   0.00000  Uiso   1.00
C877   C     0.40126   0.16666   0.82125   0.00000  Uiso   1.00
C878   C     0.59874   0.16668   0.84542   0.00000  Uiso   1.00
C879   C     0.34598   0.16668   0.81459   0.00000  Uiso   1.00
C880   C     0.65402   0.16665   0.85207   0.00000  Uiso   1.00
C881   C     0.46595   0.02152   0.79933   0.00000  Uiso   1.00
C882   C     0.53405   0.31181   0.86734   0.00000  Uiso   1.00
C883   C     0.46597   0.31166   0.79933   0.00000  Uiso   1.00
C884   C     0.53403   0.02167   0.86734   0.00000  Uiso   1.00
C885   C     0.50002   0.29050   0.83333   0.00000  Uiso   1.00
C886   C     0.49998   0.04283   0.83334   0.00000  Uiso   1.00
C887   C     0.46649   0.14225   0.68723   0.00000  Uiso   1.00
C888   C     0.53351   0.19109   0.97944   0.00000  Uiso   1.00
C889   C     0.46650   0.14226   0.97098   0.00000  Uiso   1.00
C890   C     0.53349   0.19108   0.69569   0.00000  Uiso   1.00
Cu891  Cu    0.50000   0.16667   0.88022   0.00000  Uiso   1.00
Cu892  Cu    0.50000   0.16666   0.78645   0.00000  Uiso   1.00
H893   H     0.65935   0.16674   0.77863   0.00000  Uiso   1.00
H894   H     0.34065   0.16659   0.88803   0.00000  Uiso   1.00
H895   H     0.43968   0.12263   0.70250   0.00000  Uiso   1.00
H896   H     0.56032   0.21070   0.96416   0.00000  Uiso   1.00
H897   H     0.43970   0.12265   0.94893   0.00000  Uiso   1.00
H898   H     0.56030   0.21068   0.71773   0.00000  Uiso   1.00
N899   N     0.50001   0.16668   0.95069   0.00000  Uiso   1.00
N900   N     0.49999   0.16666   0.71597   0.00000  Uiso   1.00
O901   O     0.50000   0.10655   0.87291   0.00000  Uiso   1.00
O902   O     0.50000   0.22678   0.79375   0.00000  Uiso   1.00
O903   O     0.50000   0.10654   0.79372   0.00000  Uiso   1.00
O904   O     0.50000   0.22679   0.87294   0.00000  Uiso   1.00
O905   O     0.42495   0.16667   0.86379   0.00000  Uiso   1.00
O906   O     0.57505   0.16666   0.80288   0.00000  Uiso   1.00
O907   O     0.42494   0.16666   0.78460   0.00000  Uiso   1.00
O908   O     0.57506   0.16667   0.88207   0.00000  Uiso   1.00
N909   N     0.43063   0.04409   0.76592   0.00000  Uiso   1.00
H910   H     0.43710   0.03623   0.73178   0.00000  Uiso   1.00
H911   H     0.39296   0.03584   0.77020   0.00000  Uiso   1.00
N912   N     0.56937   0.28924   0.90075   0.00000  Uiso   1.00
H913   H     0.56289   0.29711   0.93489   0.00000  Uiso   1.00
H914   H     0.60704   0.29749   0.89646   0.00000  Uiso   1.00
N915   N     0.43066   0.28893   0.76592   0.00000  Uiso   1.00
H916   H     0.43710   0.29688   0.73178   0.00000  Uiso   1.00
H917   H     0.39299   0.29698   0.77023   0.00000  Uiso   1.00
N918   N     0.56934   0.04440   0.90075   0.00000  Uiso   1.00
H919   H     0.56290   0.03645   0.93489   0.00000  Uiso   1.00
H920   H     0.60701   0.03636   0.89643   0.00000  Uiso   1.00
C921   C     0.83331   0.08747   0.83332   0.00000  Uiso   1.00
C922   C     0.83335   0.24586   0.83334   0.00000  Uiso   1.00
C923   C     0.73459   0.16666   0.82125   0.00000  Uiso   1.00
C924   C     0.93208   0.16668   0.84542   0.00000  Uiso   1.00
C925   C     0.67931   0.16668   0.81459   0.00000  Uiso   1.00
C926   C     0.98735   0.16665   0.85207   0.00000  Uiso   1.00
C927   C     0.79928   0.02152   0.79933   0.00000  Uiso   1.00
C928   C     0.86738   0.31181   0.86734   0.00000  Uiso   1.00
C929   C     0.79930   0.31166   0.79933   0.00000  Uiso   1.00
C930   C     0.86737   0.02167   0.86734   0.00000  Uiso   1.00
C931   C     0.83335   0.29050   0.83333   0.00000  Uiso   1.00
C932   C     0.83332   0.04283   0.83334   0.00000  Uiso   1.00
C933   C     0.79982   0.14225   0.68723   0.00000  Uiso   1.00
C934   C     0.86684   0.19109   0.97944   0.00000  Uiso   1.00
C935   C     0.79984   0.14226   0.97098   0.00000  Uiso   1.00
C936   C     0.86683   0.19108   0.69569   0.00000  Uiso   1.00
Cu937  Cu    0.83333   0.16667   0.88022   0.00000  Uiso   1.00
Cu938  Cu    0.83333   0.16666   0.78645   0.00000  Uiso   1.00
H939   H     0.99268   0.16674   0.77863   0.00000  Uiso   1.00
H940   H     0.67398   0.16659   0.88803   0.00000  Uiso   1.00
H941   H     0.77302   0.12263   0.70250   0.00000  Uiso   1.00
H942   H     0.89365   0.21070   0.96416   0.00000  Uiso   1.00
H943   H     0.77303   0.12265   0.94893   0.00000  Uiso   1.00
H944   H     0.89363   0.21068   0.71773   0.00000  Uiso   1.00
N945   N     0.83335   0.16668   0.95069   0.00000  Uiso   1.00
N946   N     0.83332   0.16666   0.71597   0.00000  Uiso   1.00
O947   O     0.83333   0.10655   0.87291   0.00000  Uiso   1.00
O948   O     0.83334   0.22678   0.79375   0.00000  Uiso   1.00
O949   O     0.83333   0.10654   0.79372   0.00000  Uiso   1.00
O950   O     0.83334   0.22679   0.87294   0.00000  Uiso   1.00
O951   O     0.75828   0.16667   0.86379   0.00000  Uiso   1.00
O952   O     0.90839   0.16666   0.80288   0.00000  Uiso   1.00
O953   O     0.75828   0.16666   0.78460   0.00000  Uiso   1.00
O954   O     0.90839   0.16667   0.88207   0.00000  Uiso   1.00
N955   N     0.76396   0.04409   0.76592   0.00000  Uiso   1.00
H956   H     0.77044   0.03623   0.73178   0.00000  Uiso   1.00
H957   H     0.72630   0.03584   0.77020   0.00000  Uiso   1.00
N958   N     0.90270   0.28924   0.90075   0.00000  Uiso   1.00
H959   H     0.89623   0.29711   0.93489   0.00000  Uiso   1.00
H960   H     0.94037   0.29749   0.89646   0.00000  Uiso   1.00
N961   N     0.76399   0.28893   0.76592   0.00000  Uiso   1.00
H962   H     0.77043   0.29688   0.73178   0.00000  Uiso   1.00
H963   H     0.72632   0.29698   0.77023   0.00000  Uiso   1.00
N964   N     0.90268   0.04440   0.90075   0.00000  Uiso   1.00
H965   H     0.89624   0.03645   0.93489   0.00000  Uiso   1.00
H966   H     0.94034   0.03636   0.89643   0.00000  Uiso   1.00
C967   C     0.16665   0.42080   0.83332   0.00000  Uiso   1.00
C968   C     0.16669   0.57920   0.83334   0.00000  Uiso   1.00
C969   C     0.06792   0.49999   0.82125   0.00000  Uiso   1.00
C970   C     0.26541   0.50001   0.84542   0.00000  Uiso   1.00
C971   C     0.01265   0.50002   0.81459   0.00000  Uiso   1.00
C972   C     0.32069   0.49998   0.85207   0.00000  Uiso   1.00
C973   C     0.13262   0.35485   0.79933   0.00000  Uiso   1.00
C974   C     0.20072   0.64515   0.86734   0.00000  Uiso   1.00
C975   C     0.13263   0.64499   0.79933   0.00000  Uiso   1.00
C976   C     0.20070   0.35501   0.86734   0.00000  Uiso   1.00
C977   C     0.16668   0.62384   0.83333   0.00000  Uiso   1.00
C978   C     0.16665   0.37616   0.83334   0.00000  Uiso   1.00
C979   C     0.13316   0.47558   0.68723   0.00000  Uiso   1.00
C980   C     0.20017   0.52442   0.97944   0.00000  Uiso   1.00
C981   C     0.13317   0.47559   0.97098   0.00000  Uiso   1.00
C982   C     0.20016   0.52441   0.69569   0.00000  Uiso   1.00
Cu983  Cu    0.16667   0.50001   0.88022   0.00000  Uiso   1.00
Cu984  Cu    0.16667   0.49999   0.78645   0.00000  Uiso   1.00
H985   H     0.32602   0.50008   0.77863   0.00000  Uiso   1.00
H986   H     0.00732   0.49992   0.88803   0.00000  Uiso   1.00
H987   H     0.10635   0.45597   0.70250   0.00000  Uiso   1.00
H988   H     0.22698   0.54403   0.96416   0.00000  Uiso   1.00
H989   H     0.10637   0.45598   0.94893   0.00000  Uiso   1.00
H990   H     0.22697   0.54402   0.71773   0.00000  Uiso   1.00
N991   N     0.16668   0.50001   0.95069   0.00000  Uiso   1.00
N992   N     0.16665   0.49999   0.71597   0.00000  Uiso   1.00
O993   O     0.16666   0.43989   0.87291   0.00000  Uiso   1.00
O994   O     0.16667   0.56011   0.79375   0.00000  Uiso   1.00
O995   O     0.16666   0.43988   0.79372   0.00000  Uiso   1.00
O996   O     0.16667   0.56012   0.87294   0.00000  Uiso   1.00
O997   O     0.09161   0.50000   0.86379   0.00000  Uiso   1.00
O998   O     0.24172   0.50000   0.80288   0.00000  Uiso   1.00
O999   O     0.09161   0.49999   0.78460   0.00000  Uiso   1.00
O1000  O     0.24172   0.50001   0.88207   0.00000  Uiso   1.00
N1001  N     0.09730   0.37742   0.76592   0.00000  Uiso   1.00
H1002  H     0.10377   0.36956   0.73178   0.00000  Uiso   1.00
H1003  H     0.05963   0.36917   0.77020   0.00000  Uiso   1.00
N1004  N     0.23604   0.62258   0.90075   0.00000  Uiso   1.00
H1005  H     0.22956   0.63044   0.93489   0.00000  Uiso   1.00
H1006  H     0.27370   0.63083   0.89646   0.00000  Uiso   1.00
N1007  N     0.09732   0.62226   0.76592   0.00000  Uiso   1.00
H1008  H     0.10376   0.63021   0.73178   0.00000  Uiso   1.00
H1009  H     0.05966   0.63031   0.77023   0.00000  Uiso   1.00
N1010  N     0.23601   0.37774   0.90075   0.00000  Uiso   1.00
H1011  H     0.22957   0.36979   0.93489   0.00000  Uiso   1.00
H1012  H     0.27368   0.36969   0.89643   0.00000  Uiso   1.00
C1013  C     0.49998   0.42080   0.83332   0.00000  Uiso   1.00
C1014  C     0.50002   0.57920   0.83334   0.00000  Uiso   1.00
C1015  C     0.40126   0.49999   0.82125   0.00000  Uiso   1.00
C1016  C     0.59874   0.50001   0.84542   0.00000  Uiso   1.00
C1017  C     0.34598   0.50002   0.81459   0.00000  Uiso   1.00
C1018  C     0.65402   0.49998   0.85207   0.00000  Uiso   1.00
C1019  C     0.46595   0.35485   0.79933   0.00000  Uiso   1.00
C1020  C     0.53405   0.64515   0.86734   0.00000  Uiso   1.00
C1021  C     0.46597   0.64499   0.79933   0.00000  Uiso   1.00
C1022  C     0.53403   0.35501   0.86734   0.00000  Uiso   1.00
C1023  C     0.50002   0.62384   0.83333   0.00000  Uiso   1.00
C1024  C     0.49998   0.37616   0.83334   0.00000  Uiso   1.00
C1025  C     0.46649   0.47558   0.68723   0.00000  Uiso   1.00
C1026  C     0.53351   0.52442   0.97944   0.00000  Uiso   1.00
C1027  C     0.46650   0.47559   0.97098   0.00000  Uiso   1.00
C1028  C     0.53349   0.52441   0.69569   0.00000  Uiso   1.00
Cu1029 Cu    0.50000   0.50001   0.88022   0.00000  Uiso   1.00
Cu1030 Cu    0.50000   0.49999   0.78645   0.00000  Uiso   1.00
H1031  H     0.65935   0.50008   0.77863   0.00000  Uiso   1.00
H1032  H     0.34065   0.49992   0.88803   0.00000  Uiso   1.00
H1033  H     0.43968   0.45597   0.70250   0.00000  Uiso   1.00
H1034  H     0.56032   0.54403   0.96416   0.00000  Uiso   1.00
H1035  H     0.43970   0.45598   0.94893   0.00000  Uiso   1.00
H1036  H     0.56030   0.54402   0.71773   0.00000  Uiso   1.00
N1037  N     0.50001   0.50001   0.95069   0.00000  Uiso   1.00
N1038  N     0.49999   0.49999   0.71597   0.00000  Uiso   1.00
O1039  O     0.50000   0.43989   0.87291   0.00000  Uiso   1.00
O1040  O     0.50000   0.56011   0.79375   0.00000  Uiso   1.00
O1041  O     0.50000   0.43988   0.79372   0.00000  Uiso   1.00
O1042  O     0.50000   0.56012   0.87294   0.00000  Uiso   1.00
O1043  O     0.42495   0.50000   0.86379   0.00000  Uiso   1.00
O1044  O     0.57505   0.50000   0.80288   0.00000  Uiso   1.00
O1045  O     0.42494   0.49999   0.78460   0.00000  Uiso   1.00
O1046  O     0.57506   0.50001   0.88207   0.00000  Uiso   1.00
N1047  N     0.43063   0.37742   0.76592   0.00000  Uiso   1.00
H1048  H     0.43710   0.36956   0.73178   0.00000  Uiso   1.00
H1049  H     0.39296   0.36917   0.77020   0.00000  Uiso   1.00
N1050  N     0.56937   0.62258   0.90075   0.00000  Uiso   1.00
H1051  H     0.56289   0.63044   0.93489   0.00000  Uiso   1.00
H1052  H     0.60704   0.63083   0.89646   0.00000  Uiso   1.00
N1053  N     0.43066   0.62226   0.76592   0.00000  Uiso   1.00
H1054  H     0.43710   0.63021   0.73178   0.00000  Uiso   1.00
H1055  H     0.39299   0.63031   0.77023   0.00000  Uiso   1.00
N1056  N     0.56934   0.37774   0.90075   0.00000  Uiso   1.00
H1057  H     0.56290   0.36979   0.93489   0.00000  Uiso   1.00
H1058  H     0.60701   0.36969   0.89643   0.00000  Uiso   1.00
C1059  C     0.83331   0.42080   0.83332   0.00000  Uiso   1.00
C1060  C     0.83335   0.57920   0.83334   0.00000  Uiso   1.00
C1061  C     0.73459   0.49999   0.82125   0.00000  Uiso   1.00
C1062  C     0.93208   0.50001   0.84542   0.00000  Uiso   1.00
C1063  C     0.67931   0.50002   0.81459   0.00000  Uiso   1.00
C1064  C     0.98735   0.49998   0.85207   0.00000  Uiso   1.00
C1065  C     0.79928   0.35485   0.79933   0.00000  Uiso   1.00
C1066  C     0.86738   0.64515   0.86734   0.00000  Uiso   1.00
C1067  C     0.79930   0.64499   0.79933   0.00000  Uiso   1.00
C1068  C     0.86737   0.35501   0.86734   0.00000  Uiso   1.00
C1069  C     0.83335   0.62384   0.83333   0.00000  Uiso   1.00
C1070  C     0.83332   0.37616   0.83334   0.00000  Uiso   1.00
C1071  C     0.79982   0.47558   0.68723   0.00000  Uiso   1.00
C1072  C     0.86684   0.52442   0.97944   0.00000  Uiso   1.00
C1073  C     0.79984   0.47559   0.97098   0.00000  Uiso   1.00
C1074  C     0.86683   0.52441   0.69569   0.00000  Uiso   1.00
Cu1075 Cu    0.83333   0.50001   0.88022   0.00000  Uiso   1.00
Cu1076 Cu    0.83333   0.49999   0.78645   0.00000  Uiso   1.00
H1077  H     0.99268   0.50008   0.77863   0.00000  Uiso   1.00
H1078  H     0.67398   0.49992   0.88803   0.00000  Uiso   1.00
H1079  H     0.77302   0.45597   0.70250   0.00000  Uiso   1.00
H1080  H     0.89365   0.54403   0.96416   0.00000  Uiso   1.00
H1081  H     0.77303   0.45598   0.94893   0.00000  Uiso   1.00
H1082  H     0.89363   0.54402   0.71773   0.00000  Uiso   1.00
N1083  N     0.83335   0.50001   0.95069   0.00000  Uiso   1.00
N1084  N     0.83332   0.49999   0.71597   0.00000  Uiso   1.00
O1085  O     0.83333   0.43989   0.87291   0.00000  Uiso   1.00
O1086  O     0.83334   0.56011   0.79375   0.00000  Uiso   1.00
O1087  O     0.83333   0.43988   0.79372   0.00000  Uiso   1.00
O1088  O     0.83334   0.56012   0.87294   0.00000  Uiso   1.00
O1089  O     0.75828   0.50000   0.86379   0.00000  Uiso   1.00
O1090  O     0.90839   0.50000   0.80288   0.00000  Uiso   1.00
O1091  O     0.75828   0.49999   0.78460   0.00000  Uiso   1.00
O1092  O     0.90839   0.50001   0.88207   0.00000  Uiso   1.00
N1093  N     0.76396   0.37742   0.76592   0.00000  Uiso   1.00
H1094  H     0.77044   0.36956   0.73178   0.00000  Uiso   1.00
H1095  H     0.72630   0.36917   0.77020   0.00000  Uiso   1.00
N1096  N     0.90270   0.62258   0.90075   0.00000  Uiso   1.00
H1097  H     0.89623   0.63044   0.93489   0.00000  Uiso   1.00
H1098  H     0.94037   0.63083   0.89646   0.00000  Uiso   1.00
N1099  N     0.76399   0.62226   0.76592   0.00000  Uiso   1.00
H1100  H     0.77043   0.63021   0.73178   0.00000  Uiso   1.00
H1101  H     0.72632   0.63031   0.77023   0.00000  Uiso   1.00
N1102  N     0.90268   0.37774   0.90075   0.00000  Uiso   1.00
H1103  H     0.89624   0.36979   0.93489   0.00000  Uiso   1.00
H1104  H     0.94034   0.36969   0.89643   0.00000  Uiso   1.00
C1105  C     0.16665   0.75414   0.83332   0.00000  Uiso   1.00
C1106  C     0.16669   0.91253   0.83334   0.00000  Uiso   1.00
C1107  C     0.06792   0.83332   0.82125   0.00000  Uiso   1.00
C1108  C     0.26541   0.83334   0.84542   0.00000  Uiso   1.00
C1109  C     0.01265   0.83335   0.81459   0.00000  Uiso   1.00
C1110  C     0.32069   0.83332   0.85207   0.00000  Uiso   1.00
C1111  C     0.13262   0.68819   0.79933   0.00000  Uiso   1.00
C1112  C     0.20072   0.97848   0.86734   0.00000  Uiso   1.00
C1113  C     0.13263   0.97833   0.79933   0.00000  Uiso   1.00
C1114  C     0.20070   0.68834   0.86734   0.00000  Uiso   1.00
C1115  C     0.16668   0.95717   0.83333   0.00000  Uiso   1.00
C1116  C     0.16665   0.70950   0.83334   0.00000  Uiso   1.00
C1117  C     0.13316   0.80891   0.68723   0.00000  Uiso   1.00
C1118  C     0.20017   0.85775   0.97944   0.00000  Uiso   1.00
C1119  C     0.13317   0.80892   0.97098   0.00000  Uiso   1.00
C1120  C     0.20016   0.85774   0.69569   0.00000  Uiso   1.00
Cu1121 Cu    0.16667   0.83334   0.88022   0.00000  Uiso   1.00
Cu1122 Cu    0.16667   0.83333   0.78645   0.00000  Uiso   1.00
H1123  H     0.32602   0.83341   0.77863   0.00000  Uiso   1.00
H1124  H     0.00732   0.83326   0.88803   0.00000  Uiso   1.00
H1125  H     0.10635   0.78930   0.70250   0.00000  Uiso   1.00
H1126  H     0.22698   0.87737   0.96416   0.00000  Uiso   1.00
H1127  H     0.10637   0.78932   0.94893   0.00000  Uiso   1.00
H1128  H     0.22697   0.87735   0.71773   0.00000  Uiso   1.00
N1129  N     0.16668   0.83334   0.95069   0.00000  Uiso   1.00
N1130  N     0.16665   0.83332   0.71597   0.00000  Uiso   1.00
O1131  O     0.16666   0.77322   0.87291   0.00000  Uiso   1.00
O1132  O     0.16667   0.89345   0.79375   0.00000  Uiso   1.00
O1133  O     0.16666   0.77321   0.79372   0.00000  Uiso   1.00
O1134  O     0.16667   0.89346   0.87294   0.00000  Uiso   1.00
O1135  O     0.09161   0.83334   0.86379   0.00000  Uiso   1.00
O1136  O     0.24172   0.83333   0.80288   0.00000  Uiso   1.00
O1137  O     0.09161   0.83333   0.78460   0.00000  Uiso   1.00
O1138  O     0.24172   0.83334   0.88207   0.00000  Uiso   1.00
N1139  N     0.09730   0.71076   0.76592   0.00000  Uiso   1.00
H1140  H     0.10377   0.70289   0.73178   0.00000  Uiso   1.00
H1141  H     0.05963   0.70251   0.77020   0.00000  Uiso   1.00
N1142  N     0.23604   0.95591   0.90075   0.00000  Uiso   1.00
H1143  H     0.22956   0.96377   0.93489   0.00000  Uiso   1.00
H1144  H     0.27370   0.96416   0.89646   0.00000  Uiso   1.00
N1145  N     0.09732   0.95560   0.76592   0.00000  Uiso   1.00
H1146  H     0.10376   0.96355   0.73178   0.00000  Uiso   1.00
H1147  H     0.05966   0.96364   0.77023   0.00000  Uiso   1.00
N1148  N     0.23601   0.71107   0.90075   0.00000  Uiso   1.00
H1149  H     0.22957   0.70312   0.93489   0.00000  Uiso   1.00
H1150  H     0.27368   0.70302   0.89643   0.00000  Uiso   1.00
C1151  C     0.49998   0.75414   0.83332   0.00000  Uiso   1.00
C1152  C     0.50002   0.91253   0.83334   0.00000  Uiso   1.00
C1153  C     0.40126   0.83332   0.82125   0.00000  Uiso   1.00
C1154  C     0.59874   0.83334   0.84542   0.00000  Uiso   1.00
C1155  C     0.34598   0.83335   0.81459   0.00000  Uiso   1.00
C1156  C     0.65402   0.83332   0.85207   0.00000  Uiso   1.00
C1157  C     0.46595   0.68819   0.79933   0.00000  Uiso   1.00
C1158  C     0.53405   0.97848   0.86734   0.00000  Uiso   1.00
C1159  C     0.46597   0.97833   0.79933   0.00000  Uiso   1.00
C1160  C     0.53403   0.68834   0.86734   0.00000  Uiso   1.00
C1161  C     0.50002   0.95717   0.83333   0.00000  Uiso   1.00
C1162  C     0.49998   0.70950   0.83334   0.00000  Uiso   1.00
C1163  C     0.46649   0.80891   0.68723   0.00000  Uiso   1.00
C1164  C     0.53351   0.85775   0.97944   0.00000  Uiso   1.00
C1165  C     0.46650   0.80892   0.97098   0.00000  Uiso   1.00
C1166  C     0.53349   0.85774   0.69569   0.00000  Uiso   1.00
Cu1167 Cu    0.50000   0.83334   0.88022   0.00000  Uiso   1.00
Cu1168 Cu    0.50000   0.83333   0.78645   0.00000  Uiso   1.00
H1169  H     0.65935   0.83341   0.77863   0.00000  Uiso   1.00
H1170  H     0.34065   0.83326   0.88803   0.00000  Uiso   1.00
H1171  H     0.43968   0.78930   0.70250   0.00000  Uiso   1.00
H1172  H     0.56032   0.87737   0.96416   0.00000  Uiso   1.00
H1173  H     0.43970   0.78932   0.94893   0.00000  Uiso   1.00
H1174  H     0.56030   0.87735   0.71773   0.00000  Uiso   1.00
N1175  N     0.50001   0.83334   0.95069   0.00000  Uiso   1.00
N1176  N     0.49999   0.83332   0.71597   0.00000  Uiso   1.00
O1177  O     0.50000   0.77322   0.87291   0.00000  Uiso   1.00
O1178  O     0.50000   0.89345   0.79375   0.00000  Uiso   1.00
O1179  O     0.50000   0.77321   0.79372   0.00000  Uiso   1.00
O1180  O     0.50000   0.89346   0.87294   0.00000  Uiso   1.00
O1181  O     0.42495   0.83334   0.86379   0.00000  Uiso   1.00
O1182  O     0.57505   0.83333   0.80288   0.00000  Uiso   1.00
O1183  O     0.42494   0.83333   0.78460   0.00000  Uiso   1.00
O1184  O     0.57506   0.83334   0.88207   0.00000  Uiso   1.00
N1185  N     0.43063   0.71076   0.76592   0.00000  Uiso   1.00
H1186  H     0.43710   0.70289   0.73178   0.00000  Uiso   1.00
H1187  H     0.39296   0.70251   0.77020   0.00000  Uiso   1.00
N1188  N     0.56937   0.95591   0.90075   0.00000  Uiso   1.00
H1189  H     0.56289   0.96377   0.93489   0.00000  Uiso   1.00
H1190  H     0.60704   0.96416   0.89646   0.00000  Uiso   1.00
N1191  N     0.43066   0.95560   0.76592   0.00000  Uiso   1.00
H1192  H     0.43710   0.96355   0.73178   0.00000  Uiso   1.00
H1193  H     0.39299   0.96364   0.77023   0.00000  Uiso   1.00
N1194  N     0.56934   0.71107   0.90075   0.00000  Uiso   1.00
H1195  H     0.56290   0.70312   0.93489   0.00000  Uiso   1.00
H1196  H     0.60701   0.70302   0.89643   0.00000  Uiso   1.00
C1197  C     0.83331   0.75414   0.83332   0.00000  Uiso   1.00
C1198  C     0.83335   0.91253   0.83334   0.00000  Uiso   1.00
C1199  C     0.73459   0.83332   0.82125   0.00000  Uiso   1.00
C1200  C     0.93208   0.83334   0.84542   0.00000  Uiso   1.00
C1201  C     0.67931   0.83335   0.81459   0.00000  Uiso   1.00
C1202  C     0.98735   0.83332   0.85207   0.00000  Uiso   1.00
C1203  C     0.79928   0.68819   0.79933   0.00000  Uiso   1.00
C1204  C     0.86738   0.97848   0.86734   0.00000  Uiso   1.00
C1205  C     0.79930   0.97833   0.79933   0.00000  Uiso   1.00
C1206  C     0.86737   0.68834   0.86734   0.00000  Uiso   1.00
C1207  C     0.83335   0.95717   0.83333   0.00000  Uiso   1.00
C1208  C     0.83332   0.70950   0.83334   0.00000  Uiso   1.00
C1209  C     0.79982   0.80891   0.68723   0.00000  Uiso   1.00
C1210  C     0.86684   0.85775   0.97944   0.00000  Uiso   1.00
C1211  C     0.79984   0.80892   0.97098   0.00000  Uiso   1.00
C1212  C     0.86683   0.85774   0.69569   0.00000  Uiso   1.00
Cu1213 Cu    0.83333   0.83334   0.88022   0.00000  Uiso   1.00
Cu1214 Cu    0.83333   0.83333   0.78645   0.00000  Uiso   1.00
H1215  H     0.99268   0.83341   0.77863   0.00000  Uiso   1.00
H1216  H     0.67398   0.83326   0.88803   0.00000  Uiso   1.00
H1217  H     0.77302   0.78930   0.70250   0.00000  Uiso   1.00
H1218  H     0.89365   0.87737   0.96416   0.00000  Uiso   1.00
H1219  H     0.77303   0.78932   0.94893   0.00000  Uiso   1.00
H1220  H     0.89363   0.87735   0.71773   0.00000  Uiso   1.00
N1221  N     0.83335   0.83334   0.95069   0.00000  Uiso   1.00
N1222  N     0.83332   0.83332   0.71597   0.00000  Uiso   1.00
O1223  O     0.83333   0.77322   0.87291   0.00000  Uiso   1.00
O1224  O     0.83334   0.89345   0.79375   0.00000  Uiso   1.00
O1225  O     0.83333   0.77321   0.79372   0.00000  Uiso   1.00
O1226  O     0.83334   0.89346   0.87294   0.00000  Uiso   1.00
O1227  O     0.75828   0.83334   0.86379   0.00000  Uiso   1.00
O1228  O     0.90839   0.83333   0.80288   0.00000  Uiso   1.00
O1229  O     0.75828   0.83333   0.78460   0.00000  Uiso   1.00
O1230  O     0.90839   0.83334   0.88207   0.00000  Uiso   1.00
N1231  N     0.76396   0.71076   0.76592   0.00000  Uiso   1.00
H1232  H     0.77044   0.70289   0.73178   0.00000  Uiso   1.00
H1233  H     0.72630   0.70251   0.77020   0.00000  Uiso   1.00
N1234  N     0.90270   0.95591   0.90075   0.00000  Uiso   1.00
H1235  H     0.89623   0.96377   0.93489   0.00000  Uiso   1.00
H1236  H     0.94037   0.96416   0.89646   0.00000  Uiso   1.00
N1237  N     0.76399   0.95560   0.76592   0.00000  Uiso   1.00
H1238  H     0.77043   0.96355   0.73178   0.00000  Uiso   1.00
H1239  H     0.72632   0.96364   0.77023   0.00000  Uiso   1.00
N1240  N     0.90268   0.71107   0.90075   0.00000  Uiso   1.00
H1241  H     0.89624   0.70312   0.93489   0.00000  Uiso   1.00
H1242  H     0.94034   0.70302   0.89643   0.00000  Uiso   1.00
loop_
_geom_bond_atom_site_label_1
_geom_bond_atom_site_label_2
_geom_bond_distance
_geom_bond_site_symmetry_2
_ccdc_geom_bond_type
C1     O29     1.290   .     A
C1     C12     1.447   .     S
C1     O27     1.290   .     A
C2     O30     1.290   .     A
C2     C11     1.447   .     S
C2     O28     1.290   .     A
C3     O31     1.287   .     A
C3     O33     1.289   .     A
C3     C5      1.434   .     S
C4     O32     1.287   .     A
C4     O34     1.289   .     A
C4     C6      1.434   .     S
C5     C98     1.335   1_455 S
C5     H111    1.087   1_455 S
C6     C51     1.335   .     S
C6     H66     1.087   .     S
C7     C12     1.405   .     A
C7     N35     1.437   .     S
C7     C285    1.401   1_545 S
C8     N38     1.437   .     S
C8     C11     1.405   .     A
C8     C148    1.401   .     S
C9     N41     1.437   .     S
C9     C11     1.406   .     A
C9     C145    1.401   .     S
C10    C12     1.406   .     A
C10    N44     1.437   .     S
C10    C284    1.401   1_545 S
C13    H21     1.082   .     S
C13    N26     1.367   .     A
C13    C843    1.417   1_554 S
C14    H22     1.082   .     S
C14    N25     1.367   .     A
C14    C430    1.417   .     S
C15    H23     1.082   .     S
C15    N25     1.367   .     A
C15    C427    1.417   .     S
C16    H24     1.082   .     S
C16    N26     1.367   .     A
C16    C842    1.417   1_554 S
Cu17   N25     2.015   .     S
Cu17   Cu18    2.681   .     S
Cu17   O30     1.960   .     S
Cu17   O31     1.958   .     S
Cu17   O34     1.960   .     S
Cu17   O27     1.961   .     S
Cu18   O28     1.961   .     S
Cu18   N26     2.015   .     S
Cu18   O29     1.960   .     S
Cu18   O33     1.960   .     S
Cu18   O32     1.958   .     S
H19    C51     1.087   .     S
H20    C98     1.087   1_455 S
N35    H36     1.045   .     S
N35    H37     1.045   .     S
N38    H40     1.045   .     S
N38    H39     1.045   .     S
N41    H43     1.045   .     S
N41    H42     1.045   .     S
N44    H46     1.045   .     S
N44    H45     1.045   .     S
C47    O75     1.290   .     A
C47    C58     1.447   .     S
C47    O73     1.290   .     A
C48    O76     1.290   .     A
C48    C57     1.447   .     S
C48    O74     1.290   .     A
C49    O77     1.287   .     A
C49    O79     1.289   .     A
C49    C51     1.434   .     S
C50    O78     1.287   .     A
C50    O80     1.289   .     A
C50    C52     1.434   .     S
C52    C97     1.335   .     S
C52    H112    1.087   .     S
C53    C58     1.405   .     A
C53    N81     1.437   .     S
C53    C331    1.401   1_545 S
C54    N84     1.437   .     S
C54    C57     1.405   .     A
C54    C194    1.401   .     S
C55    N87     1.437   .     S
C55    C57     1.406   .     A
C55    C191    1.401   .     S
C56    C58     1.406   .     A
C56    N90     1.437   .     S
C56    C330    1.401   1_545 S
C59    H67     1.082   .     S
C59    N72     1.367   .     A
C59    C889    1.417   1_554 S
C60    H68     1.082   .     S
C60    N71     1.367   .     A
C60    C476    1.417   .     S
C61    H69     1.082   .     S
C61    N71     1.367   .     A
C61    C473    1.417   .     S
C62    H70     1.082   .     S
C62    N72     1.367   .     A
C62    C888    1.417   1_554 S
Cu63   N71     2.015   .     S
Cu63   Cu64    2.681   .     S
Cu63   O76     1.960   .     S
Cu63   O77     1.958   .     S
Cu63   O80     1.960   .     S
Cu63   O73     1.961   .     S
Cu64   O74     1.961   .     S
Cu64   N72     2.015   .     S
Cu64   O75     1.960   .     S
Cu64   O79     1.960   .     S
Cu64   O78     1.958   .     S
H65    C97     1.087   .     S
N81    H82     1.045   .     S
N81    H83     1.045   .     S
N84    H86     1.045   .     S
N84    H85     1.045   .     S
N87    H89     1.045   .     S
N87    H88     1.045   .     S
N90    H92     1.045   .     S
N90    H91     1.045   .     S
C93    O121    1.290   .     A
C93    C104    1.447   .     S
C93    O119    1.290   .     A
C94    O122    1.290   .     A
C94    C103    1.447   .     S
C94    O120    1.290   .     A
C95    O123    1.287   .     A
C95    O125    1.289   .     A
C95    C97     1.434   .     S
C96    O124    1.287   .     A
C96    O126    1.289   .     A
C96    C98     1.434   .     S
C98    C5      1.335   1_655 S
C98    H20     1.087   1_655 S
C99    C104    1.405   .     A
C99    N127    1.437   .     S
C99    C377    1.401   1_545 S
C100   N130    1.437   .     S
C100   C103    1.405   .     A
C100   C240    1.401   .     S
C101   N133    1.437   .     S
C101   C103    1.406   .     A
C101   C237    1.401   .     S
C102   C104    1.406   .     A
C102   N136    1.437   .     S
C102   C376    1.401   1_545 S
C105   H113    1.082   .     S
C105   N118    1.367   .     A
C105   C935    1.417   1_554 S
C106   H114    1.082   .     S
C106   N117    1.367   .     A
C106   C522    1.417   .     S
C107   H115    1.082   .     S
C107   N117    1.367   .     A
C107   C519    1.417   .     S
C108   H116    1.082   .     S
C108   N118    1.367   .     A
C108   C934    1.417   1_554 S
Cu109  N117    2.015   .     S
Cu109  Cu110   2.681   .     S
Cu109  O122    1.960   .     S
Cu109  O123    1.958   .     S
Cu109  O126    1.960   .     S
Cu109  O119    1.961   .     S
Cu110  O120    1.961   .     S
Cu110  N118    2.015   .     S
Cu110  O121    1.960   .     S
Cu110  O125    1.960   .     S
Cu110  O124    1.958   .     S
H111   C5      1.087   1_655 S
N127   H128    1.045   .     S
N127   H129    1.045   .     S
N130   H132    1.045   .     S
N130   H131    1.045   .     S
N133   H135    1.045   .     S
N133   H134    1.045   .     S
N136   H138    1.045   .     S
N136   H137    1.045   .     S
C139   O167    1.290   .     A
C139   C150    1.447   .     S
C139   O165    1.290   .     A
C140   O168    1.290   .     A
C140   C149    1.447   .     S
C140   O166    1.290   .     A
C141   O169    1.287   .     A
C141   O171    1.289   .     A
C141   C143    1.434   .     S
C142   O170    1.287   .     A
C142   O172    1.289   .     A
C142   C144    1.434   .     S
C143   C236    1.335   1_455 S
C143   H249    1.087   1_455 S
C144   C189    1.335   .     S
C144   H204    1.087   .     S
C145   C150    1.405   .     A
C145   N173    1.437   .     S
C146   N176    1.437   .     S
C146   C149    1.405   .     A
C146   C286    1.401   .     S
C147   N179    1.437   .     S
C147   C149    1.406   .     A
C147   C283    1.401   .     S
C148   C150    1.406   .     A
C148   N182    1.437   .     S
C151   H159    1.082   .     S
C151   N164    1.367   .     A
C151   C981    1.417   1_554 S
C152   H160    1.082   .     S
C152   N163    1.367   .     A
C152   C568    1.417   .     S
C153   H161    1.082   .     S
C153   N163    1.367   .     A
C153   C565    1.417   .     S
C154   H162    1.082   .     S
C154   N164    1.367   .     A
C154   C980    1.417   1_554 S
Cu155  N163    2.015   .     S
Cu155  Cu156   2.681   .     S
Cu155  O168    1.960   .     S
Cu155  O169    1.958   .     S
Cu155  O172    1.960   .     S
Cu155  O165    1.961   .     S
Cu156  O166    1.961   .     S
Cu156  N164    2.015   .     S
Cu156  O167    1.960   .     S
Cu156  O171    1.960   .     S
Cu156  O170    1.958   .     S
H157   C189    1.087   .     S
H158   C236    1.087   1_455 S
N173   H174    1.045   .     S
N173   H175    1.045   .     S
N176   H178    1.045   .     S
N176   H177    1.045   .     S
N179   H181    1.045   .     S
N179   H180    1.045   .     S
N182   H184    1.045   .     S
N182   H183    1.045   .     S
C185   O213    1.290   .     A
C185   C196    1.447   .     S
C185   O211    1.290   .     A
C186   O214    1.290   .     A
C186   C195    1.447   .     S
C186   O212    1.290   .     A
C187   O215    1.287   .     A
C187   O217    1.289   .     A
C187   C189    1.434   .     S
C188   O216    1.287   .     A
C188   O218    1.289   .     A
C188   C190    1.434   .     S
C190   C235    1.335   .     S
C190   H250    1.087   .     S
C191   C196    1.405   .     A
C191   N219    1.437   .     S
C192   N222    1.437   .     S
C192   C195    1.405   .     A
C192   C332    1.401   .     S
C193   N225    1.437   .     S
C193   C195    1.406   .     A
C193   C329    1.401   .     S
C194   C196    1.406   .     A
C194   N228    1.437   .     S
C197   H205    1.082   .     S
C197   N210    1.367   .     A
C197   C1027   1.417   1_554 S
C198   H206    1.082   .     S
C198   N209    1.367   .     A
C198   C614    1.417   .     S
C199   H207    1.082   .     S
C199   N209    1.367   .     A
C199   C611    1.417   .     S
C200   H208    1.082   .     S
C200   N210    1.367   .     A
C200   C1026   1.417   1_554 S
Cu201  N209    2.015   .     S
Cu201  Cu202   2.681   .     S
Cu201  O214    1.960   .     S
Cu201  O215    1.958   .     S
Cu201  O218    1.960   .     S
Cu201  O211    1.961   .     S
Cu202  O212    1.961   .     S
Cu202  N210    2.015   .     S
Cu202  O213    1.960   .     S
Cu202  O217    1.960   .     S
Cu202  O216    1.958   .     S
H203   C235    1.087   .     S
N219   H220    1.045   .     S
N219   H221    1.045   .     S
N222   H224    1.045   .     S
N222   H223    1.045   .     S
N225   H227    1.045   .     S
N225   H226    1.045   .     S
N228   H230    1.045   .     S
N228   H229    1.045   .     S
C231   O259    1.290   .     A
C231   C242    1.447   .     S
C231   O257    1.290   .     A
C232   O260    1.290   .     A
C232   C241    1.447   .     S
C232   O258    1.290   .     A
C233   O261    1.287   .     A
C233   O263    1.289   .     A
C233   C235    1.434   .     S
C234   O262    1.287   .     A
C234   O264    1.289   .     A
C234   C236    1.434   .     S
C236   C143    1.335   1_655 S
C236   H158    1.087   1_655 S
C237   C242    1.405   .     A
C237   N265    1.437   .     S
C238   N268    1.437   .     S
C238   C241    1.405   .     A
C238   C378    1.401   .     S
C239   N271    1.437   .     S
C239   C241    1.406   .     A
C239   C375    1.401   .     S
C240   C242    1.406   .     A
C240   N274    1.437   .     S
C243   H251    1.082   .     S
C243   N256    1.367   .     A
C243   C1073   1.417   1_554 S
C244   H252    1.082   .     S
C244   N255    1.367   .     A
C244   C660    1.417   .     S
C245   H253    1.082   .     S
C245   N255    1.367   .     A
C245   C657    1.417   .     S
C246   H254    1.082   .     S
C246   N256    1.367   .     A
C246   C1072   1.417   1_554 S
Cu247  N255    2.015   .     S
Cu247  Cu248   2.681   .     S
Cu247  O260    1.960   .     S
Cu247  O261    1.958   .     S
Cu247  O264    1.960   .     S
Cu247  O257    1.961   .     S
Cu248  O258    1.961   .     S
Cu248  N256    2.015   .     S
Cu248  O259    1.960   .     S
Cu248  O263    1.960   .     S
Cu248  O262    1.958   .     S
H249   C143    1.087   1_655 S
N265   H266    1.045   .     S
N265   H267    1.045   .     S
N268   H270    1.045   .     S
N268   H269    1.045   .     S
N271   H273    1.045   .     S
N271   H272    1.045   .     S
N274   H276    1.045   .     S
N274   H275    1.045   .     S
C277   O305    1.290   .     A
C277   C288    1.447   .     S
C277   O303    1.290   .     A
C278   O306    1.290   .     A
C278   C287    1.447   .     S
C278   O304    1.290   .     A
C279   O307    1.287   .     A
C279   O309    1.289   .     A
C279   C281    1.434   .     S
C280   O308    1.287   .     A
C280   O310    1.289   .     A
C280   C282    1.434   .     S
C281   C374    1.335   1_455 S
C281   H387    1.087   1_455 S
C282   C327    1.335   .     S
C282   H342    1.087   .     S
C283   C288    1.405   .     A
C283   N311    1.437   .     S
C284   N314    1.437   .     S
C284   C287    1.405   .     A
C284   C10     1.401   1_565 S
C285   N317    1.437   .     S
C285   C287    1.406   .     A
C285   C7      1.401   1_565 S
C286   C288    1.406   .     A
C286   N320    1.437   .     S
C289   H297    1.082   .     S
C289   N302    1.367   .     A
C289   C1119   1.417   1_554 S
C290   H298    1.082   .     S
C290   N301    1.367   .     A
C290   C706    1.417   .     S
C291   H299    1.082   .     S
C291   N301    1.367   .     A
C291   C703    1.417   .     S
C292   H300    1.082   .     S
C292   N302    1.367   .     A
C292   C1118   1.417   1_554 S
Cu293  N301    2.015   .     S
Cu293  Cu294   2.681   .     S
Cu293  O306    1.960   .     S
Cu293  O307    1.958   .     S
Cu293  O310    1.960   .     S
Cu293  O303    1.961   .     S
Cu294  O304    1.961   .     S
Cu294  N302    2.015   .     S
Cu294  O305    1.960   .     S
Cu294  O309    1.960   .     S
Cu294  O308    1.958   .     S
H295   C327    1.087   .     S
H296   C374    1.087   1_455 S
N311   H312    1.045   .     S
N311   H313    1.045   .     S
N314   H316    1.045   .     S
N314   H315    1.045   .     S
N317   H319    1.045   .     S
N317   H318    1.045   .     S
N320   H322    1.045   .     S
N320   H321    1.045   .     S
C323   O351    1.290   .     A
C323   C334    1.447   .     S
C323   O349    1.290   .     A
C324   O352    1.290   .     A
C324   C333    1.447   .     S
C324   O350    1.290   .     A
C325   O353    1.287   .     A
C325   O355    1.289   .     A
C325   C327    1.434   .     S
C326   O354    1.287   .     A
C326   O356    1.289   .     A
C326   C328    1.434   .     S
C328   C373    1.335   .     S
C328   H388    1.087   .     S
C329   C334    1.405   .     A
C329   N357    1.437   .     S
C330   N360    1.437   .     S
C330   C333    1.405   .     A
C330   C56     1.401   1_565 S
C331   N363    1.437   .     S
C331   C333    1.406   .     A
C331   C53     1.401   1_565 S
C332   C334    1.406   .     A
C332   N366    1.437   .     S
C335   H343    1.082   .     S
C335   N348    1.367   .     A
C335   C1165   1.417   1_554 S
C336   H344    1.082   .     S
C336   N347    1.367   .     A
C336   C752    1.417   .     S
C337   H345    1.082   .     S
C337   N347    1.367   .     A
C337   C749    1.417   .     S
C338   H346    1.082   .     S
C338   N348    1.367   .     A
C338   C1164   1.417   1_554 S
Cu339  N347    2.015   .     S
Cu339  Cu340   2.681   .     S
Cu339  O352    1.960   .     S
Cu339  O353    1.958   .     S
Cu339  O356    1.960   .     S
Cu339  O349    1.961   .     S
Cu340  O350    1.961   .     S
Cu340  N348    2.015   .     S
Cu340  O351    1.960   .     S
Cu340  O355    1.960   .     S
Cu340  O354    1.958   .     S
H341   C373    1.087   .     S
N357   H358    1.045   .     S
N357   H359    1.045   .     S
N360   H362    1.045   .     S
N360   H361    1.045   .     S
N363   H365    1.045   .     S
N363   H364    1.045   .     S
N366   H368    1.045   .     S
N366   H367    1.045   .     S
C369   O397    1.290   .     A
C369   C380    1.447   .     S
C369   O395    1.290   .     A
C370   O398    1.290   .     A
C370   C379    1.447   .     S
C370   O396    1.290   .     A
C371   O399    1.287   .     A
C371   O401    1.289   .     A
C371   C373    1.434   .     S
C372   O400    1.287   .     A
C372   O402    1.289   .     A
C372   C374    1.434   .     S
C374   C281    1.335   1_655 S
C374   H296    1.087   1_655 S
C375   C380    1.405   .     A
C375   N403    1.437   .     S
C376   N406    1.437   .     S
C376   C379    1.405   .     A
C376   C102    1.401   1_565 S
C377   N409    1.437   .     S
C377   C379    1.406   .     A
C377   C99     1.401   1_565 S
C378   C380    1.406   .     A
C378   N412    1.437   .     S
C381   H389    1.082   .     S
C381   N394    1.367   .     A
C381   C1211   1.417   1_554 S
C382   H390    1.082   .     S
C382   N393    1.367   .     A
C382   C798    1.417   .     S
C383   H391    1.082   .     S
C383   N393    1.367   .     A
C383   C795    1.417   .     S
C384   H392    1.082   .     S
C384   N394    1.367   .     A
C384   C1210   1.417   1_554 S
Cu385  N393    2.015   .     S
Cu385  Cu386   2.681   .     S
Cu385  O398    1.960   .     S
Cu385  O399    1.958   .     S
Cu385  O402    1.960   .     S
Cu385  O395    1.961   .     S
Cu386  O396    1.961   .     S
Cu386  N394    2.015   .     S
Cu386  O397    1.960   .     S
Cu386  O401    1.960   .     S
Cu386  O400    1.958   .     S
H387   C281    1.087   1_655 S
N403   H404    1.045   .     S
N403   H405    1.045   .     S
N406   H408    1.045   .     S
N406   H407    1.045   .     S
N409   H411    1.045   .     S
N409   H410    1.045   .     S
N412   H414    1.045   .     S
N412   H413    1.045   .     S
C415   O443    1.290   .     A
C415   C426    1.447   .     S
C415   O441    1.290   .     A
C416   O444    1.290   .     A
C416   C425    1.447   .     S
C416   O442    1.290   .     A
C417   O445    1.287   .     A
C417   O447    1.289   .     A
C417   C419    1.434   .     S
C418   O446    1.287   .     A
C418   O448    1.289   .     A
C418   C420    1.434   .     S
C419   C512    1.335   1_455 S
C419   H525    1.087   1_455 S
C420   C465    1.335   .     S
C420   H480    1.087   .     S
C421   C426    1.405   .     A
C421   N449    1.437   .     S
C421   C699    1.401   1_545 S
C422   N452    1.437   .     S
C422   C425    1.405   .     A
C422   C562    1.401   .     S
C423   N455    1.437   .     S
C423   C425    1.406   .     A
C423   C559    1.401   .     S
C424   C426    1.406   .     A
C424   N458    1.437   .     S
C424   C698    1.401   1_545 S
C427   H435    1.082   .     S
C427   N440    1.367   .     A
C428   H436    1.082   .     S
C428   N439    1.367   .     A
C428   C844    1.417   .     S
C429   H437    1.082   .     S
C429   N439    1.367   .     A
C429   C841    1.417   .     S
C430   H438    1.082   .     S
C430   N440    1.367   .     A
Cu431  N439    2.015   .     S
Cu431  Cu432   2.681   .     S
Cu431  O444    1.960   .     S
Cu431  O445    1.958   .     S
Cu431  O448    1.960   .     S
Cu431  O441    1.961   .     S
Cu432  O442    1.961   .     S
Cu432  N440    2.015   .     S
Cu432  O443    1.960   .     S
Cu432  O447    1.960   .     S
Cu432  O446    1.958   .     S
H433   C465    1.087   .     S
H434   C512    1.087   1_455 S
N449   H450    1.045   .     S
N449   H451    1.045   .     S
N452   H454    1.045   .     S
N452   H453    1.045   .     S
N455   H457    1.045   .     S
N455   H456    1.045   .     S
N458   H460    1.045   .     S
N458   H459    1.045   .     S
C461   O489    1.290   .     A
C461   C472    1.447   .     S
C461   O487    1.290   .     A
C462   O490    1.290   .     A
C462   C471    1.447   .     S
C462   O488    1.290   .     A
C463   O491    1.287   .     A
C463   O493    1.289   .     A
C463   C465    1.434   .     S
C464   O492    1.287   .     A
C464   O494    1.289   .     A
C464   C466    1.434   .     S
C466   C511    1.335   .     S
C466   H526    1.087   .     S
C467   C472    1.405   .     A
C467   N495    1.437   .     S
C467   C745    1.401   1_545 S
C468   N498    1.437   .     S
C468   C471    1.405   .     A
C468   C608    1.401   .     S
C469   N501    1.437   .     S
C469   C471    1.406   .     A
C469   C605    1.401   .     S
C470   C472    1.406   .     A
C470   N504    1.437   .     S
C470   C744    1.401   1_545 S
C473   H481    1.082   .     S
C473   N486    1.367   .     A
C474   H482    1.082   .     S
C474   N485    1.367   .     A
C474   C890    1.417   .     S
C475   H483    1.082   .     S
C475   N485    1.367   .     A
C475   C887    1.417   .     S
C476   H484    1.082   .     S
C476   N486    1.367   .     A
Cu477  N485    2.015   .     S
Cu477  Cu478   2.681   .     S
Cu477  O490    1.960   .     S
Cu477  O491    1.958   .     S
Cu477  O494    1.960   .     S
Cu477  O487    1.961   .     S
Cu478  O488    1.961   .     S
Cu478  N486    2.015   .     S
Cu478  O489    1.960   .     S
Cu478  O493    1.960   .     S
Cu478  O492    1.958   .     S
H479   C511    1.087   .     S
N495   H496    1.045   .     S
N495   H497    1.045   .     S
N498   H500    1.045   .     S
N498   H499    1.045   .     S
N501   H503    1.045   .     S
N501   H502    1.045   .     S
N504   H506    1.045   .     S
N504   H505    1.045   .     S
C507   O535    1.290   .     A
C507   C518    1.447   .     S
C507   O533    1.290   .     A
C508   O536    1.290   .     A
C508   C517    1.447   .     S
C508   O534    1.290   .     A
C509   O537    1.287   .     A
C509   O539    1.289   .     A
C509   C511    1.434   .     S
C510   O538    1.287   .     A
C510   O540    1.289   .     A
C510   C512    1.434   .     S
C512   C419    1.335   1_655 S
C512   H434    1.087   1_655 S
C513   C518    1.405   .     A
C513   N541    1.437   .     S
C513   C791    1.401   1_545 S
C514   N544    1.437   .     S
C514   C517    1.405   .     A
C514   C654    1.401   .     S
C515   N547    1.437   .     S
C515   C517    1.406   .     A
C515   C651    1.401   .     S
C516   C518    1.406   .     A
C516   N550    1.437   .     S
C516   C790    1.401   1_545 S
C519   H527    1.082   .     S
C519   N532    1.367   .     A
C520   H528    1.082   .     S
C520   N531    1.367   .     A
C520   C936    1.417   .     S
C521   H529    1.082   .     S
C521   N531    1.367   .     A
C521   C933    1.417   .     S
C522   H530    1.082   .     S
C522   N532    1.367   .     A
Cu523  N531    2.015   .     S
Cu523  Cu524   2.681   .     S
Cu523  O536    1.960   .     S
Cu523  O537    1.958   .     S
Cu523  O540    1.960   .     S
Cu523  O533    1.961   .     S
Cu524  O534    1.961   .     S
Cu524  N532    2.015   .     S
Cu524  O535    1.960   .     S
Cu524  O539    1.960   .     S
Cu524  O538    1.958   .     S
H525   C419    1.087   1_655 S
N541   H542    1.045   .     S
N541   H543    1.045   .     S
N544   H546    1.045   .     S
N544   H545    1.045   .     S
N547   H549    1.045   .     S
N547   H548    1.045   .     S
N550   H552    1.045   .     S
N550   H551    1.045   .     S
C553   O581    1.290   .     A
C553   C564    1.447   .     S
C553   O579    1.290   .     A
C554   O582    1.290   .     A
C554   C563    1.447   .     S
C554   O580    1.290   .     A
C555   O583    1.287   .     A
C555   O585    1.289   .     A
C555   C557    1.434   .     S
C556   O584    1.287   .     A
C556   O586    1.289   .     A
C556   C558    1.434   .     S
C557   C650    1.335   1_455 S
C557   H663    1.087   1_455 S
C558   C603    1.335   .     S
C558   H618    1.087   .     S
C559   C564    1.405   .     A
C559   N587    1.437   .     S
C560   N590    1.437   .     S
C560   C563    1.405   .     A
C560   C700    1.401   .     S
C561   N593    1.437   .     S
C561   C563    1.406   .     A
C561   C697    1.401   .     S
C562   C564    1.406   .     A
C562   N596    1.437   .     S
C565   H573    1.082   .     S
C565   N578    1.367   .     A
C566   H574    1.082   .     S
C566   N577    1.367   .     A
C566   C982    1.417   .     S
C567   H575    1.082   .     S
C567   N577    1.367   .     A
C567   C979    1.417   .     S
C568   H576    1.082   .     S
C568   N578    1.367   .     A
Cu569  N577    2.015   .     S
Cu569  Cu570   2.681   .     S
Cu569  O582    1.960   .     S
Cu569  O583    1.958   .     S
Cu569  O586    1.960   .     S
Cu569  O579    1.961   .     S
Cu570  O580    1.961   .     S
Cu570  N578    2.015   .     S
Cu570  O581    1.960   .     S
Cu570  O585    1.960   .     S
Cu570  O584    1.958   .     S
H571   C603    1.087   .     S
H572   C650    1.087   1_455 S
N587   H588    1.045   .     S
N587   H589    1.045   .     S
N590   H592    1.045   .     S
N590   H591    1.045   .     S
N593   H595    1.045   .     S
N593   H594    1.045   .     S
N596   H598    1.045   .     S
N596   H597    1.045   .     S
C599   O627    1.290   .     A
C599   C610    1.447   .     S
C599   O625    1.290   .     A
C600   O628    1.290   .     A
C600   C609    1.447   .     S
C600   O626    1.290   .     A
C601   O629    1.287   .     A
C601   O631    1.289   .     A
C601   C603    1.434   .     S
C602   O630    1.287   .     A
C602   O632    1.289   .     A
C602   C604    1.434   .     S
C604   C649    1.335   .     S
C604   H664    1.087   .     S
C605   C610    1.405   .     A
C605   N633    1.437   .     S
C606   N636    1.437   .     S
C606   C609    1.405   .     A
C606   C746    1.401   .     S
C607   N639    1.437   .     S
C607   C609    1.406   .     A
C607   C743    1.401   .     S
C608   C610    1.406   .     A
C608   N642    1.437   .     S
C611   H619    1.082   .     S
C611   N624    1.367   .     A
C612   H620    1.082   .     S
C612   N623    1.367   .     A
C612   C1028   1.417   .     S
C613   H621    1.082   .     S
C613   N623    1.367   .     A
C613   C1025   1.417   .     S
C614   H622    1.082   .     S
C614   N624    1.367   .     A
Cu615  N623    2.015   .     S
Cu615  Cu616   2.681   .     S
Cu615  O628    1.960   .     S
Cu615  O629    1.958   .     S
Cu615  O632    1.960   .     S
Cu615  O625    1.961   .     S
Cu616  O626    1.961   .     S
Cu616  N624    2.015   .     S
Cu616  O627    1.960   .     S
Cu616  O631    1.960   .     S
Cu616  O630    1.958   .     S
H617   C649    1.087   .     S
N633   H634    1.045   .     S
N633   H635    1.045   .     S
N636   H638    1.045   .     S
N636   H637    1.045   .     S
N639   H641    1.045   .     S
N639   H640    1.045   .     S
N642   H644    1.045   .     S
N642   H643    1.045   .     S
C645   O673    1.290   .     A
C645   C656    1.447   .     S
C645   O671    1.290   .     A
C646   O674    1.290   .     A
C646   C655    1.447   .     S
C646   O672    1.290   .     A
C647   O675    1.287   .     A
C647   O677    1.289   .     A
C647   C649    1.434   .     S
C648   O676    1.287   .     A
C648   O678    1.289   .     A
C648   C650    1.434   .     S
C650   C557    1.335   1_655 S
C650   H572    1.087   1_655 S
C651   C656    1.405   .     A
C651   N679    1.437   .     S
C652   N682    1.437   .     S
C652   C655    1.405   .     A
C652   C792    1.401   .     S
C653   N685    1.437   .     S
C653   C655    1.406   .     A
C653   C789    1.401   .     S
C654   C656    1.406   .     A
C654   N688    1.437   .     S
C657   H665    1.082   .     S
C657   N670    1.367   .     A
C658   H666    1.082   .     S
C658   N669    1.367   .     A
C658   C1074   1.417   .     S
C659   H667    1.082   .     S
C659   N669    1.367   .     A
C659   C1071   1.417   .     S
C660   H668    1.082   .     S
C660   N670    1.367   .     A
Cu661  N669    2.015   .     S
Cu661  Cu662   2.681   .     S
Cu661  O674    1.960   .     S
Cu661  O675    1.958   .     S
Cu661  O678    1.960   .     S
Cu661  O671    1.961   .     S
Cu662  O672    1.961   .     S
Cu662  N670    2.015   .     S
Cu662  O673    1.960   .     S
Cu662  O677    1.960   .     S
Cu662  O676    1.958   .     S
H663   C557    1.087   1_655 S
N679   H680    1.045   .     S
N679   H681    1.045   .     S
N682   H684    1.045   .     S
N682   H683    1.045   .     S
N685   H687    1.045   .     S
N685   H686    1.045   .     S
N688   H690    1.045   .     S
N688   H689    1.045   .     S
C691   O719    1.290   .     A
C691   C702    1.447   .     S
C691   O717    1.290   .     A
C692   O720    1.290   .     A
C692   C701    1.447   .     S
C692   O718    1.290   .     A
C693   O721    1.287   .     A
C693   O723    1.289   .     A
C693   C695    1.434   .     S
C694   O722    1.287   .     A
C694   O724    1.289   .     A
C694   C696    1.434   .     S
C695   C788    1.335   1_455 S
C695   H801    1.087   1_455 S
C696   C741    1.335   .     S
C696   H756    1.087   .     S
C697   C702    1.405   .     A
C697   N725    1.437   .     S
C698   N728    1.437   .     S
C698   C701    1.405   .     A
C698   C424    1.401   1_565 S
C699   N731    1.437   .     S
C699   C701    1.406   .     A
C699   C421    1.401   1_565 S
C700   C702    1.406   .     A
C700   N734    1.437   .     S
C703   H711    1.082   .     S
C703   N716    1.367   .     A
C704   H712    1.082   .     S
C704   N715    1.367   .     A
C704   C1120   1.417   .     S
C705   H713    1.082   .     S
C705   N715    1.367   .     A
C705   C1117   1.417   .     S
C706   H714    1.082   .     S
C706   N716    1.367   .     A
Cu707  N715    2.015   .     S
Cu707  Cu708   2.681   .     S
Cu707  O720    1.960   .     S
Cu707  O721    1.958   .     S
Cu707  O724    1.960   .     S
Cu707  O717    1.961   .     S
Cu708  O718    1.961   .     S
Cu708  N716    2.015   .     S
Cu708  O719    1.960   .     S
Cu708  O723    1.960   .     S
Cu708  O722    1.958   .     S
H709   C741    1.087   .     S
H710   C788    1.087   1_455 S
N725   H726    1.045   .     S
N725   H727    1.045   .     S
N728   H730    1.045   .     S
N728   H729    1.045   .     S
N731   H733    1.045   .     S
N731   H732    1.045   .     S
N734   H736    1.045   .     S
N734   H735    1.045   .     S
C737   O765    1.290   .     A
C737   C748    1.447   .     S
C737   O763    1.290   .     A
C738   O766    1.290   .     A
C738   C747    1.447   .     S
C738   O764    1.290   .     A
C739   O767    1.287   .     A
C739   O769    1.289   .     A
C739   C741    1.434   .     S
C740   O768    1.287   .     A
C740   O770    1.289   .     A
C740   C742    1.434   .     S
C742   C787    1.335   .     S
C742   H802    1.087   .     S
C743   C748    1.405   .     A
C743   N771    1.437   .     S
C744   N774    1.437   .     S
C744   C747    1.405   .     A
C744   C470    1.401   1_565 S
C745   N777    1.437   .     S
C745   C747    1.406   .     A
C745   C467    1.401   1_565 S
C746   C748    1.406   .     A
C746   N780    1.437   .     S
C749   H757    1.082   .     S
C749   N762    1.367   .     A
C750   H758    1.082   .     S
C750   N761    1.367   .     A
C750   C1166   1.417   .     S
C751   H759    1.082   .     S
C751   N761    1.367   .     A
C751   C1163   1.417   .     S
C752   H760    1.082   .     S
C752   N762    1.367   .     A
Cu753  N761    2.015   .     S
Cu753  Cu754   2.681   .     S
Cu753  O766    1.960   .     S
Cu753  O767    1.958   .     S
Cu753  O770    1.960   .     S
Cu753  O763    1.961   .     S
Cu754  O764    1.961   .     S
Cu754  N762    2.015   .     S
Cu754  O765    1.960   .     S
Cu754  O769    1.960   .     S
Cu754  O768    1.958   .     S
H755   C787    1.087   .     S
N771   H772    1.045   .     S
N771   H773    1.045   .     S
N774   H776    1.045   .     S
N774   H775    1.045   .     S
N777   H779    1.045   .     S
N777   H778    1.045   .     S
N780   H782    1.045   .     S
N780   H781    1.045   .     S
C783   O811    1.290   .     A
C783   C794    1.447   .     S
C783   O809    1.290   .     A
C784   O812    1.290   .     A
C784   C793    1.447   .     S
C784   O810    1.290   .     A
C785   O813    1.287   .     A
C785   O815    1.289   .     A
C785   C787    1.434   .     S
C786   O814    1.287   .     A
C786   O816    1.289   .     A
C786   C788    1.434   .     S
C788   C695    1.335   1_655 S
C788   H710    1.087   1_655 S
C789   C794    1.405   .     A
C789   N817    1.437   .     S
C790   N820    1.437   .     S
C790   C793    1.405   .     A
C790   C516    1.401   1_565 S
C791   N823    1.437   .     S
C791   C793    1.406   .     A
C791   C513    1.401   1_565 S
C792   C794    1.406   .     A
C792   N826    1.437   .     S
C795   H803    1.082   .     S
C795   N808    1.367   .     A
C796   H804    1.082   .     S
C796   N807    1.367   .     A
C796   C1212   1.417   .     S
C797   H805    1.082   .     S
C797   N807    1.367   .     A
C797   C1209   1.417   .     S
C798   H806    1.082   .     S
C798   N808    1.367   .     A
Cu799  N807    2.015   .     S
Cu799  Cu800   2.681   .     S
Cu799  O812    1.960   .     S
Cu799  O813    1.958   .     S
Cu799  O816    1.960   .     S
Cu799  O809    1.961   .     S
Cu800  O810    1.961   .     S
Cu800  N808    2.015   .     S
Cu800  O811    1.960   .     S
Cu800  O815    1.960   .     S
Cu800  O814    1.958   .     S
H801   C695    1.087   1_655 S
N817   H818    1.045   .     S
N817   H819    1.045   .     S
N820   H822    1.045   .     S
N820   H821    1.045   .     S
N823   H825    1.045   .     S
N823   H824    1.045   .     S
N826   H828    1.045   .     S
N826   H827    1.045   .     S
C829   O857    1.290   .     A
C829   C840    1.447   .     S
C829   O855    1.290   .     A
C830   O858    1.290   .     A
C830   C839    1.447   .     S
C830   O856    1.290   .     A
C831   O859    1.287   .     A
C831   O861    1.289   .     A
C831   C833    1.434   .     S
C832   O860    1.287   .     A
C832   O862    1.289   .     A
C832   C834    1.434   .     S
C833   C926    1.335   1_455 S
C833   H939    1.087   1_455 S
C834   C879    1.335   .     S
C834   H894    1.087   .     S
C835   C840    1.405   .     A
C835   N863    1.437   .     S
C835   C1113   1.401   1_545 S
C836   N866    1.437   .     S
C836   C839    1.405   .     A
C836   C976    1.401   .     S
C837   N869    1.437   .     S
C837   C839    1.406   .     A
C837   C973    1.401   .     S
C838   C840    1.406   .     A
C838   N872    1.437   .     S
C838   C1112   1.401   1_545 S
C841   H849    1.082   .     S
C841   N854    1.367   .     A
C842   H850    1.082   .     S
C842   N853    1.367   .     A
C842   C16     1.417   1_556 S
C843   H851    1.082   .     S
C843   N853    1.367   .     A
C843   C13     1.417   1_556 S
C844   H852    1.082   .     S
C844   N854    1.367   .     A
Cu845  N853    2.015   .     S
Cu845  Cu846   2.681   .     S
Cu845  O858    1.960   .     S
Cu845  O859    1.958   .     S
Cu845  O862    1.960   .     S
Cu845  O855    1.961   .     S
Cu846  O856    1.961   .     S
Cu846  N854    2.015   .     S
Cu846  O857    1.960   .     S
Cu846  O861    1.960   .     S
Cu846  O860    1.958   .     S
H847   C879    1.087   .     S
H848   C926    1.087   1_455 S
N863   H864    1.045   .     S
N863   H865    1.045   .     S
N866   H868    1.045   .     S
N866   H867    1.045   .     S
N869   H871    1.045   .     S
N869   H870    1.045   .     S
N872   H874    1.045   .     S
N872   H873    1.045   .     S
C875   O903    1.290   .     A
C875   C886    1.447   .     S
C875   O901    1.290   .     A
C876   O904    1.290   .     A
C876   C885    1.447   .     S
C876   O902    1.290   .     A
C877   O905    1.287   .     A
C877   O907    1.289   .     A
C877   C879    1.434   .     S
C878   O906    1.287   .     A
C878   O908    1.289   .     A
C878   C880    1.434   .     S
C880   C925    1.335   .     S
C880   H940    1.087   .     S
C881   C886    1.405   .     A
C881   N909    1.437   .     S
C881   C1159   1.401   1_545 S
C882   N912    1.437   .     S
C882   C885    1.405   .     A
C882   C1022   1.401   .     S
C883   N915    1.437   .     S
C883   C885    1.406   .     A
C883   C1019   1.401   .     S
C884   C886    1.406   .     A
C884   N918    1.437   .     S
C884   C1158   1.401   1_545 S
C887   H895    1.082   .     S
C887   N900    1.367   .     A
C888   H896    1.082   .     S
C888   N899    1.367   .     A
C888   C62     1.417   1_556 S
C889   H897    1.082   .     S
C889   N899    1.367   .     A
C889   C59     1.417   1_556 S
C890   H898    1.082   .     S
C890   N900    1.367   .     A
Cu891  N899    2.015   .     S
Cu891  Cu892   2.681   .     S
Cu891  O904    1.960   .     S
Cu891  O905    1.958   .     S
Cu891  O908    1.960   .     S
Cu891  O901    1.961   .     S
Cu892  O902    1.961   .     S
Cu892  N900    2.015   .     S
Cu892  O903    1.960   .     S
Cu892  O907    1.960   .     S
Cu892  O906    1.958   .     S
H893   C925    1.087   .     S
N909   H910    1.045   .     S
N909   H911    1.045   .     S
N912   H914    1.045   .     S
N912   H913    1.045   .     S
N915   H917    1.045   .     S
N915   H916    1.045   .     S
N918   H920    1.045   .     S
N918   H919    1.045   .     S
C921   O949    1.290   .     A
C921   C932    1.447   .     S
C921   O947    1.290   .     A
C922   O950    1.290   .     A
C922   C931    1.447   .     S
C922   O948    1.290   .     A
C923   O951    1.287   .     A
C923   O953    1.289   .     A
C923   C925    1.434   .     S
C924   O952    1.287   .     A
C924   O954    1.289   .     A
C924   C926    1.434   .     S
C926   C833    1.335   1_655 S
C926   H848    1.087   1_655 S
C927   C932    1.405   .     A
C927   N955    1.437   .     S
C927   C1205   1.401   1_545 S
C928   N958    1.437   .     S
C928   C931    1.405   .     A
C928   C1068   1.401   .     S
C929   N961    1.437   .     S
C929   C931    1.406   .     A
C929   C1065   1.401   .     S
C930   C932    1.406   .     A
C930   N964    1.437   .     S
C930   C1204   1.401   1_545 S
C933   H941    1.082   .     S
C933   N946    1.367   .     A
C934   H942    1.082   .     S
C934   N945    1.367   .     A
C934   C108    1.417   1_556 S
C935   H943    1.082   .     S
C935   N945    1.367   .     A
C935   C105    1.417   1_556 S
C936   H944    1.082   .     S
C936   N946    1.367   .     A
Cu937  N945    2.015   .     S
Cu937  Cu938   2.681   .     S
Cu937  O950    1.960   .     S
Cu937  O951    1.958   .     S
Cu937  O954    1.960   .     S
Cu937  O947    1.961   .     S
Cu938  O948    1.961   .     S
Cu938  N946    2.015   .     S
Cu938  O949    1.960   .     S
Cu938  O953    1.960   .     S
Cu938  O952    1.958   .     S
H939   C833    1.087   1_655 S
N955   H956    1.045   .     S
N955   H957    1.045   .     S
N958   H960    1.045   .     S
N958   H959    1.045   .     S
N961   H963    1.045   .     S
N961   H962    1.045   .     S
N964   H966    1.045   .     S
N964   H965    1.045   .     S
C967   O995    1.290   .     A
C967   C978    1.447   .     S
C967   O993    1.290   .     A
C968   O996    1.290   .     A
C968   C977    1.447   .     S
C968   O994    1.290   .     A
C969   O997    1.287   .     A
C969   O999    1.289   .     A
C969   C971    1.434   .     S
C970   O998    1.287   .     A
C970   O1000   1.289   .     A
C970   C972    1.434   .     S
C971   C1064   1.335   1_455 S
C971   H1077   1.087   1_455 S
C972   C1017   1.335   .     S
C972   H1032   1.087   .     S
C973   C978    1.405   .     A
C973   N1001   1.437   .     S
C974   N1004   1.437   .     S
C974   C977    1.405   .     A
C974   C1114   1.401   .     S
C975   N1007   1.437   .     S
C975   C977    1.406   .     A
C975   C1111   1.401   .     S
C976   C978    1.406   .     A
C976   N1010   1.437   .     S
C979   H987    1.082   .     S
C979   N992    1.367   .     A
C980   H988    1.082   .     S
C980   N991    1.367   .     A
C980   C154    1.417   1_556 S
C981   H989    1.082   .     S
C981   N991    1.367   .     A
C981   C151    1.417   1_556 S
C982   H990    1.082   .     S
C982   N992    1.367   .     A
Cu983  N991    2.015   .     S
Cu983  Cu984   2.681   .     S
Cu983  O996    1.960   .     S
Cu983  O997    1.958   .     S
Cu983  O1000   1.960   .     S
Cu983  O993    1.961   .     S
Cu984  O994    1.961   .     S
Cu984  N992    2.015   .     S
Cu984  O995    1.960   .     S
Cu984  O999    1.960   .     S
Cu984  O998    1.958   .     S
H985   C1017   1.087   .     S
H986   C1064   1.087   1_455 S
N1001  H1002   1.045   .     S
N1001  H1003   1.045   .     S
N1004  H1006   1.045   .     S
N1004  H1005   1.045   .     S
N1007  H1009   1.045   .     S
N1007  H1008   1.045   .     S
N1010  H1012   1.045   .     S
N1010  H1011   1.045   .     S
C1013  O1041   1.290   .     A
C1013  C1024   1.447   .     S
C1013  O1039   1.290   .     A
C1014  O1042   1.290   .     A
C1014  C1023   1.447   .     S
C1014  O1040   1.290   .     A
C1015  O1043   1.287   .     A
C1015  O1045   1.289   .     A
C1015  C1017   1.434   .     S
C1016  O1044   1.287   .     A
C1016  O1046   1.289   .     A
C1016  C1018   1.434   .     S
C1018  C1063   1.335   .     S
C1018  H1078   1.087   .     S
C1019  C1024   1.405   .     A
C1019  N1047   1.437   .     S
C1020  N1050   1.437   .     S
C1020  C1023   1.405   .     A
C1020  C1160   1.401   .     S
C1021  N1053   1.437   .     S
C1021  C1023   1.406   .     A
C1021  C1157   1.401   .     S
C1022  C1024   1.406   .     A
C1022  N1056   1.437   .     S
C1025  H1033   1.082   .     S
C1025  N1038   1.367   .     A
C1026  H1034   1.082   .     S
C1026  N1037   1.367   .     A
C1026  C200    1.417   1_556 S
C1027  H1035   1.082   .     S
C1027  N1037   1.367   .     A
C1027  C197    1.417   1_556 S
C1028  H1036   1.082   .     S
C1028  N1038   1.367   .     A
Cu1029 N1037   2.015   .     S
Cu1029 Cu1030  2.681   .     S
Cu1029 O1042   1.960   .     S
Cu1029 O1043   1.958   .     S
Cu1029 O1046   1.960   .     S
Cu1029 O1039   1.961   .     S
Cu1030 O1040   1.961   .     S
Cu1030 N1038   2.015   .     S
Cu1030 O1041   1.960   .     S
Cu1030 O1045   1.960   .     S
Cu1030 O1044   1.958   .     S
H1031  C1063   1.087   .     S
N1047  H1048   1.045   .     S
N1047  H1049   1.045   .     S
N1050  H1052   1.045   .     S
N1050  H1051   1.045   .     S
N1053  H1055   1.045   .     S
N1053  H1054   1.045   .     S
N1056  H1058   1.045   .     S
N1056  H1057   1.045   .     S
C1059  O1087   1.290   .     A
C1059  C1070   1.447   .     S
C1059  O1085   1.290   .     A
C1060  O1088   1.290   .     A
C1060  C1069   1.447   .     S
C1060  O1086   1.290   .     A
C1061  O1089   1.287   .     A
C1061  O1091   1.289   .     A
C1061  C1063   1.434   .     S
C1062  O1090   1.287   .     A
C1062  O1092   1.289   .     A
C1062  C1064   1.434   .     S
C1064  C971    1.335   1_655 S
C1064  H986    1.087   1_655 S
C1065  C1070   1.405   .     A
C1065  N1093   1.437   .     S
C1066  N1096   1.437   .     S
C1066  C1069   1.405   .     A
C1066  C1206   1.401   .     S
C1067  N1099   1.437   .     S
C1067  C1069   1.406   .     A
C1067  C1203   1.401   .     S
C1068  C1070   1.406   .     A
C1068  N1102   1.437   .     S
C1071  H1079   1.082   .     S
C1071  N1084   1.367   .     A
C1072  H1080   1.082   .     S
C1072  N1083   1.367   .     A
C1072  C246    1.417   1_556 S
C1073  H1081   1.082   .     S
C1073  N1083   1.367   .     A
C1073  C243    1.417   1_556 S
C1074  H1082   1.082   .     S
C1074  N1084   1.367   .     A
Cu1075 N1083   2.015   .     S
Cu1075 Cu1076  2.681   .     S
Cu1075 O1088   1.960   .     S
Cu1075 O1089   1.958   .     S
Cu1075 O1092   1.960   .     S
Cu1075 O1085   1.961   .     S
Cu1076 O1086   1.961   .     S
Cu1076 N1084   2.015   .     S
Cu1076 O1087   1.960   .     S
Cu1076 O1091   1.960   .     S
Cu1076 O1090   1.958   .     S
H1077  C971    1.087   1_655 S
N1093  H1094   1.045   .     S
N1093  H1095   1.045   .     S
N1096  H1098   1.045   .     S
N1096  H1097   1.045   .     S
N1099  H1101   1.045   .     S
N1099  H1100   1.045   .     S
N1102  H1104   1.045   .     S
N1102  H1103   1.045   .     S
C1105  O1133   1.290   .     A
C1105  C1116   1.447   .     S
C1105  O1131   1.290   .     A
C1106  O1134   1.290   .     A
C1106  C1115   1.447   .     S
C1106  O1132   1.290   .     A
C1107  O1135   1.287   .     A
C1107  O1137   1.289   .     A
C1107  C1109   1.434   .     S
C1108  O1136   1.287   .     A
C1108  O1138   1.289   .     A
C1108  C1110   1.434   .     S
C1109  C1202   1.335   1_455 S
C1109  H1215   1.087   1_455 S
C1110  C1155   1.335   .     S
C1110  H1170   1.087   .     S
C1111  C1116   1.405   .     A
C1111  N1139   1.437   .     S
C1112  N1142   1.437   .     S
C1112  C1115   1.405   .     A
C1112  C838    1.401   1_565 S
C1113  N1145   1.437   .     S
C1113  C1115   1.406   .     A
C1113  C835    1.401   1_565 S
C1114  C1116   1.406   .     A
C1114  N1148   1.437   .     S
C1117  H1125   1.082   .     S
C1117  N1130   1.367   .     A
C1118  H1126   1.082   .     S
C1118  N1129   1.367   .     A
C1118  C292    1.417   1_556 S
C1119  H1127   1.082   .     S
C1119  N1129   1.367   .     A
C1119  C289    1.417   1_556 S
C1120  H1128   1.082   .     S
C1120  N1130   1.367   .     A
Cu1121 N1129   2.015   .     S
Cu1121 Cu1122  2.681   .     S
Cu1121 O1134   1.960   .     S
Cu1121 O1135   1.958   .     S
Cu1121 O1138   1.960   .     S
Cu1121 O1131   1.961   .     S
Cu1122 O1132   1.961   .     S
Cu1122 N1130   2.015   .     S
Cu1122 O1133   1.960   .     S
Cu1122 O1137   1.960   .     S
Cu1122 O1136   1.958   .     S
H1123  C1155   1.087   .     S
H1124  C1202   1.087   1_455 S
N1139  H1140   1.045   .     S
N1139  H1141   1.045   .     S
N1142  H1144   1.045   .     S
N1142  H1143   1.045   .     S
N1145  H1147   1.045   .     S
N1145  H1146   1.045   .     S
N1148  H1150   1.045   .     S
N1148  H1149   1.045   .     S
C1151  O1179   1.290   .     A
C1151  C1162   1.447   .     S
C1151  O1177   1.290   .     A
C1152  O1180   1.290   .     A
C1152  C1161   1.447   .     S
C1152  O1178   1.290   .     A
C1153  O1181   1.287   .     A
C1153  O1183   1.289   .     A
C1153  C1155   1.434   .     S
C1154  O1182   1.287   .     A
C1154  O1184   1.289   .     A
C1154  C1156   1.434   .     S
C1156  C1201   1.335   .     S
C1156  H1216   1.087   .     S
C1157  C1162   1.405   .     A
C1157  N1185   1.437   .     S
C1158  N1188   1.437   .     S
C1158  C1161   1.405   .     A
C1158  C884    1.401   1_565 S
C1159  N1191   1.437   .     S
C1159  C1161   1.406   .     A
C1159  C881    1.401   1_565 S
C1160  C1162   1.406   .     A
C1160  N1194   1.437   .     S
C1163  H1171   1.082   .     S
C1163  N1176   1.367   .     A
C1164  H1172   1.082   .     S
C1164  N1175   1.367   .     A
C1164  C338    1.417   1_556 S
C1165  H1173   1.082   .     S
C1165  N1175   1.367   .     A
C1165  C335    1.417   1_556 S
C1166  H1174   1.082   .     S
C1166  N1176   1.367   .     A
Cu1167 N1175   2.015   .     S
Cu1167 Cu1168  2.681   .     S
Cu1167 O1180   1.960   .     S
Cu1167 O1181   1.958   .     S
Cu1167 O1184   1.960   .     S
Cu1167 O1177   1.961   .     S
Cu1168 O1178   1.961   .     S
Cu1168 N1176   2.015   .     S
Cu1168 O1179   1.960   .     S
Cu1168 O1183   1.960   .     S
Cu1168 O1182   1.958   .     S
H1169  C1201   1.087   .     S
N1185  H1186   1.045   .     S
N1185  H1187   1.045   .     S
N1188  H1190   1.045   .     S
N1188  H1189   1.045   .     S
N1191  H1193   1.045   .     S
N1191  H1192   1.045   .     S
N1194  H1196   1.045   .     S
N1194  H1195   1.045   .     S
C1197  O1225   1.290   .     A
C1197  C1208   1.447   .     S
C1197  O1223   1.290   .     A
C1198  O1226   1.290   .     A
C1198  C1207   1.447   .     S
C1198  O1224   1.290   .     A
C1199  O1227   1.287   .     A
C1199  O1229   1.289   .     A
C1199  C1201   1.434   .     S
C1200  O1228   1.287   .     A
C1200  O1230   1.289   .     A
C1200  C1202   1.434   .     S
C1202  C1109   1.335   1_655 S
C1202  H1124   1.087   1_655 S
C1203  C1208   1.405   .     A
C1203  N1231   1.437   .     S
C1204  N1234   1.437   .     S
C1204  C1207   1.405   .     A
C1204  C930    1.401   1_565 S
C1205  N1237   1.437   .     S
C1205  C1207   1.406   .     A
C1205  C927    1.401   1_565 S
C1206  C1208   1.406   .     A
C1206  N1240   1.437   .     S
C1209  H1217   1.082   .     S
C1209  N1222   1.367   .     A
C1210  H1218   1.082   .     S
C1210  N1221   1.367   .     A
C1210  C384    1.417   1_556 S
C1211  H1219   1.082   .     S
C1211  N1221   1.367   .     A
C1211  C381    1.417   1_556 S
C1212  H1220   1.082   .     S
C1212  N1222   1.367   .     A
Cu1213 N1221   2.015   .     S
Cu1213 Cu1214  2.681   .     S
Cu1213 O1226   1.960   .     S
Cu1213 O1227   1.958   .     S
Cu1213 O1230   1.960   .     S
Cu1213 O1223   1.961   .     S
Cu1214 O1224   1.961   .     S
Cu1214 N1222   2.015   .     S
Cu1214 O1225   1.960   .     S
Cu1214 O1229   1.960   .     S
Cu1214 O1228   1.958   .     S
H1215  C1109   1.087   1_655 S
N1231  H1232   1.045   .     S
N1231  H1233   1.045   .     S
N1234  H1236   1.045   .     S
N1234  H1235   1.045   .     S
N1237  H1239   1.045   .     S
N1237  H1238   1.045   .     S
N1240  H1242   1.045   .     S
N1240  H1241   1.045   .     S
