data_str_m2_o1_o16_pcu_sym.159
_audit_creation_date              2020-01-03
_audit_creation_method            'Materials Studio'
_symmetry_space_group_name_H-M    'P1'
_symmetry_Int_Tables_number       1
_symmetry_cell_setting            triclinic
loop_
_symmetry_equiv_pos_as_xyz
  x,y,z
_cell_length_a                    28.5913
_cell_length_b                    32.4136
_cell_length_c                    26.8348
_cell_angle_alpha                 90.1419
_cell_angle_beta                  73.1798
_cell_angle_gamma                 90.2555
loop_
_atom_site_label
_atom_site_type_symbol
_atom_site_fract_x
_atom_site_fract_y
_atom_site_fract_z
_atom_site_U_iso_or_equiv
_atom_site_adp_type
_atom_site_occupancy
C1     C     0.16675   0.24593   0.24994   0.00000  Uiso   1.00
C2     C     0.14793   0.18799   0.48736   0.00000  Uiso   1.00
C3     C     0.16335   0.19049   0.43224   0.00000  Uiso   1.00
C4     C     0.18350   0.18044   0.01393   0.00000  Uiso   1.00
C5     C     0.23338   0.17708   0.48504   0.00000  Uiso   1.00
C6     C     0.24820   0.18782   0.43266   0.00000  Uiso   1.00
C7     C     0.21365   0.19828   0.40764   0.00000  Uiso   1.00
C8     C     0.17114   0.17516   0.06803   0.00000  Uiso   1.00
C9     C     0.25562   0.16201   0.06349   0.00000  Uiso   1.00
C10    C     0.12774   0.18527   0.40473   0.00000  Uiso   1.00
C11    C     0.20689   0.31270   0.21779   0.00000  Uiso   1.00
C12    C     0.14127   0.17277   0.34917   0.00000  Uiso   1.00
C13    C     0.20675   0.02213   0.21883   0.00000  Uiso   1.00
C14    C     0.16643   0.04312   0.25021   0.00000  Uiso   1.00
C15    C     0.12616   0.02181   0.28150   0.00000  Uiso   1.00
C16    C     0.12625   0.31233   0.28237   0.00000  Uiso   1.00
C17    C     0.16672   0.29077   0.25014   0.00000  Uiso   1.00
C18    C     0.31859   0.18835   0.21345   0.00000  Uiso   1.00
C19    C     0.03479   0.18845   0.21353   0.00000  Uiso   1.00
C20    C     0.01478   0.14489   0.28648   0.00000  Uiso   1.00
C21    C     0.29855   0.14488   0.28646   0.00000  Uiso   1.00
C22    C     0.16652   0.08751   0.25019   0.00000  Uiso   1.00
C23    C     0.19257   0.16630   0.14998   0.00000  Uiso   1.00
C24    C     0.26847   0.16602   0.00962   0.00000  Uiso   1.00
C25    C     0.20701   0.16759   0.09300   0.00000  Uiso   1.00
C26    C     0.07819   0.19029   0.43187   0.00000  Uiso   1.00
C27    C     0.06399   0.19697   0.48535   0.00000  Uiso   1.00
C28    C     0.09778   0.19370   0.01331   0.00000  Uiso   1.00
Cu29   Cu    0.11978   0.16666   0.25000   0.00000  Uiso   1.00
Cu30   Cu    0.21355   0.16667   0.25000   0.00000  Uiso   1.00
H31    H     0.28363   0.15487   0.08198   0.00000  Uiso   1.00
H32    H     0.23742   0.03920   0.19402   0.00000  Uiso   1.00
H33    H     0.09530   0.03863   0.30613   0.00000  Uiso   1.00
H34    H     0.30807   0.20549   0.18400   0.00000  Uiso   1.00
H35    H     0.06140   0.20600   0.18432   0.00000  Uiso   1.00
H36    H     0.02540   0.12737   0.31568   0.00000  Uiso   1.00
H37    H     0.27192   0.12735   0.31567   0.00000  Uiso   1.00
H38    H     0.28683   0.19124   0.41241   0.00000  Uiso   1.00
H39    H     0.30587   0.16089   0.48690   0.00000  Uiso   1.00
H40    H     0.13380   0.17723   0.09172   0.00000  Uiso   1.00
H41    H     0.05037   0.18931   0.41175   0.00000  Uiso   1.00
H42    H     0.08358   0.19691   0.05492   0.00000  Uiso   1.00
H43    H     0.02632   0.20335   0.00590   0.00000  Uiso   1.00
N44    N     0.04931   0.16666   0.24998   0.00000  Uiso   1.00
N45    N     0.28402   0.16669   0.24999   0.00000  Uiso   1.00
O46    O     0.12708   0.22678   0.25000   0.00000  Uiso   1.00
O47    O     0.20627   0.22679   0.25000   0.00000  Uiso   1.00
O48    O     0.10775   0.16665   0.32549   0.00000  Uiso   1.00
O49    O     0.18694   0.16666   0.32549   0.00000  Uiso   1.00
O50    O     0.12706   0.10654   0.24999   0.00000  Uiso   1.00
O51    O     0.20625   0.10655   0.24999   0.00000  Uiso   1.00
O52    O     0.14640   0.16667   0.17451   0.00000  Uiso   1.00
O53    O     0.22559   0.16668   0.17451   0.00000  Uiso   1.00
C54    C     0.08516   0.29145   0.31784   0.00000  Uiso   1.00
N55    N     0.05230   0.27473   0.34622   0.00000  Uiso   1.00
C56    C     0.22970   0.22668   0.36459   0.00000  Uiso   1.00
N57    N     0.24318   0.24998   0.33083   0.00000  Uiso   1.00
C58    C     0.24742   0.29240   0.18107   0.00000  Uiso   1.00
N59    N     0.27986   0.27640   0.15136   0.00000  Uiso   1.00
C60    C     0.50009   0.24593   0.24994   0.00000  Uiso   1.00
C61    C     0.48126   0.18799   0.48736   0.00000  Uiso   1.00
C62    C     0.49669   0.19049   0.43224   0.00000  Uiso   1.00
C63    C     0.51683   0.18044   0.01393   0.00000  Uiso   1.00
C64    C     0.56672   0.17708   0.48504   0.00000  Uiso   1.00
C65    C     0.58154   0.18782   0.43266   0.00000  Uiso   1.00
C66    C     0.54698   0.19828   0.40764   0.00000  Uiso   1.00
C67    C     0.50447   0.17516   0.06803   0.00000  Uiso   1.00
C68    C     0.58896   0.16201   0.06349   0.00000  Uiso   1.00
C69    C     0.46107   0.18527   0.40473   0.00000  Uiso   1.00
C70    C     0.54022   0.31270   0.21779   0.00000  Uiso   1.00
C71    C     0.47461   0.17277   0.34917   0.00000  Uiso   1.00
C72    C     0.54008   0.02213   0.21883   0.00000  Uiso   1.00
C73    C     0.49976   0.04312   0.25021   0.00000  Uiso   1.00
C74    C     0.45950   0.02181   0.28150   0.00000  Uiso   1.00
C75    C     0.45959   0.31233   0.28237   0.00000  Uiso   1.00
C76    C     0.50005   0.29077   0.25014   0.00000  Uiso   1.00
C77    C     0.65192   0.18835   0.21345   0.00000  Uiso   1.00
C78    C     0.36812   0.18845   0.21353   0.00000  Uiso   1.00
C79    C     0.34811   0.14489   0.28648   0.00000  Uiso   1.00
C80    C     0.63188   0.14488   0.28646   0.00000  Uiso   1.00
C81    C     0.49986   0.08751   0.25019   0.00000  Uiso   1.00
C82    C     0.52590   0.16630   0.14998   0.00000  Uiso   1.00
C83    C     0.60180   0.16602   0.00962   0.00000  Uiso   1.00
C84    C     0.54034   0.16759   0.09300   0.00000  Uiso   1.00
C85    C     0.41152   0.19029   0.43187   0.00000  Uiso   1.00
C86    C     0.39733   0.19697   0.48535   0.00000  Uiso   1.00
C87    C     0.43112   0.19370   0.01331   0.00000  Uiso   1.00
Cu88   Cu    0.45311   0.16666   0.25000   0.00000  Uiso   1.00
Cu89   Cu    0.54689   0.16667   0.25000   0.00000  Uiso   1.00
H90    H     0.61697   0.15487   0.08198   0.00000  Uiso   1.00
H91    H     0.57075   0.03920   0.19402   0.00000  Uiso   1.00
H92    H     0.42863   0.03863   0.30613   0.00000  Uiso   1.00
H93    H     0.64141   0.20549   0.18400   0.00000  Uiso   1.00
H94    H     0.39473   0.20600   0.18432   0.00000  Uiso   1.00
H95    H     0.35873   0.12737   0.31568   0.00000  Uiso   1.00
H96    H     0.60526   0.12735   0.31567   0.00000  Uiso   1.00
H97    H     0.62017   0.19124   0.41241   0.00000  Uiso   1.00
H98    H     0.63920   0.16089   0.48690   0.00000  Uiso   1.00
H99    H     0.46713   0.17723   0.09172   0.00000  Uiso   1.00
H100   H     0.38371   0.18931   0.41175   0.00000  Uiso   1.00
H101   H     0.41692   0.19691   0.05492   0.00000  Uiso   1.00
H102   H     0.35965   0.20335   0.00590   0.00000  Uiso   1.00
N103   N     0.38265   0.16666   0.24998   0.00000  Uiso   1.00
N104   N     0.61735   0.16669   0.24999   0.00000  Uiso   1.00
O105   O     0.46042   0.22678   0.25000   0.00000  Uiso   1.00
O106   O     0.53961   0.22679   0.25000   0.00000  Uiso   1.00
O107   O     0.44108   0.16665   0.32549   0.00000  Uiso   1.00
O108   O     0.52027   0.16666   0.32549   0.00000  Uiso   1.00
O109   O     0.46039   0.10654   0.24999   0.00000  Uiso   1.00
O110   O     0.53958   0.10655   0.24999   0.00000  Uiso   1.00
O111   O     0.47973   0.16667   0.17451   0.00000  Uiso   1.00
O112   O     0.55892   0.16668   0.17451   0.00000  Uiso   1.00
C113   C     0.41849   0.29145   0.31784   0.00000  Uiso   1.00
N114   N     0.38563   0.27473   0.34622   0.00000  Uiso   1.00
C115   C     0.56304   0.22668   0.36459   0.00000  Uiso   1.00
N116   N     0.57652   0.24998   0.33083   0.00000  Uiso   1.00
C117   C     0.58075   0.29240   0.18107   0.00000  Uiso   1.00
N118   N     0.61319   0.27640   0.15136   0.00000  Uiso   1.00
C119   C     0.83342   0.24593   0.24994   0.00000  Uiso   1.00
C120   C     0.81460   0.18799   0.48736   0.00000  Uiso   1.00
C121   C     0.83002   0.19049   0.43224   0.00000  Uiso   1.00
C122   C     0.85016   0.18044   0.01393   0.00000  Uiso   1.00
C123   C     0.90005   0.17708   0.48504   0.00000  Uiso   1.00
C124   C     0.91487   0.18782   0.43266   0.00000  Uiso   1.00
C125   C     0.88031   0.19828   0.40764   0.00000  Uiso   1.00
C126   C     0.83780   0.17516   0.06803   0.00000  Uiso   1.00
C127   C     0.92229   0.16201   0.06349   0.00000  Uiso   1.00
C128   C     0.79441   0.18527   0.40473   0.00000  Uiso   1.00
C129   C     0.87356   0.31270   0.21779   0.00000  Uiso   1.00
C130   C     0.80794   0.17277   0.34917   0.00000  Uiso   1.00
C131   C     0.87341   0.02213   0.21883   0.00000  Uiso   1.00
C132   C     0.83310   0.04312   0.25021   0.00000  Uiso   1.00
C133   C     0.79283   0.02181   0.28150   0.00000  Uiso   1.00
C134   C     0.79292   0.31233   0.28237   0.00000  Uiso   1.00
C135   C     0.83339   0.29077   0.25014   0.00000  Uiso   1.00
C136   C     0.98526   0.18835   0.21345   0.00000  Uiso   1.00
C137   C     0.70146   0.18845   0.21353   0.00000  Uiso   1.00
C138   C     0.68144   0.14489   0.28648   0.00000  Uiso   1.00
C139   C     0.96521   0.14488   0.28646   0.00000  Uiso   1.00
C140   C     0.83319   0.08751   0.25019   0.00000  Uiso   1.00
C141   C     0.85923   0.16630   0.14998   0.00000  Uiso   1.00
C142   C     0.93514   0.16602   0.00962   0.00000  Uiso   1.00
C143   C     0.87367   0.16759   0.09300   0.00000  Uiso   1.00
C144   C     0.74485   0.19029   0.43187   0.00000  Uiso   1.00
C145   C     0.73066   0.19697   0.48535   0.00000  Uiso   1.00
C146   C     0.76445   0.19370   0.01331   0.00000  Uiso   1.00
Cu147  Cu    0.78645   0.16666   0.25000   0.00000  Uiso   1.00
Cu148  Cu    0.88022   0.16667   0.25000   0.00000  Uiso   1.00
H149   H     0.95030   0.15487   0.08198   0.00000  Uiso   1.00
H150   H     0.90409   0.03920   0.19402   0.00000  Uiso   1.00
H151   H     0.76196   0.03863   0.30613   0.00000  Uiso   1.00
H152   H     0.97474   0.20549   0.18400   0.00000  Uiso   1.00
H153   H     0.72807   0.20600   0.18432   0.00000  Uiso   1.00
H154   H     0.69206   0.12737   0.31568   0.00000  Uiso   1.00
H155   H     0.93859   0.12735   0.31567   0.00000  Uiso   1.00
H156   H     0.95350   0.19124   0.41241   0.00000  Uiso   1.00
H157   H     0.97254   0.16089   0.48690   0.00000  Uiso   1.00
H158   H     0.80046   0.17723   0.09172   0.00000  Uiso   1.00
H159   H     0.71704   0.18931   0.41175   0.00000  Uiso   1.00
H160   H     0.75025   0.19691   0.05492   0.00000  Uiso   1.00
H161   H     0.69299   0.20335   0.00590   0.00000  Uiso   1.00
N162   N     0.71598   0.16666   0.24998   0.00000  Uiso   1.00
N163   N     0.95069   0.16669   0.24999   0.00000  Uiso   1.00
O164   O     0.79375   0.22678   0.25000   0.00000  Uiso   1.00
O165   O     0.87294   0.22679   0.25000   0.00000  Uiso   1.00
O166   O     0.77441   0.16665   0.32549   0.00000  Uiso   1.00
O167   O     0.85360   0.16666   0.32549   0.00000  Uiso   1.00
O168   O     0.79373   0.10654   0.24999   0.00000  Uiso   1.00
O169   O     0.87292   0.10655   0.24999   0.00000  Uiso   1.00
O170   O     0.81306   0.16667   0.17451   0.00000  Uiso   1.00
O171   O     0.89225   0.16668   0.17451   0.00000  Uiso   1.00
C172   C     0.75182   0.29145   0.31784   0.00000  Uiso   1.00
N173   N     0.71896   0.27473   0.34622   0.00000  Uiso   1.00
C174   C     0.89637   0.22668   0.36459   0.00000  Uiso   1.00
N175   N     0.90985   0.24998   0.33083   0.00000  Uiso   1.00
C176   C     0.91409   0.29240   0.18107   0.00000  Uiso   1.00
N177   N     0.94652   0.27640   0.15136   0.00000  Uiso   1.00
C178   C     0.16675   0.57926   0.24994   0.00000  Uiso   1.00
C179   C     0.14793   0.52132   0.48736   0.00000  Uiso   1.00
C180   C     0.16335   0.52382   0.43224   0.00000  Uiso   1.00
C181   C     0.18350   0.51378   0.01393   0.00000  Uiso   1.00
C182   C     0.23338   0.51041   0.48504   0.00000  Uiso   1.00
C183   C     0.24820   0.52116   0.43266   0.00000  Uiso   1.00
C184   C     0.21365   0.53162   0.40764   0.00000  Uiso   1.00
C185   C     0.17114   0.50850   0.06803   0.00000  Uiso   1.00
C186   C     0.25562   0.49535   0.06349   0.00000  Uiso   1.00
C187   C     0.12774   0.51860   0.40473   0.00000  Uiso   1.00
C188   C     0.20689   0.64603   0.21779   0.00000  Uiso   1.00
C189   C     0.14127   0.50610   0.34917   0.00000  Uiso   1.00
C190   C     0.20675   0.35547   0.21883   0.00000  Uiso   1.00
C191   C     0.16643   0.37645   0.25021   0.00000  Uiso   1.00
C192   C     0.12616   0.35514   0.28150   0.00000  Uiso   1.00
C193   C     0.12625   0.64566   0.28237   0.00000  Uiso   1.00
C194   C     0.16672   0.62410   0.25014   0.00000  Uiso   1.00
C195   C     0.31859   0.52168   0.21345   0.00000  Uiso   1.00
C196   C     0.03479   0.52179   0.21353   0.00000  Uiso   1.00
C197   C     0.01478   0.47823   0.28648   0.00000  Uiso   1.00
C198   C     0.29855   0.47822   0.28646   0.00000  Uiso   1.00
C199   C     0.16652   0.42084   0.25019   0.00000  Uiso   1.00
C200   C     0.19257   0.49964   0.14998   0.00000  Uiso   1.00
C201   C     0.26847   0.49936   0.00962   0.00000  Uiso   1.00
C202   C     0.20701   0.50093   0.09300   0.00000  Uiso   1.00
C203   C     0.07819   0.52363   0.43187   0.00000  Uiso   1.00
C204   C     0.06399   0.53030   0.48535   0.00000  Uiso   1.00
C205   C     0.09778   0.52703   0.01331   0.00000  Uiso   1.00
Cu206  Cu    0.11978   0.49999   0.25000   0.00000  Uiso   1.00
Cu207  Cu    0.21355   0.50001   0.25000   0.00000  Uiso   1.00
H208   H     0.28363   0.48820   0.08198   0.00000  Uiso   1.00
H209   H     0.23742   0.37254   0.19402   0.00000  Uiso   1.00
H210   H     0.09530   0.37196   0.30613   0.00000  Uiso   1.00
H211   H     0.30807   0.53883   0.18400   0.00000  Uiso   1.00
H212   H     0.06140   0.53934   0.18432   0.00000  Uiso   1.00
H213   H     0.02540   0.46071   0.31568   0.00000  Uiso   1.00
H214   H     0.27192   0.46069   0.31567   0.00000  Uiso   1.00
H215   H     0.28683   0.52457   0.41241   0.00000  Uiso   1.00
H216   H     0.30587   0.49422   0.48690   0.00000  Uiso   1.00
H217   H     0.13380   0.51056   0.09172   0.00000  Uiso   1.00
H218   H     0.05037   0.52265   0.41175   0.00000  Uiso   1.00
H219   H     0.08358   0.53024   0.05492   0.00000  Uiso   1.00
H220   H     0.02632   0.53669   0.00590   0.00000  Uiso   1.00
N221   N     0.04931   0.49999   0.24998   0.00000  Uiso   1.00
N222   N     0.28402   0.50002   0.24999   0.00000  Uiso   1.00
O223   O     0.12708   0.56011   0.25000   0.00000  Uiso   1.00
O224   O     0.20627   0.56012   0.25000   0.00000  Uiso   1.00
O225   O     0.10775   0.49998   0.32549   0.00000  Uiso   1.00
O226   O     0.18694   0.49999   0.32549   0.00000  Uiso   1.00
O227   O     0.12706   0.43988   0.24999   0.00000  Uiso   1.00
O228   O     0.20625   0.43989   0.24999   0.00000  Uiso   1.00
O229   O     0.14640   0.50001   0.17451   0.00000  Uiso   1.00
O230   O     0.22559   0.50002   0.17451   0.00000  Uiso   1.00
C231   C     0.08516   0.62478   0.31784   0.00000  Uiso   1.00
N232   N     0.05230   0.60806   0.34622   0.00000  Uiso   1.00
C233   C     0.22970   0.56002   0.36459   0.00000  Uiso   1.00
N234   N     0.24318   0.58332   0.33083   0.00000  Uiso   1.00
C235   C     0.24742   0.62574   0.18107   0.00000  Uiso   1.00
N236   N     0.27986   0.60974   0.15136   0.00000  Uiso   1.00
C237   C     0.50009   0.57926   0.24994   0.00000  Uiso   1.00
C238   C     0.48126   0.52132   0.48736   0.00000  Uiso   1.00
C239   C     0.49669   0.52382   0.43224   0.00000  Uiso   1.00
C240   C     0.51683   0.51378   0.01393   0.00000  Uiso   1.00
C241   C     0.56672   0.51041   0.48504   0.00000  Uiso   1.00
C242   C     0.58154   0.52116   0.43266   0.00000  Uiso   1.00
C243   C     0.54698   0.53162   0.40764   0.00000  Uiso   1.00
C244   C     0.50447   0.50850   0.06803   0.00000  Uiso   1.00
C245   C     0.58896   0.49535   0.06349   0.00000  Uiso   1.00
C246   C     0.46107   0.51860   0.40473   0.00000  Uiso   1.00
C247   C     0.54022   0.64603   0.21779   0.00000  Uiso   1.00
C248   C     0.47461   0.50610   0.34917   0.00000  Uiso   1.00
C249   C     0.54008   0.35547   0.21883   0.00000  Uiso   1.00
C250   C     0.49976   0.37645   0.25021   0.00000  Uiso   1.00
C251   C     0.45950   0.35514   0.28150   0.00000  Uiso   1.00
C252   C     0.45959   0.64566   0.28237   0.00000  Uiso   1.00
C253   C     0.50005   0.62410   0.25014   0.00000  Uiso   1.00
C254   C     0.65192   0.52168   0.21345   0.00000  Uiso   1.00
C255   C     0.36812   0.52179   0.21353   0.00000  Uiso   1.00
C256   C     0.34811   0.47823   0.28648   0.00000  Uiso   1.00
C257   C     0.63188   0.47822   0.28646   0.00000  Uiso   1.00
C258   C     0.49986   0.42084   0.25019   0.00000  Uiso   1.00
C259   C     0.52590   0.49964   0.14998   0.00000  Uiso   1.00
C260   C     0.60180   0.49936   0.00962   0.00000  Uiso   1.00
C261   C     0.54034   0.50093   0.09300   0.00000  Uiso   1.00
C262   C     0.41152   0.52363   0.43187   0.00000  Uiso   1.00
C263   C     0.39733   0.53030   0.48535   0.00000  Uiso   1.00
C264   C     0.43112   0.52703   0.01331   0.00000  Uiso   1.00
Cu265  Cu    0.45311   0.49999   0.25000   0.00000  Uiso   1.00
Cu266  Cu    0.54689   0.50001   0.25000   0.00000  Uiso   1.00
H267   H     0.61697   0.48820   0.08198   0.00000  Uiso   1.00
H268   H     0.57075   0.37254   0.19402   0.00000  Uiso   1.00
H269   H     0.42863   0.37196   0.30613   0.00000  Uiso   1.00
H270   H     0.64141   0.53883   0.18400   0.00000  Uiso   1.00
H271   H     0.39473   0.53934   0.18432   0.00000  Uiso   1.00
H272   H     0.35873   0.46071   0.31568   0.00000  Uiso   1.00
H273   H     0.60526   0.46069   0.31567   0.00000  Uiso   1.00
H274   H     0.62017   0.52457   0.41241   0.00000  Uiso   1.00
H275   H     0.63920   0.49422   0.48690   0.00000  Uiso   1.00
H276   H     0.46713   0.51056   0.09172   0.00000  Uiso   1.00
H277   H     0.38371   0.52265   0.41175   0.00000  Uiso   1.00
H278   H     0.41692   0.53024   0.05492   0.00000  Uiso   1.00
H279   H     0.35965   0.53669   0.00590   0.00000  Uiso   1.00
N280   N     0.38265   0.49999   0.24998   0.00000  Uiso   1.00
N281   N     0.61735   0.50002   0.24999   0.00000  Uiso   1.00
O282   O     0.46042   0.56011   0.25000   0.00000  Uiso   1.00
O283   O     0.53961   0.56012   0.25000   0.00000  Uiso   1.00
O284   O     0.44108   0.49998   0.32549   0.00000  Uiso   1.00
O285   O     0.52027   0.49999   0.32549   0.00000  Uiso   1.00
O286   O     0.46039   0.43988   0.24999   0.00000  Uiso   1.00
O287   O     0.53958   0.43989   0.24999   0.00000  Uiso   1.00
O288   O     0.47973   0.50001   0.17451   0.00000  Uiso   1.00
O289   O     0.55892   0.50002   0.17451   0.00000  Uiso   1.00
C290   C     0.41849   0.62478   0.31784   0.00000  Uiso   1.00
N291   N     0.38563   0.60806   0.34622   0.00000  Uiso   1.00
C292   C     0.56304   0.56002   0.36459   0.00000  Uiso   1.00
N293   N     0.57652   0.58332   0.33083   0.00000  Uiso   1.00
C294   C     0.58075   0.62574   0.18107   0.00000  Uiso   1.00
N295   N     0.61319   0.60974   0.15136   0.00000  Uiso   1.00
C296   C     0.83342   0.57926   0.24994   0.00000  Uiso   1.00
C297   C     0.81460   0.52132   0.48736   0.00000  Uiso   1.00
C298   C     0.83002   0.52382   0.43224   0.00000  Uiso   1.00
C299   C     0.85016   0.51378   0.01393   0.00000  Uiso   1.00
C300   C     0.90005   0.51041   0.48504   0.00000  Uiso   1.00
C301   C     0.91487   0.52116   0.43266   0.00000  Uiso   1.00
C302   C     0.88031   0.53162   0.40764   0.00000  Uiso   1.00
C303   C     0.83780   0.50850   0.06803   0.00000  Uiso   1.00
C304   C     0.92229   0.49535   0.06349   0.00000  Uiso   1.00
C305   C     0.79441   0.51860   0.40473   0.00000  Uiso   1.00
C306   C     0.87356   0.64603   0.21779   0.00000  Uiso   1.00
C307   C     0.80794   0.50610   0.34917   0.00000  Uiso   1.00
C308   C     0.87341   0.35547   0.21883   0.00000  Uiso   1.00
C309   C     0.83310   0.37645   0.25021   0.00000  Uiso   1.00
C310   C     0.79283   0.35514   0.28150   0.00000  Uiso   1.00
C311   C     0.79292   0.64566   0.28237   0.00000  Uiso   1.00
C312   C     0.83339   0.62410   0.25014   0.00000  Uiso   1.00
C313   C     0.98526   0.52168   0.21345   0.00000  Uiso   1.00
C314   C     0.70146   0.52179   0.21353   0.00000  Uiso   1.00
C315   C     0.68144   0.47823   0.28648   0.00000  Uiso   1.00
C316   C     0.96521   0.47822   0.28646   0.00000  Uiso   1.00
C317   C     0.83319   0.42084   0.25019   0.00000  Uiso   1.00
C318   C     0.85923   0.49964   0.14998   0.00000  Uiso   1.00
C319   C     0.93514   0.49936   0.00962   0.00000  Uiso   1.00
C320   C     0.87367   0.50093   0.09300   0.00000  Uiso   1.00
C321   C     0.74485   0.52363   0.43187   0.00000  Uiso   1.00
C322   C     0.73066   0.53030   0.48535   0.00000  Uiso   1.00
C323   C     0.76445   0.52703   0.01331   0.00000  Uiso   1.00
Cu324  Cu    0.78645   0.49999   0.25000   0.00000  Uiso   1.00
Cu325  Cu    0.88022   0.50001   0.25000   0.00000  Uiso   1.00
H326   H     0.95030   0.48820   0.08198   0.00000  Uiso   1.00
H327   H     0.90409   0.37254   0.19402   0.00000  Uiso   1.00
H328   H     0.76196   0.37196   0.30613   0.00000  Uiso   1.00
H329   H     0.97474   0.53883   0.18400   0.00000  Uiso   1.00
H330   H     0.72807   0.53934   0.18432   0.00000  Uiso   1.00
H331   H     0.69206   0.46071   0.31568   0.00000  Uiso   1.00
H332   H     0.93859   0.46069   0.31567   0.00000  Uiso   1.00
H333   H     0.95350   0.52457   0.41241   0.00000  Uiso   1.00
H334   H     0.97254   0.49422   0.48690   0.00000  Uiso   1.00
H335   H     0.80046   0.51056   0.09172   0.00000  Uiso   1.00
H336   H     0.71704   0.52265   0.41175   0.00000  Uiso   1.00
H337   H     0.75025   0.53024   0.05492   0.00000  Uiso   1.00
H338   H     0.69299   0.53669   0.00590   0.00000  Uiso   1.00
N339   N     0.71598   0.49999   0.24998   0.00000  Uiso   1.00
N340   N     0.95069   0.50002   0.24999   0.00000  Uiso   1.00
O341   O     0.79375   0.56011   0.25000   0.00000  Uiso   1.00
O342   O     0.87294   0.56012   0.25000   0.00000  Uiso   1.00
O343   O     0.77441   0.49998   0.32549   0.00000  Uiso   1.00
O344   O     0.85360   0.49999   0.32549   0.00000  Uiso   1.00
O345   O     0.79373   0.43988   0.24999   0.00000  Uiso   1.00
O346   O     0.87292   0.43989   0.24999   0.00000  Uiso   1.00
O347   O     0.81306   0.50001   0.17451   0.00000  Uiso   1.00
O348   O     0.89225   0.50002   0.17451   0.00000  Uiso   1.00
C349   C     0.75182   0.62478   0.31784   0.00000  Uiso   1.00
N350   N     0.71896   0.60806   0.34622   0.00000  Uiso   1.00
C351   C     0.89637   0.56002   0.36459   0.00000  Uiso   1.00
N352   N     0.90985   0.58332   0.33083   0.00000  Uiso   1.00
C353   C     0.91409   0.62574   0.18107   0.00000  Uiso   1.00
N354   N     0.94652   0.60974   0.15136   0.00000  Uiso   1.00
C355   C     0.16675   0.91260   0.24994   0.00000  Uiso   1.00
C356   C     0.14793   0.85465   0.48736   0.00000  Uiso   1.00
C357   C     0.16335   0.85715   0.43224   0.00000  Uiso   1.00
C358   C     0.18350   0.84711   0.01393   0.00000  Uiso   1.00
C359   C     0.23338   0.84375   0.48504   0.00000  Uiso   1.00
C360   C     0.24820   0.85449   0.43266   0.00000  Uiso   1.00
C361   C     0.21365   0.86495   0.40764   0.00000  Uiso   1.00
C362   C     0.17114   0.84183   0.06803   0.00000  Uiso   1.00
C363   C     0.25562   0.82868   0.06349   0.00000  Uiso   1.00
C364   C     0.12774   0.85194   0.40473   0.00000  Uiso   1.00
C365   C     0.20689   0.97936   0.21779   0.00000  Uiso   1.00
C366   C     0.14127   0.83944   0.34917   0.00000  Uiso   1.00
C367   C     0.20675   0.68880   0.21883   0.00000  Uiso   1.00
C368   C     0.16643   0.70979   0.25021   0.00000  Uiso   1.00
C369   C     0.12616   0.68847   0.28150   0.00000  Uiso   1.00
C370   C     0.12625   0.97899   0.28237   0.00000  Uiso   1.00
C371   C     0.16672   0.95743   0.25014   0.00000  Uiso   1.00
C372   C     0.31859   0.85501   0.21345   0.00000  Uiso   1.00
C373   C     0.03479   0.85512   0.21353   0.00000  Uiso   1.00
C374   C     0.01478   0.81156   0.28648   0.00000  Uiso   1.00
C375   C     0.29855   0.81155   0.28646   0.00000  Uiso   1.00
C376   C     0.16652   0.75418   0.25019   0.00000  Uiso   1.00
C377   C     0.19257   0.83297   0.14998   0.00000  Uiso   1.00
C378   C     0.26847   0.83269   0.00962   0.00000  Uiso   1.00
C379   C     0.20701   0.83426   0.09300   0.00000  Uiso   1.00
C380   C     0.07819   0.85696   0.43187   0.00000  Uiso   1.00
C381   C     0.06399   0.86363   0.48535   0.00000  Uiso   1.00
C382   C     0.09778   0.86037   0.01331   0.00000  Uiso   1.00
Cu383  Cu    0.11978   0.83333   0.25000   0.00000  Uiso   1.00
Cu384  Cu    0.21355   0.83334   0.25000   0.00000  Uiso   1.00
H385   H     0.28363   0.82154   0.08198   0.00000  Uiso   1.00
H386   H     0.23742   0.70587   0.19402   0.00000  Uiso   1.00
H387   H     0.09530   0.70529   0.30613   0.00000  Uiso   1.00
H388   H     0.30807   0.87216   0.18400   0.00000  Uiso   1.00
H389   H     0.06140   0.87267   0.18432   0.00000  Uiso   1.00
H390   H     0.02540   0.79404   0.31568   0.00000  Uiso   1.00
H391   H     0.27192   0.79402   0.31567   0.00000  Uiso   1.00
H392   H     0.28683   0.85791   0.41241   0.00000  Uiso   1.00
H393   H     0.30587   0.82755   0.48690   0.00000  Uiso   1.00
H394   H     0.13380   0.84390   0.09172   0.00000  Uiso   1.00
H395   H     0.05037   0.85598   0.41175   0.00000  Uiso   1.00
H396   H     0.08358   0.86358   0.05492   0.00000  Uiso   1.00
H397   H     0.02632   0.87002   0.00590   0.00000  Uiso   1.00
N398   N     0.04931   0.83332   0.24998   0.00000  Uiso   1.00
N399   N     0.28402   0.83335   0.24999   0.00000  Uiso   1.00
O400   O     0.12708   0.89345   0.25000   0.00000  Uiso   1.00
O401   O     0.20627   0.89346   0.25000   0.00000  Uiso   1.00
O402   O     0.10775   0.83332   0.32549   0.00000  Uiso   1.00
O403   O     0.18694   0.83333   0.32549   0.00000  Uiso   1.00
O404   O     0.12706   0.77321   0.24999   0.00000  Uiso   1.00
O405   O     0.20625   0.77322   0.24999   0.00000  Uiso   1.00
O406   O     0.14640   0.83334   0.17451   0.00000  Uiso   1.00
O407   O     0.22559   0.83335   0.17451   0.00000  Uiso   1.00
C408   C     0.08516   0.95812   0.31784   0.00000  Uiso   1.00
N409   N     0.05230   0.94139   0.34622   0.00000  Uiso   1.00
C410   C     0.22970   0.89335   0.36459   0.00000  Uiso   1.00
N411   N     0.24318   0.91665   0.33083   0.00000  Uiso   1.00
C412   C     0.24742   0.95907   0.18107   0.00000  Uiso   1.00
N413   N     0.27986   0.94307   0.15136   0.00000  Uiso   1.00
C414   C     0.50009   0.91260   0.24994   0.00000  Uiso   1.00
C415   C     0.48126   0.85465   0.48736   0.00000  Uiso   1.00
C416   C     0.49669   0.85715   0.43224   0.00000  Uiso   1.00
C417   C     0.51683   0.84711   0.01393   0.00000  Uiso   1.00
C418   C     0.56672   0.84375   0.48504   0.00000  Uiso   1.00
C419   C     0.58154   0.85449   0.43266   0.00000  Uiso   1.00
C420   C     0.54698   0.86495   0.40764   0.00000  Uiso   1.00
C421   C     0.50447   0.84183   0.06803   0.00000  Uiso   1.00
C422   C     0.58896   0.82868   0.06349   0.00000  Uiso   1.00
C423   C     0.46107   0.85194   0.40473   0.00000  Uiso   1.00
C424   C     0.54022   0.97936   0.21779   0.00000  Uiso   1.00
C425   C     0.47461   0.83944   0.34917   0.00000  Uiso   1.00
C426   C     0.54008   0.68880   0.21883   0.00000  Uiso   1.00
C427   C     0.49976   0.70979   0.25021   0.00000  Uiso   1.00
C428   C     0.45950   0.68847   0.28150   0.00000  Uiso   1.00
C429   C     0.45959   0.97899   0.28237   0.00000  Uiso   1.00
C430   C     0.50005   0.95743   0.25014   0.00000  Uiso   1.00
C431   C     0.65192   0.85501   0.21345   0.00000  Uiso   1.00
C432   C     0.36812   0.85512   0.21353   0.00000  Uiso   1.00
C433   C     0.34811   0.81156   0.28648   0.00000  Uiso   1.00
C434   C     0.63188   0.81155   0.28646   0.00000  Uiso   1.00
C435   C     0.49986   0.75418   0.25019   0.00000  Uiso   1.00
C436   C     0.52590   0.83297   0.14998   0.00000  Uiso   1.00
C437   C     0.60180   0.83269   0.00962   0.00000  Uiso   1.00
C438   C     0.54034   0.83426   0.09300   0.00000  Uiso   1.00
C439   C     0.41152   0.85696   0.43187   0.00000  Uiso   1.00
C440   C     0.39733   0.86363   0.48535   0.00000  Uiso   1.00
C441   C     0.43112   0.86037   0.01331   0.00000  Uiso   1.00
Cu442  Cu    0.45311   0.83333   0.25000   0.00000  Uiso   1.00
Cu443  Cu    0.54689   0.83334   0.25000   0.00000  Uiso   1.00
H444   H     0.61697   0.82154   0.08198   0.00000  Uiso   1.00
H445   H     0.57075   0.70587   0.19402   0.00000  Uiso   1.00
H446   H     0.42863   0.70529   0.30613   0.00000  Uiso   1.00
H447   H     0.64141   0.87216   0.18400   0.00000  Uiso   1.00
H448   H     0.39473   0.87267   0.18432   0.00000  Uiso   1.00
H449   H     0.35873   0.79404   0.31568   0.00000  Uiso   1.00
H450   H     0.60526   0.79402   0.31567   0.00000  Uiso   1.00
H451   H     0.62017   0.85791   0.41241   0.00000  Uiso   1.00
H452   H     0.63920   0.82755   0.48690   0.00000  Uiso   1.00
H453   H     0.46713   0.84390   0.09172   0.00000  Uiso   1.00
H454   H     0.38371   0.85598   0.41175   0.00000  Uiso   1.00
H455   H     0.41692   0.86358   0.05492   0.00000  Uiso   1.00
H456   H     0.35965   0.87002   0.00590   0.00000  Uiso   1.00
N457   N     0.38265   0.83332   0.24998   0.00000  Uiso   1.00
N458   N     0.61735   0.83335   0.24999   0.00000  Uiso   1.00
O459   O     0.46042   0.89345   0.25000   0.00000  Uiso   1.00
O460   O     0.53961   0.89346   0.25000   0.00000  Uiso   1.00
O461   O     0.44108   0.83332   0.32549   0.00000  Uiso   1.00
O462   O     0.52027   0.83333   0.32549   0.00000  Uiso   1.00
O463   O     0.46039   0.77321   0.24999   0.00000  Uiso   1.00
O464   O     0.53958   0.77322   0.24999   0.00000  Uiso   1.00
O465   O     0.47973   0.83334   0.17451   0.00000  Uiso   1.00
O466   O     0.55892   0.83335   0.17451   0.00000  Uiso   1.00
C467   C     0.41849   0.95812   0.31784   0.00000  Uiso   1.00
N468   N     0.38563   0.94139   0.34622   0.00000  Uiso   1.00
C469   C     0.56304   0.89335   0.36459   0.00000  Uiso   1.00
N470   N     0.57652   0.91665   0.33083   0.00000  Uiso   1.00
C471   C     0.58075   0.95907   0.18107   0.00000  Uiso   1.00
N472   N     0.61319   0.94307   0.15136   0.00000  Uiso   1.00
C473   C     0.83342   0.91260   0.24994   0.00000  Uiso   1.00
C474   C     0.81460   0.85465   0.48736   0.00000  Uiso   1.00
C475   C     0.83002   0.85715   0.43224   0.00000  Uiso   1.00
C476   C     0.85016   0.84711   0.01393   0.00000  Uiso   1.00
C477   C     0.90005   0.84375   0.48504   0.00000  Uiso   1.00
C478   C     0.91487   0.85449   0.43266   0.00000  Uiso   1.00
C479   C     0.88031   0.86495   0.40764   0.00000  Uiso   1.00
C480   C     0.83780   0.84183   0.06803   0.00000  Uiso   1.00
C481   C     0.92229   0.82868   0.06349   0.00000  Uiso   1.00
C482   C     0.79441   0.85194   0.40473   0.00000  Uiso   1.00
C483   C     0.87356   0.97936   0.21779   0.00000  Uiso   1.00
C484   C     0.80794   0.83944   0.34917   0.00000  Uiso   1.00
C485   C     0.87341   0.68880   0.21883   0.00000  Uiso   1.00
C486   C     0.83310   0.70979   0.25021   0.00000  Uiso   1.00
C487   C     0.79283   0.68847   0.28150   0.00000  Uiso   1.00
C488   C     0.79292   0.97899   0.28237   0.00000  Uiso   1.00
C489   C     0.83339   0.95743   0.25014   0.00000  Uiso   1.00
C490   C     0.98526   0.85501   0.21345   0.00000  Uiso   1.00
C491   C     0.70146   0.85512   0.21353   0.00000  Uiso   1.00
C492   C     0.68144   0.81156   0.28648   0.00000  Uiso   1.00
C493   C     0.96521   0.81155   0.28646   0.00000  Uiso   1.00
C494   C     0.83319   0.75418   0.25019   0.00000  Uiso   1.00
C495   C     0.85923   0.83297   0.14998   0.00000  Uiso   1.00
C496   C     0.93514   0.83269   0.00962   0.00000  Uiso   1.00
C497   C     0.87367   0.83426   0.09300   0.00000  Uiso   1.00
C498   C     0.74485   0.85696   0.43187   0.00000  Uiso   1.00
C499   C     0.73066   0.86363   0.48535   0.00000  Uiso   1.00
C500   C     0.76445   0.86037   0.01331   0.00000  Uiso   1.00
Cu501  Cu    0.78645   0.83333   0.25000   0.00000  Uiso   1.00
Cu502  Cu    0.88022   0.83334   0.25000   0.00000  Uiso   1.00
H503   H     0.95030   0.82154   0.08198   0.00000  Uiso   1.00
H504   H     0.90409   0.70587   0.19402   0.00000  Uiso   1.00
H505   H     0.76196   0.70529   0.30613   0.00000  Uiso   1.00
H506   H     0.97474   0.87216   0.18400   0.00000  Uiso   1.00
H507   H     0.72807   0.87267   0.18432   0.00000  Uiso   1.00
H508   H     0.69206   0.79404   0.31568   0.00000  Uiso   1.00
H509   H     0.93859   0.79402   0.31567   0.00000  Uiso   1.00
H510   H     0.95350   0.85791   0.41241   0.00000  Uiso   1.00
H511   H     0.97254   0.82755   0.48690   0.00000  Uiso   1.00
H512   H     0.80046   0.84390   0.09172   0.00000  Uiso   1.00
H513   H     0.71704   0.85598   0.41175   0.00000  Uiso   1.00
H514   H     0.75025   0.86358   0.05492   0.00000  Uiso   1.00
H515   H     0.69299   0.87002   0.00590   0.00000  Uiso   1.00
N516   N     0.71598   0.83332   0.24998   0.00000  Uiso   1.00
N517   N     0.95069   0.83335   0.24999   0.00000  Uiso   1.00
O518   O     0.79375   0.89345   0.25000   0.00000  Uiso   1.00
O519   O     0.87294   0.89346   0.25000   0.00000  Uiso   1.00
O520   O     0.77441   0.83332   0.32549   0.00000  Uiso   1.00
O521   O     0.85360   0.83333   0.32549   0.00000  Uiso   1.00
O522   O     0.79373   0.77321   0.24999   0.00000  Uiso   1.00
O523   O     0.87292   0.77322   0.24999   0.00000  Uiso   1.00
O524   O     0.81306   0.83334   0.17451   0.00000  Uiso   1.00
O525   O     0.89225   0.83335   0.17451   0.00000  Uiso   1.00
C526   C     0.75182   0.95812   0.31784   0.00000  Uiso   1.00
N527   N     0.71896   0.94139   0.34622   0.00000  Uiso   1.00
C528   C     0.89637   0.89335   0.36459   0.00000  Uiso   1.00
N529   N     0.90985   0.91665   0.33083   0.00000  Uiso   1.00
C530   C     0.91409   0.95907   0.18107   0.00000  Uiso   1.00
N531   N     0.94652   0.94307   0.15136   0.00000  Uiso   1.00
C532   C     0.16675   0.24593   0.74994   0.00000  Uiso   1.00
C533   C     0.14793   0.18799   0.98736   0.00000  Uiso   1.00
C534   C     0.16335   0.19049   0.93224   0.00000  Uiso   1.00
C535   C     0.18350   0.18044   0.51393   0.00000  Uiso   1.00
C536   C     0.23338   0.17708   0.98504   0.00000  Uiso   1.00
C537   C     0.24820   0.18782   0.93266   0.00000  Uiso   1.00
C538   C     0.21365   0.19828   0.90764   0.00000  Uiso   1.00
C539   C     0.17114   0.17516   0.56803   0.00000  Uiso   1.00
C540   C     0.25562   0.16201   0.56349   0.00000  Uiso   1.00
C541   C     0.12774   0.18527   0.90473   0.00000  Uiso   1.00
C542   C     0.20689   0.31270   0.71779   0.00000  Uiso   1.00
C543   C     0.14127   0.17277   0.84917   0.00000  Uiso   1.00
C544   C     0.20675   0.02213   0.71883   0.00000  Uiso   1.00
C545   C     0.16643   0.04312   0.75021   0.00000  Uiso   1.00
C546   C     0.12616   0.02181   0.78150   0.00000  Uiso   1.00
C547   C     0.12625   0.31233   0.78237   0.00000  Uiso   1.00
C548   C     0.16672   0.29077   0.75014   0.00000  Uiso   1.00
C549   C     0.31859   0.18835   0.71345   0.00000  Uiso   1.00
C550   C     0.03479   0.18845   0.71353   0.00000  Uiso   1.00
C551   C     0.01478   0.14489   0.78648   0.00000  Uiso   1.00
C552   C     0.29855   0.14488   0.78646   0.00000  Uiso   1.00
C553   C     0.16652   0.08751   0.75019   0.00000  Uiso   1.00
C554   C     0.19257   0.16630   0.64998   0.00000  Uiso   1.00
C555   C     0.26847   0.16602   0.50962   0.00000  Uiso   1.00
C556   C     0.20701   0.16759   0.59300   0.00000  Uiso   1.00
C557   C     0.07819   0.19029   0.93187   0.00000  Uiso   1.00
C558   C     0.06399   0.19697   0.98535   0.00000  Uiso   1.00
C559   C     0.09778   0.19370   0.51331   0.00000  Uiso   1.00
Cu560  Cu    0.11978   0.16666   0.75000   0.00000  Uiso   1.00
Cu561  Cu    0.21355   0.16667   0.75000   0.00000  Uiso   1.00
H562   H     0.28363   0.15487   0.58198   0.00000  Uiso   1.00
H563   H     0.23742   0.03920   0.69402   0.00000  Uiso   1.00
H564   H     0.09530   0.03863   0.80613   0.00000  Uiso   1.00
H565   H     0.30807   0.20549   0.68400   0.00000  Uiso   1.00
H566   H     0.06140   0.20600   0.68432   0.00000  Uiso   1.00
H567   H     0.02540   0.12737   0.81568   0.00000  Uiso   1.00
H568   H     0.27192   0.12735   0.81567   0.00000  Uiso   1.00
H569   H     0.28683   0.19124   0.91241   0.00000  Uiso   1.00
H570   H     0.30587   0.16089   0.98690   0.00000  Uiso   1.00
H571   H     0.13380   0.17723   0.59172   0.00000  Uiso   1.00
H572   H     0.05037   0.18931   0.91175   0.00000  Uiso   1.00
H573   H     0.08358   0.19691   0.55492   0.00000  Uiso   1.00
H574   H     0.02632   0.20335   0.50590   0.00000  Uiso   1.00
N575   N     0.04931   0.16666   0.74998   0.00000  Uiso   1.00
N576   N     0.28402   0.16669   0.74999   0.00000  Uiso   1.00
O577   O     0.12708   0.22678   0.75000   0.00000  Uiso   1.00
O578   O     0.20627   0.22679   0.75000   0.00000  Uiso   1.00
O579   O     0.10775   0.16665   0.82549   0.00000  Uiso   1.00
O580   O     0.18694   0.16666   0.82549   0.00000  Uiso   1.00
O581   O     0.12706   0.10654   0.74999   0.00000  Uiso   1.00
O582   O     0.20625   0.10655   0.74999   0.00000  Uiso   1.00
O583   O     0.14640   0.16667   0.67451   0.00000  Uiso   1.00
O584   O     0.22559   0.16668   0.67451   0.00000  Uiso   1.00
C585   C     0.08516   0.29145   0.81784   0.00000  Uiso   1.00
N586   N     0.05230   0.27473   0.84622   0.00000  Uiso   1.00
C587   C     0.22970   0.22668   0.86459   0.00000  Uiso   1.00
N588   N     0.24318   0.24998   0.83083   0.00000  Uiso   1.00
C589   C     0.24742   0.29240   0.68107   0.00000  Uiso   1.00
N590   N     0.27986   0.27640   0.65136   0.00000  Uiso   1.00
C591   C     0.50009   0.24593   0.74994   0.00000  Uiso   1.00
C592   C     0.48126   0.18799   0.98736   0.00000  Uiso   1.00
C593   C     0.49669   0.19049   0.93224   0.00000  Uiso   1.00
C594   C     0.51683   0.18044   0.51393   0.00000  Uiso   1.00
C595   C     0.56672   0.17708   0.98504   0.00000  Uiso   1.00
C596   C     0.58154   0.18782   0.93266   0.00000  Uiso   1.00
C597   C     0.54698   0.19828   0.90764   0.00000  Uiso   1.00
C598   C     0.50447   0.17516   0.56803   0.00000  Uiso   1.00
C599   C     0.58896   0.16201   0.56349   0.00000  Uiso   1.00
C600   C     0.46107   0.18527   0.90473   0.00000  Uiso   1.00
C601   C     0.54022   0.31270   0.71779   0.00000  Uiso   1.00
C602   C     0.47461   0.17277   0.84917   0.00000  Uiso   1.00
C603   C     0.54008   0.02213   0.71883   0.00000  Uiso   1.00
C604   C     0.49976   0.04312   0.75021   0.00000  Uiso   1.00
C605   C     0.45950   0.02181   0.78150   0.00000  Uiso   1.00
C606   C     0.45959   0.31233   0.78237   0.00000  Uiso   1.00
C607   C     0.50005   0.29077   0.75014   0.00000  Uiso   1.00
C608   C     0.65192   0.18835   0.71345   0.00000  Uiso   1.00
C609   C     0.36812   0.18845   0.71353   0.00000  Uiso   1.00
C610   C     0.34811   0.14489   0.78648   0.00000  Uiso   1.00
C611   C     0.63188   0.14488   0.78646   0.00000  Uiso   1.00
C612   C     0.49986   0.08751   0.75019   0.00000  Uiso   1.00
C613   C     0.52590   0.16630   0.64998   0.00000  Uiso   1.00
C614   C     0.60180   0.16602   0.50962   0.00000  Uiso   1.00
C615   C     0.54034   0.16759   0.59300   0.00000  Uiso   1.00
C616   C     0.41152   0.19029   0.93187   0.00000  Uiso   1.00
C617   C     0.39733   0.19697   0.98535   0.00000  Uiso   1.00
C618   C     0.43112   0.19370   0.51331   0.00000  Uiso   1.00
Cu619  Cu    0.45311   0.16666   0.75000   0.00000  Uiso   1.00
Cu620  Cu    0.54689   0.16667   0.75000   0.00000  Uiso   1.00
H621   H     0.61697   0.15487   0.58198   0.00000  Uiso   1.00
H622   H     0.57075   0.03920   0.69402   0.00000  Uiso   1.00
H623   H     0.42863   0.03863   0.80613   0.00000  Uiso   1.00
H624   H     0.64141   0.20549   0.68400   0.00000  Uiso   1.00
H625   H     0.39473   0.20600   0.68432   0.00000  Uiso   1.00
H626   H     0.35873   0.12737   0.81568   0.00000  Uiso   1.00
H627   H     0.60526   0.12735   0.81567   0.00000  Uiso   1.00
H628   H     0.62017   0.19124   0.91241   0.00000  Uiso   1.00
H629   H     0.63920   0.16089   0.98690   0.00000  Uiso   1.00
H630   H     0.46713   0.17723   0.59172   0.00000  Uiso   1.00
H631   H     0.38371   0.18931   0.91175   0.00000  Uiso   1.00
H632   H     0.41692   0.19691   0.55492   0.00000  Uiso   1.00
H633   H     0.35965   0.20335   0.50590   0.00000  Uiso   1.00
N634   N     0.38265   0.16666   0.74998   0.00000  Uiso   1.00
N635   N     0.61735   0.16669   0.74999   0.00000  Uiso   1.00
O636   O     0.46042   0.22678   0.75000   0.00000  Uiso   1.00
O637   O     0.53961   0.22679   0.75000   0.00000  Uiso   1.00
O638   O     0.44108   0.16665   0.82549   0.00000  Uiso   1.00
O639   O     0.52027   0.16666   0.82549   0.00000  Uiso   1.00
O640   O     0.46039   0.10654   0.74999   0.00000  Uiso   1.00
O641   O     0.53958   0.10655   0.74999   0.00000  Uiso   1.00
O642   O     0.47973   0.16667   0.67451   0.00000  Uiso   1.00
O643   O     0.55892   0.16668   0.67451   0.00000  Uiso   1.00
C644   C     0.41849   0.29145   0.81784   0.00000  Uiso   1.00
N645   N     0.38563   0.27473   0.84622   0.00000  Uiso   1.00
C646   C     0.56304   0.22668   0.86459   0.00000  Uiso   1.00
N647   N     0.57652   0.24998   0.83083   0.00000  Uiso   1.00
C648   C     0.58075   0.29240   0.68107   0.00000  Uiso   1.00
N649   N     0.61319   0.27640   0.65136   0.00000  Uiso   1.00
C650   C     0.83342   0.24593   0.74994   0.00000  Uiso   1.00
C651   C     0.81460   0.18799   0.98736   0.00000  Uiso   1.00
C652   C     0.83002   0.19049   0.93224   0.00000  Uiso   1.00
C653   C     0.85016   0.18044   0.51393   0.00000  Uiso   1.00
C654   C     0.90005   0.17708   0.98504   0.00000  Uiso   1.00
C655   C     0.91487   0.18782   0.93266   0.00000  Uiso   1.00
C656   C     0.88031   0.19828   0.90764   0.00000  Uiso   1.00
C657   C     0.83780   0.17516   0.56803   0.00000  Uiso   1.00
C658   C     0.92229   0.16201   0.56349   0.00000  Uiso   1.00
C659   C     0.79441   0.18527   0.90473   0.00000  Uiso   1.00
C660   C     0.87356   0.31270   0.71779   0.00000  Uiso   1.00
C661   C     0.80794   0.17277   0.84917   0.00000  Uiso   1.00
C662   C     0.87341   0.02213   0.71883   0.00000  Uiso   1.00
C663   C     0.83310   0.04312   0.75021   0.00000  Uiso   1.00
C664   C     0.79283   0.02181   0.78150   0.00000  Uiso   1.00
C665   C     0.79292   0.31233   0.78237   0.00000  Uiso   1.00
C666   C     0.83339   0.29077   0.75014   0.00000  Uiso   1.00
C667   C     0.98526   0.18835   0.71345   0.00000  Uiso   1.00
C668   C     0.70146   0.18845   0.71353   0.00000  Uiso   1.00
C669   C     0.68144   0.14489   0.78648   0.00000  Uiso   1.00
C670   C     0.96521   0.14488   0.78646   0.00000  Uiso   1.00
C671   C     0.83319   0.08751   0.75019   0.00000  Uiso   1.00
C672   C     0.85923   0.16630   0.64998   0.00000  Uiso   1.00
C673   C     0.93514   0.16602   0.50962   0.00000  Uiso   1.00
C674   C     0.87367   0.16759   0.59300   0.00000  Uiso   1.00
C675   C     0.74485   0.19029   0.93187   0.00000  Uiso   1.00
C676   C     0.73066   0.19697   0.98535   0.00000  Uiso   1.00
C677   C     0.76445   0.19370   0.51331   0.00000  Uiso   1.00
Cu678  Cu    0.78645   0.16666   0.75000   0.00000  Uiso   1.00
Cu679  Cu    0.88022   0.16667   0.75000   0.00000  Uiso   1.00
H680   H     0.95030   0.15487   0.58198   0.00000  Uiso   1.00
H681   H     0.90409   0.03920   0.69402   0.00000  Uiso   1.00
H682   H     0.76196   0.03863   0.80613   0.00000  Uiso   1.00
H683   H     0.97474   0.20549   0.68400   0.00000  Uiso   1.00
H684   H     0.72807   0.20600   0.68432   0.00000  Uiso   1.00
H685   H     0.69206   0.12737   0.81568   0.00000  Uiso   1.00
H686   H     0.93859   0.12735   0.81567   0.00000  Uiso   1.00
H687   H     0.95350   0.19124   0.91241   0.00000  Uiso   1.00
H688   H     0.97254   0.16089   0.98690   0.00000  Uiso   1.00
H689   H     0.80046   0.17723   0.59172   0.00000  Uiso   1.00
H690   H     0.71704   0.18931   0.91175   0.00000  Uiso   1.00
H691   H     0.75025   0.19691   0.55492   0.00000  Uiso   1.00
H692   H     0.69299   0.20335   0.50590   0.00000  Uiso   1.00
N693   N     0.71598   0.16666   0.74998   0.00000  Uiso   1.00
N694   N     0.95069   0.16669   0.74999   0.00000  Uiso   1.00
O695   O     0.79375   0.22678   0.75000   0.00000  Uiso   1.00
O696   O     0.87294   0.22679   0.75000   0.00000  Uiso   1.00
O697   O     0.77441   0.16665   0.82549   0.00000  Uiso   1.00
O698   O     0.85360   0.16666   0.82549   0.00000  Uiso   1.00
O699   O     0.79373   0.10654   0.74999   0.00000  Uiso   1.00
O700   O     0.87292   0.10655   0.74999   0.00000  Uiso   1.00
O701   O     0.81306   0.16667   0.67451   0.00000  Uiso   1.00
O702   O     0.89225   0.16668   0.67451   0.00000  Uiso   1.00
C703   C     0.75182   0.29145   0.81784   0.00000  Uiso   1.00
N704   N     0.71896   0.27473   0.84622   0.00000  Uiso   1.00
C705   C     0.89637   0.22668   0.86459   0.00000  Uiso   1.00
N706   N     0.90985   0.24998   0.83083   0.00000  Uiso   1.00
C707   C     0.91409   0.29240   0.68107   0.00000  Uiso   1.00
N708   N     0.94652   0.27640   0.65136   0.00000  Uiso   1.00
C709   C     0.16675   0.57926   0.74994   0.00000  Uiso   1.00
C710   C     0.14793   0.52132   0.98736   0.00000  Uiso   1.00
C711   C     0.16335   0.52382   0.93224   0.00000  Uiso   1.00
C712   C     0.18350   0.51378   0.51393   0.00000  Uiso   1.00
C713   C     0.23338   0.51041   0.98504   0.00000  Uiso   1.00
C714   C     0.24820   0.52116   0.93266   0.00000  Uiso   1.00
C715   C     0.21365   0.53162   0.90764   0.00000  Uiso   1.00
C716   C     0.17114   0.50850   0.56803   0.00000  Uiso   1.00
C717   C     0.25562   0.49535   0.56349   0.00000  Uiso   1.00
C718   C     0.12774   0.51860   0.90473   0.00000  Uiso   1.00
C719   C     0.20689   0.64603   0.71779   0.00000  Uiso   1.00
C720   C     0.14127   0.50610   0.84917   0.00000  Uiso   1.00
C721   C     0.20675   0.35547   0.71883   0.00000  Uiso   1.00
C722   C     0.16643   0.37645   0.75021   0.00000  Uiso   1.00
C723   C     0.12616   0.35514   0.78150   0.00000  Uiso   1.00
C724   C     0.12625   0.64566   0.78237   0.00000  Uiso   1.00
C725   C     0.16672   0.62410   0.75014   0.00000  Uiso   1.00
C726   C     0.31859   0.52168   0.71345   0.00000  Uiso   1.00
C727   C     0.03479   0.52179   0.71353   0.00000  Uiso   1.00
C728   C     0.01478   0.47823   0.78648   0.00000  Uiso   1.00
C729   C     0.29855   0.47822   0.78646   0.00000  Uiso   1.00
C730   C     0.16652   0.42084   0.75019   0.00000  Uiso   1.00
C731   C     0.19257   0.49964   0.64998   0.00000  Uiso   1.00
C732   C     0.26847   0.49936   0.50962   0.00000  Uiso   1.00
C733   C     0.20701   0.50093   0.59300   0.00000  Uiso   1.00
C734   C     0.07819   0.52363   0.93187   0.00000  Uiso   1.00
C735   C     0.06399   0.53030   0.98535   0.00000  Uiso   1.00
C736   C     0.09778   0.52703   0.51331   0.00000  Uiso   1.00
Cu737  Cu    0.11978   0.49999   0.75000   0.00000  Uiso   1.00
Cu738  Cu    0.21355   0.50001   0.75000   0.00000  Uiso   1.00
H739   H     0.28363   0.48820   0.58198   0.00000  Uiso   1.00
H740   H     0.23742   0.37254   0.69402   0.00000  Uiso   1.00
H741   H     0.09530   0.37196   0.80613   0.00000  Uiso   1.00
H742   H     0.30807   0.53883   0.68400   0.00000  Uiso   1.00
H743   H     0.06140   0.53934   0.68432   0.00000  Uiso   1.00
H744   H     0.02540   0.46071   0.81568   0.00000  Uiso   1.00
H745   H     0.27192   0.46069   0.81567   0.00000  Uiso   1.00
H746   H     0.28683   0.52457   0.91241   0.00000  Uiso   1.00
H747   H     0.30587   0.49422   0.98690   0.00000  Uiso   1.00
H748   H     0.13380   0.51056   0.59172   0.00000  Uiso   1.00
H749   H     0.05037   0.52265   0.91175   0.00000  Uiso   1.00
H750   H     0.08358   0.53024   0.55492   0.00000  Uiso   1.00
H751   H     0.02632   0.53669   0.50590   0.00000  Uiso   1.00
N752   N     0.04931   0.49999   0.74998   0.00000  Uiso   1.00
N753   N     0.28402   0.50002   0.74999   0.00000  Uiso   1.00
O754   O     0.12708   0.56011   0.75000   0.00000  Uiso   1.00
O755   O     0.20627   0.56012   0.75000   0.00000  Uiso   1.00
O756   O     0.10775   0.49998   0.82549   0.00000  Uiso   1.00
O757   O     0.18694   0.49999   0.82549   0.00000  Uiso   1.00
O758   O     0.12706   0.43988   0.74999   0.00000  Uiso   1.00
O759   O     0.20625   0.43989   0.74999   0.00000  Uiso   1.00
O760   O     0.14640   0.50001   0.67451   0.00000  Uiso   1.00
O761   O     0.22559   0.50002   0.67451   0.00000  Uiso   1.00
C762   C     0.08516   0.62478   0.81784   0.00000  Uiso   1.00
N763   N     0.05230   0.60806   0.84622   0.00000  Uiso   1.00
C764   C     0.22970   0.56002   0.86459   0.00000  Uiso   1.00
N765   N     0.24318   0.58332   0.83083   0.00000  Uiso   1.00
C766   C     0.24742   0.62574   0.68107   0.00000  Uiso   1.00
N767   N     0.27986   0.60974   0.65136   0.00000  Uiso   1.00
C768   C     0.50009   0.57926   0.74994   0.00000  Uiso   1.00
C769   C     0.48126   0.52132   0.98736   0.00000  Uiso   1.00
C770   C     0.49669   0.52382   0.93224   0.00000  Uiso   1.00
C771   C     0.51683   0.51378   0.51393   0.00000  Uiso   1.00
C772   C     0.56672   0.51041   0.98504   0.00000  Uiso   1.00
C773   C     0.58154   0.52116   0.93266   0.00000  Uiso   1.00
C774   C     0.54698   0.53162   0.90764   0.00000  Uiso   1.00
C775   C     0.50447   0.50850   0.56803   0.00000  Uiso   1.00
C776   C     0.58896   0.49535   0.56349   0.00000  Uiso   1.00
C777   C     0.46107   0.51860   0.90473   0.00000  Uiso   1.00
C778   C     0.54022   0.64603   0.71779   0.00000  Uiso   1.00
C779   C     0.47461   0.50610   0.84917   0.00000  Uiso   1.00
C780   C     0.54008   0.35547   0.71883   0.00000  Uiso   1.00
C781   C     0.49976   0.37645   0.75021   0.00000  Uiso   1.00
C782   C     0.45950   0.35514   0.78150   0.00000  Uiso   1.00
C783   C     0.45959   0.64566   0.78237   0.00000  Uiso   1.00
C784   C     0.50005   0.62410   0.75014   0.00000  Uiso   1.00
C785   C     0.65192   0.52168   0.71345   0.00000  Uiso   1.00
C786   C     0.36812   0.52179   0.71353   0.00000  Uiso   1.00
C787   C     0.34811   0.47823   0.78648   0.00000  Uiso   1.00
C788   C     0.63188   0.47822   0.78646   0.00000  Uiso   1.00
C789   C     0.49986   0.42084   0.75019   0.00000  Uiso   1.00
C790   C     0.52590   0.49964   0.64998   0.00000  Uiso   1.00
C791   C     0.60180   0.49936   0.50962   0.00000  Uiso   1.00
C792   C     0.54034   0.50093   0.59300   0.00000  Uiso   1.00
C793   C     0.41152   0.52363   0.93187   0.00000  Uiso   1.00
C794   C     0.39733   0.53030   0.98535   0.00000  Uiso   1.00
C795   C     0.43112   0.52703   0.51331   0.00000  Uiso   1.00
Cu796  Cu    0.45311   0.49999   0.75000   0.00000  Uiso   1.00
Cu797  Cu    0.54689   0.50001   0.75000   0.00000  Uiso   1.00
H798   H     0.61697   0.48820   0.58198   0.00000  Uiso   1.00
H799   H     0.57075   0.37254   0.69402   0.00000  Uiso   1.00
H800   H     0.42863   0.37196   0.80613   0.00000  Uiso   1.00
H801   H     0.64141   0.53883   0.68400   0.00000  Uiso   1.00
H802   H     0.39473   0.53934   0.68432   0.00000  Uiso   1.00
H803   H     0.35873   0.46071   0.81568   0.00000  Uiso   1.00
H804   H     0.60526   0.46069   0.81567   0.00000  Uiso   1.00
H805   H     0.62017   0.52457   0.91241   0.00000  Uiso   1.00
H806   H     0.63920   0.49422   0.98690   0.00000  Uiso   1.00
H807   H     0.46713   0.51056   0.59172   0.00000  Uiso   1.00
H808   H     0.38371   0.52265   0.91175   0.00000  Uiso   1.00
H809   H     0.41692   0.53024   0.55492   0.00000  Uiso   1.00
H810   H     0.35965   0.53669   0.50590   0.00000  Uiso   1.00
N811   N     0.38265   0.49999   0.74998   0.00000  Uiso   1.00
N812   N     0.61735   0.50002   0.74999   0.00000  Uiso   1.00
O813   O     0.46042   0.56011   0.75000   0.00000  Uiso   1.00
O814   O     0.53961   0.56012   0.75000   0.00000  Uiso   1.00
O815   O     0.44108   0.49998   0.82549   0.00000  Uiso   1.00
O816   O     0.52027   0.49999   0.82549   0.00000  Uiso   1.00
O817   O     0.46039   0.43988   0.74999   0.00000  Uiso   1.00
O818   O     0.53958   0.43989   0.74999   0.00000  Uiso   1.00
O819   O     0.47973   0.50001   0.67451   0.00000  Uiso   1.00
O820   O     0.55892   0.50002   0.67451   0.00000  Uiso   1.00
C821   C     0.41849   0.62478   0.81784   0.00000  Uiso   1.00
N822   N     0.38563   0.60806   0.84622   0.00000  Uiso   1.00
C823   C     0.56304   0.56002   0.86459   0.00000  Uiso   1.00
N824   N     0.57652   0.58332   0.83083   0.00000  Uiso   1.00
C825   C     0.58075   0.62574   0.68107   0.00000  Uiso   1.00
N826   N     0.61319   0.60974   0.65136   0.00000  Uiso   1.00
C827   C     0.83342   0.57926   0.74994   0.00000  Uiso   1.00
C828   C     0.81460   0.52132   0.98736   0.00000  Uiso   1.00
C829   C     0.83002   0.52382   0.93224   0.00000  Uiso   1.00
C830   C     0.85016   0.51378   0.51393   0.00000  Uiso   1.00
C831   C     0.90005   0.51041   0.98504   0.00000  Uiso   1.00
C832   C     0.91487   0.52116   0.93266   0.00000  Uiso   1.00
C833   C     0.88031   0.53162   0.90764   0.00000  Uiso   1.00
C834   C     0.83780   0.50850   0.56803   0.00000  Uiso   1.00
C835   C     0.92229   0.49535   0.56349   0.00000  Uiso   1.00
C836   C     0.79441   0.51860   0.90473   0.00000  Uiso   1.00
C837   C     0.87356   0.64603   0.71779   0.00000  Uiso   1.00
C838   C     0.80794   0.50610   0.84917   0.00000  Uiso   1.00
C839   C     0.87341   0.35547   0.71883   0.00000  Uiso   1.00
C840   C     0.83310   0.37645   0.75021   0.00000  Uiso   1.00
C841   C     0.79283   0.35514   0.78150   0.00000  Uiso   1.00
C842   C     0.79292   0.64566   0.78237   0.00000  Uiso   1.00
C843   C     0.83339   0.62410   0.75014   0.00000  Uiso   1.00
C844   C     0.98526   0.52168   0.71345   0.00000  Uiso   1.00
C845   C     0.70146   0.52179   0.71353   0.00000  Uiso   1.00
C846   C     0.68144   0.47823   0.78648   0.00000  Uiso   1.00
C847   C     0.96521   0.47822   0.78646   0.00000  Uiso   1.00
C848   C     0.83319   0.42084   0.75019   0.00000  Uiso   1.00
C849   C     0.85923   0.49964   0.64998   0.00000  Uiso   1.00
C850   C     0.93514   0.49936   0.50962   0.00000  Uiso   1.00
C851   C     0.87367   0.50093   0.59300   0.00000  Uiso   1.00
C852   C     0.74485   0.52363   0.93187   0.00000  Uiso   1.00
C853   C     0.73066   0.53030   0.98535   0.00000  Uiso   1.00
C854   C     0.76445   0.52703   0.51331   0.00000  Uiso   1.00
Cu855  Cu    0.78645   0.49999   0.75000   0.00000  Uiso   1.00
Cu856  Cu    0.88022   0.50001   0.75000   0.00000  Uiso   1.00
H857   H     0.95030   0.48820   0.58198   0.00000  Uiso   1.00
H858   H     0.90409   0.37254   0.69402   0.00000  Uiso   1.00
H859   H     0.76196   0.37196   0.80613   0.00000  Uiso   1.00
H860   H     0.97474   0.53883   0.68400   0.00000  Uiso   1.00
H861   H     0.72807   0.53934   0.68432   0.00000  Uiso   1.00
H862   H     0.69206   0.46071   0.81568   0.00000  Uiso   1.00
H863   H     0.93859   0.46069   0.81567   0.00000  Uiso   1.00
H864   H     0.95350   0.52457   0.91241   0.00000  Uiso   1.00
H865   H     0.97254   0.49422   0.98690   0.00000  Uiso   1.00
H866   H     0.80046   0.51056   0.59172   0.00000  Uiso   1.00
H867   H     0.71704   0.52265   0.91175   0.00000  Uiso   1.00
H868   H     0.75025   0.53024   0.55492   0.00000  Uiso   1.00
H869   H     0.69299   0.53669   0.50590   0.00000  Uiso   1.00
N870   N     0.71598   0.49999   0.74998   0.00000  Uiso   1.00
N871   N     0.95069   0.50002   0.74999   0.00000  Uiso   1.00
O872   O     0.79375   0.56011   0.75000   0.00000  Uiso   1.00
O873   O     0.87294   0.56012   0.75000   0.00000  Uiso   1.00
O874   O     0.77441   0.49998   0.82549   0.00000  Uiso   1.00
O875   O     0.85360   0.49999   0.82549   0.00000  Uiso   1.00
O876   O     0.79373   0.43988   0.74999   0.00000  Uiso   1.00
O877   O     0.87292   0.43989   0.74999   0.00000  Uiso   1.00
O878   O     0.81306   0.50001   0.67451   0.00000  Uiso   1.00
O879   O     0.89225   0.50002   0.67451   0.00000  Uiso   1.00
C880   C     0.75182   0.62478   0.81784   0.00000  Uiso   1.00
N881   N     0.71896   0.60806   0.84622   0.00000  Uiso   1.00
C882   C     0.89637   0.56002   0.86459   0.00000  Uiso   1.00
N883   N     0.90985   0.58332   0.83083   0.00000  Uiso   1.00
C884   C     0.91409   0.62574   0.68107   0.00000  Uiso   1.00
N885   N     0.94652   0.60974   0.65136   0.00000  Uiso   1.00
C886   C     0.16675   0.91260   0.74994   0.00000  Uiso   1.00
C887   C     0.14793   0.85465   0.98736   0.00000  Uiso   1.00
C888   C     0.16335   0.85715   0.93224   0.00000  Uiso   1.00
C889   C     0.18350   0.84711   0.51393   0.00000  Uiso   1.00
C890   C     0.23338   0.84375   0.98504   0.00000  Uiso   1.00
C891   C     0.24820   0.85449   0.93266   0.00000  Uiso   1.00
C892   C     0.21365   0.86495   0.90764   0.00000  Uiso   1.00
C893   C     0.17114   0.84183   0.56803   0.00000  Uiso   1.00
C894   C     0.25562   0.82868   0.56349   0.00000  Uiso   1.00
C895   C     0.12774   0.85194   0.90473   0.00000  Uiso   1.00
C896   C     0.20689   0.97936   0.71779   0.00000  Uiso   1.00
C897   C     0.14127   0.83944   0.84917   0.00000  Uiso   1.00
C898   C     0.20675   0.68880   0.71883   0.00000  Uiso   1.00
C899   C     0.16643   0.70979   0.75021   0.00000  Uiso   1.00
C900   C     0.12616   0.68847   0.78150   0.00000  Uiso   1.00
C901   C     0.12625   0.97899   0.78237   0.00000  Uiso   1.00
C902   C     0.16672   0.95743   0.75014   0.00000  Uiso   1.00
C903   C     0.31859   0.85501   0.71345   0.00000  Uiso   1.00
C904   C     0.03479   0.85512   0.71353   0.00000  Uiso   1.00
C905   C     0.01478   0.81156   0.78648   0.00000  Uiso   1.00
C906   C     0.29855   0.81155   0.78646   0.00000  Uiso   1.00
C907   C     0.16652   0.75418   0.75019   0.00000  Uiso   1.00
C908   C     0.19257   0.83297   0.64998   0.00000  Uiso   1.00
C909   C     0.26847   0.83269   0.50962   0.00000  Uiso   1.00
C910   C     0.20701   0.83426   0.59300   0.00000  Uiso   1.00
C911   C     0.07819   0.85696   0.93187   0.00000  Uiso   1.00
C912   C     0.06399   0.86363   0.98535   0.00000  Uiso   1.00
C913   C     0.09778   0.86037   0.51331   0.00000  Uiso   1.00
Cu914  Cu    0.11978   0.83333   0.75000   0.00000  Uiso   1.00
Cu915  Cu    0.21355   0.83334   0.75000   0.00000  Uiso   1.00
H916   H     0.28363   0.82154   0.58198   0.00000  Uiso   1.00
H917   H     0.23742   0.70587   0.69402   0.00000  Uiso   1.00
H918   H     0.09530   0.70529   0.80613   0.00000  Uiso   1.00
H919   H     0.30807   0.87216   0.68400   0.00000  Uiso   1.00
H920   H     0.06140   0.87267   0.68432   0.00000  Uiso   1.00
H921   H     0.02540   0.79404   0.81568   0.00000  Uiso   1.00
H922   H     0.27192   0.79402   0.81567   0.00000  Uiso   1.00
H923   H     0.28683   0.85791   0.91241   0.00000  Uiso   1.00
H924   H     0.30587   0.82755   0.98690   0.00000  Uiso   1.00
H925   H     0.13380   0.84390   0.59172   0.00000  Uiso   1.00
H926   H     0.05037   0.85598   0.91175   0.00000  Uiso   1.00
H927   H     0.08358   0.86358   0.55492   0.00000  Uiso   1.00
H928   H     0.02632   0.87002   0.50590   0.00000  Uiso   1.00
N929   N     0.04931   0.83332   0.74998   0.00000  Uiso   1.00
N930   N     0.28402   0.83335   0.74999   0.00000  Uiso   1.00
O931   O     0.12708   0.89345   0.75000   0.00000  Uiso   1.00
O932   O     0.20627   0.89346   0.75000   0.00000  Uiso   1.00
O933   O     0.10775   0.83332   0.82549   0.00000  Uiso   1.00
O934   O     0.18694   0.83333   0.82549   0.00000  Uiso   1.00
O935   O     0.12706   0.77321   0.74999   0.00000  Uiso   1.00
O936   O     0.20625   0.77322   0.74999   0.00000  Uiso   1.00
O937   O     0.14640   0.83334   0.67451   0.00000  Uiso   1.00
O938   O     0.22559   0.83335   0.67451   0.00000  Uiso   1.00
C939   C     0.08516   0.95812   0.81784   0.00000  Uiso   1.00
N940   N     0.05230   0.94139   0.84622   0.00000  Uiso   1.00
C941   C     0.22970   0.89335   0.86459   0.00000  Uiso   1.00
N942   N     0.24318   0.91665   0.83083   0.00000  Uiso   1.00
C943   C     0.24742   0.95907   0.68107   0.00000  Uiso   1.00
N944   N     0.27986   0.94307   0.65136   0.00000  Uiso   1.00
C945   C     0.50009   0.91260   0.74994   0.00000  Uiso   1.00
C946   C     0.48126   0.85465   0.98736   0.00000  Uiso   1.00
C947   C     0.49669   0.85715   0.93224   0.00000  Uiso   1.00
C948   C     0.51683   0.84711   0.51393   0.00000  Uiso   1.00
C949   C     0.56672   0.84375   0.98504   0.00000  Uiso   1.00
C950   C     0.58154   0.85449   0.93266   0.00000  Uiso   1.00
C951   C     0.54698   0.86495   0.90764   0.00000  Uiso   1.00
C952   C     0.50447   0.84183   0.56803   0.00000  Uiso   1.00
C953   C     0.58896   0.82868   0.56349   0.00000  Uiso   1.00
C954   C     0.46107   0.85194   0.90473   0.00000  Uiso   1.00
C955   C     0.54022   0.97936   0.71779   0.00000  Uiso   1.00
C956   C     0.47461   0.83944   0.84917   0.00000  Uiso   1.00
C957   C     0.54008   0.68880   0.71883   0.00000  Uiso   1.00
C958   C     0.49976   0.70979   0.75021   0.00000  Uiso   1.00
C959   C     0.45950   0.68847   0.78150   0.00000  Uiso   1.00
C960   C     0.45959   0.97899   0.78237   0.00000  Uiso   1.00
C961   C     0.50005   0.95743   0.75014   0.00000  Uiso   1.00
C962   C     0.65192   0.85501   0.71345   0.00000  Uiso   1.00
C963   C     0.36812   0.85512   0.71353   0.00000  Uiso   1.00
C964   C     0.34811   0.81156   0.78648   0.00000  Uiso   1.00
C965   C     0.63188   0.81155   0.78646   0.00000  Uiso   1.00
C966   C     0.49986   0.75418   0.75019   0.00000  Uiso   1.00
C967   C     0.52590   0.83297   0.64998   0.00000  Uiso   1.00
C968   C     0.60180   0.83269   0.50962   0.00000  Uiso   1.00
C969   C     0.54034   0.83426   0.59300   0.00000  Uiso   1.00
C970   C     0.41152   0.85696   0.93187   0.00000  Uiso   1.00
C971   C     0.39733   0.86363   0.98535   0.00000  Uiso   1.00
C972   C     0.43112   0.86037   0.51331   0.00000  Uiso   1.00
Cu973  Cu    0.45311   0.83333   0.75000   0.00000  Uiso   1.00
Cu974  Cu    0.54689   0.83334   0.75000   0.00000  Uiso   1.00
H975   H     0.61697   0.82154   0.58198   0.00000  Uiso   1.00
H976   H     0.57075   0.70587   0.69402   0.00000  Uiso   1.00
H977   H     0.42863   0.70529   0.80613   0.00000  Uiso   1.00
H978   H     0.64141   0.87216   0.68400   0.00000  Uiso   1.00
H979   H     0.39473   0.87267   0.68432   0.00000  Uiso   1.00
H980   H     0.35873   0.79404   0.81568   0.00000  Uiso   1.00
H981   H     0.60526   0.79402   0.81567   0.00000  Uiso   1.00
H982   H     0.62017   0.85791   0.91241   0.00000  Uiso   1.00
H983   H     0.63920   0.82755   0.98690   0.00000  Uiso   1.00
H984   H     0.46713   0.84390   0.59172   0.00000  Uiso   1.00
H985   H     0.38371   0.85598   0.91175   0.00000  Uiso   1.00
H986   H     0.41692   0.86358   0.55492   0.00000  Uiso   1.00
H987   H     0.35965   0.87002   0.50590   0.00000  Uiso   1.00
N988   N     0.38265   0.83332   0.74998   0.00000  Uiso   1.00
N989   N     0.61735   0.83335   0.74999   0.00000  Uiso   1.00
O990   O     0.46042   0.89345   0.75000   0.00000  Uiso   1.00
O991   O     0.53961   0.89346   0.75000   0.00000  Uiso   1.00
O992   O     0.44108   0.83332   0.82549   0.00000  Uiso   1.00
O993   O     0.52027   0.83333   0.82549   0.00000  Uiso   1.00
O994   O     0.46039   0.77321   0.74999   0.00000  Uiso   1.00
O995   O     0.53958   0.77322   0.74999   0.00000  Uiso   1.00
O996   O     0.47973   0.83334   0.67451   0.00000  Uiso   1.00
O997   O     0.55892   0.83335   0.67451   0.00000  Uiso   1.00
C998   C     0.41849   0.95812   0.81784   0.00000  Uiso   1.00
N999   N     0.38563   0.94139   0.84622   0.00000  Uiso   1.00
C1000  C     0.56304   0.89335   0.86459   0.00000  Uiso   1.00
N1001  N     0.57652   0.91665   0.83083   0.00000  Uiso   1.00
C1002  C     0.58075   0.95907   0.68107   0.00000  Uiso   1.00
N1003  N     0.61319   0.94307   0.65136   0.00000  Uiso   1.00
C1004  C     0.83342   0.91260   0.74994   0.00000  Uiso   1.00
C1005  C     0.81460   0.85465   0.98736   0.00000  Uiso   1.00
C1006  C     0.83002   0.85715   0.93224   0.00000  Uiso   1.00
C1007  C     0.85016   0.84711   0.51393   0.00000  Uiso   1.00
C1008  C     0.90005   0.84375   0.98504   0.00000  Uiso   1.00
C1009  C     0.91487   0.85449   0.93266   0.00000  Uiso   1.00
C1010  C     0.88031   0.86495   0.90764   0.00000  Uiso   1.00
C1011  C     0.83780   0.84183   0.56803   0.00000  Uiso   1.00
C1012  C     0.92229   0.82868   0.56349   0.00000  Uiso   1.00
C1013  C     0.79441   0.85194   0.90473   0.00000  Uiso   1.00
C1014  C     0.87356   0.97936   0.71779   0.00000  Uiso   1.00
C1015  C     0.80794   0.83944   0.84917   0.00000  Uiso   1.00
C1016  C     0.87341   0.68880   0.71883   0.00000  Uiso   1.00
C1017  C     0.83310   0.70979   0.75021   0.00000  Uiso   1.00
C1018  C     0.79283   0.68847   0.78150   0.00000  Uiso   1.00
C1019  C     0.79292   0.97899   0.78237   0.00000  Uiso   1.00
C1020  C     0.83339   0.95743   0.75014   0.00000  Uiso   1.00
C1021  C     0.98526   0.85501   0.71345   0.00000  Uiso   1.00
C1022  C     0.70146   0.85512   0.71353   0.00000  Uiso   1.00
C1023  C     0.68144   0.81156   0.78648   0.00000  Uiso   1.00
C1024  C     0.96521   0.81155   0.78646   0.00000  Uiso   1.00
C1025  C     0.83319   0.75418   0.75019   0.00000  Uiso   1.00
C1026  C     0.85923   0.83297   0.64998   0.00000  Uiso   1.00
C1027  C     0.93514   0.83269   0.50962   0.00000  Uiso   1.00
C1028  C     0.87367   0.83426   0.59300   0.00000  Uiso   1.00
C1029  C     0.74485   0.85696   0.93187   0.00000  Uiso   1.00
C1030  C     0.73066   0.86363   0.98535   0.00000  Uiso   1.00
C1031  C     0.76445   0.86037   0.51331   0.00000  Uiso   1.00
Cu1032 Cu    0.78645   0.83333   0.75000   0.00000  Uiso   1.00
Cu1033 Cu    0.88022   0.83334   0.75000   0.00000  Uiso   1.00
H1034  H     0.95030   0.82154   0.58198   0.00000  Uiso   1.00
H1035  H     0.90409   0.70587   0.69402   0.00000  Uiso   1.00
H1036  H     0.76196   0.70529   0.80613   0.00000  Uiso   1.00
H1037  H     0.97474   0.87216   0.68400   0.00000  Uiso   1.00
H1038  H     0.72807   0.87267   0.68432   0.00000  Uiso   1.00
H1039  H     0.69206   0.79404   0.81568   0.00000  Uiso   1.00
H1040  H     0.93859   0.79402   0.81567   0.00000  Uiso   1.00
H1041  H     0.95350   0.85791   0.91241   0.00000  Uiso   1.00
H1042  H     0.97254   0.82755   0.98690   0.00000  Uiso   1.00
H1043  H     0.80046   0.84390   0.59172   0.00000  Uiso   1.00
H1044  H     0.71704   0.85598   0.91175   0.00000  Uiso   1.00
H1045  H     0.75025   0.86358   0.55492   0.00000  Uiso   1.00
H1046  H     0.69299   0.87002   0.50590   0.00000  Uiso   1.00
N1047  N     0.71598   0.83332   0.74998   0.00000  Uiso   1.00
N1048  N     0.95069   0.83335   0.74999   0.00000  Uiso   1.00
O1049  O     0.79375   0.89345   0.75000   0.00000  Uiso   1.00
O1050  O     0.87294   0.89346   0.75000   0.00000  Uiso   1.00
O1051  O     0.77441   0.83332   0.82549   0.00000  Uiso   1.00
O1052  O     0.85360   0.83333   0.82549   0.00000  Uiso   1.00
O1053  O     0.79373   0.77321   0.74999   0.00000  Uiso   1.00
O1054  O     0.87292   0.77322   0.74999   0.00000  Uiso   1.00
O1055  O     0.81306   0.83334   0.67451   0.00000  Uiso   1.00
O1056  O     0.89225   0.83335   0.67451   0.00000  Uiso   1.00
C1057  C     0.75182   0.95812   0.81784   0.00000  Uiso   1.00
N1058  N     0.71896   0.94139   0.84622   0.00000  Uiso   1.00
C1059  C     0.89637   0.89335   0.86459   0.00000  Uiso   1.00
N1060  N     0.90985   0.91665   0.83083   0.00000  Uiso   1.00
C1061  C     0.91409   0.95907   0.68107   0.00000  Uiso   1.00
N1062  N     0.94652   0.94307   0.65136   0.00000  Uiso   1.00
loop_
_geom_bond_atom_site_label_1
_geom_bond_atom_site_label_2
_geom_bond_distance
_geom_bond_site_symmetry_2
_ccdc_geom_bond_type
C1     C17     1.453   .     S
C1     O47     1.292   .     A
C1     O46     1.290   .     A
C2     C3      1.418   .     A
C2     C535    1.423   .     S
C2     C559    1.414   .     S
C3     C10     1.429   .     A
C3     C7      1.420   .     A
C4     C8      1.402   .     A
C4     C533    1.423   1_554 S
C4     C536    1.417   1_554 S
C5     C6      1.390   .     A
C5     C535    1.417   .     S
C5     C555    1.399   .     S
C6     H38     1.086   .     S
C6     C7      1.389   .     A
C7     C56     1.445   .     S
C8     C25     1.401   .     A
C8     H40     1.075   .     S
C9     C24     1.391   .     A
C9     C25     1.399   .     A
C9     H31     1.083   .     S
C10    C26     1.403   .     A
C10    C12     1.484   .     S
C11    C58     1.445   .     S
C11    C17     1.413   .     A
C11    C190    1.387   .     S
C12    O48     1.309   .     A
C12    O49     1.292   .     A
C13    H32     1.085   .     S
C13    C14     1.394   .     A
C13    C365    1.387   1_545 S
C14    C22     1.439   .     S
C14    C15     1.394   .     A
C15    H33     1.085   .     S
C15    C370    1.388   1_545 S
C16    C54     1.447   .     S
C16    C17     1.414   .     A
C16    C192    1.388   .     S
C18    H34     1.079   .     S
C18    N45     1.367   .     A
C18    C78     1.417   .     S
C19    H35     1.082   .     S
C19    N44     1.367   .     A
C19    C136    1.417   1_455 S
C20    N44     1.367   .     A
C20    H36     1.082   .     S
C20    C139    1.417   1_455 S
C21    N45     1.368   .     A
C21    H37     1.082   .     S
C21    C79     1.417   .     S
C22    O50     1.290   .     A
C22    O51     1.289   .     A
C23    O52     1.294   .     A
C23    O53     1.298   .     A
C23    C25     1.464   .     S
C24    C536    1.399   1_554 S
C24    H570    1.080   1_554 S
C26    C27     1.390   .     A
C26    H41     1.083   .     S
C27    C559    1.389   .     S
C27    H574    1.079   .     S
C28    H42     1.077   .     S
C28    C558    1.389   1_554 S
C28    C533    1.414   1_554 S
Cu29   Cu30    2.681   .     S
Cu29   O46     1.959   .     S
Cu29   O50     1.961   .     S
Cu29   N44     2.015   .     S
Cu29   O48     1.954   .     S
Cu29   O52     1.947   .     S
Cu30   O51     1.959   .     S
Cu30   N45     2.015   .     S
Cu30   O49     1.947   .     S
Cu30   O53     1.954   .     S
Cu30   O47     1.961   .     S
H39    C555    1.080   .     S
H43    C558    1.079   1_554 S
C54    N55     1.158   .     T
C56    N57     1.157   .     T
C58    N59     1.157   .     T
C60    C76     1.453   .     S
C60    O106    1.292   .     A
C60    O105    1.290   .     A
C61    C62     1.418   .     A
C61    C594    1.423   .     S
C61    C618    1.414   .     S
C62    C69     1.429   .     A
C62    C66     1.420   .     A
C63    C67     1.402   .     A
C63    C592    1.423   1_554 S
C63    C595    1.417   1_554 S
C64    C65     1.390   .     A
C64    C594    1.417   .     S
C64    C614    1.399   .     S
C65    H97     1.086   .     S
C65    C66     1.389   .     A
C66    C115    1.445   .     S
C67    C84     1.401   .     A
C67    H99     1.075   .     S
C68    C83     1.391   .     A
C68    C84     1.399   .     A
C68    H90     1.083   .     S
C69    C85     1.403   .     A
C69    C71     1.484   .     S
C70    C117    1.445   .     S
C70    C76     1.413   .     A
C70    C249    1.387   .     S
C71    O107    1.309   .     A
C71    O108    1.292   .     A
C72    H91     1.085   .     S
C72    C73     1.394   .     A
C72    C424    1.387   1_545 S
C73    C81     1.439   .     S
C73    C74     1.394   .     A
C74    H92     1.085   .     S
C74    C429    1.388   1_545 S
C75    C113    1.447   .     S
C75    C76     1.414   .     A
C75    C251    1.388   .     S
C77    H93     1.079   .     S
C77    N104    1.367   .     A
C77    C137    1.417   .     S
C78    H94     1.082   .     S
C78    N103    1.367   .     A
C79    N103    1.367   .     A
C79    H95     1.082   .     S
C80    N104    1.368   .     A
C80    H96     1.082   .     S
C80    C138    1.417   .     S
C81    O109    1.290   .     A
C81    O110    1.289   .     A
C82    O111    1.294   .     A
C82    O112    1.298   .     A
C82    C84     1.464   .     S
C83    C595    1.399   1_554 S
C83    H629    1.080   1_554 S
C85    C86     1.390   .     A
C85    H100    1.083   .     S
C86    C618    1.389   .     S
C86    H633    1.079   .     S
C87    H101    1.077   .     S
C87    C617    1.389   1_554 S
C87    C592    1.414   1_554 S
Cu88   Cu89    2.681   .     S
Cu88   O105    1.959   .     S
Cu88   O109    1.961   .     S
Cu88   N103    2.015   .     S
Cu88   O107    1.954   .     S
Cu88   O111    1.947   .     S
Cu89   O110    1.959   .     S
Cu89   N104    2.015   .     S
Cu89   O108    1.947   .     S
Cu89   O112    1.954   .     S
Cu89   O106    1.961   .     S
H98    C614    1.080   .     S
H102   C617    1.079   1_554 S
C113   N114    1.158   .     T
C115   N116    1.157   .     T
C117   N118    1.157   .     T
C119   C135    1.453   .     S
C119   O165    1.292   .     A
C119   O164    1.290   .     A
C120   C121    1.418   .     A
C120   C653    1.423   .     S
C120   C677    1.414   .     S
C121   C128    1.429   .     A
C121   C125    1.420   .     A
C122   C126    1.402   .     A
C122   C651    1.423   1_554 S
C122   C654    1.417   1_554 S
C123   C124    1.390   .     A
C123   C653    1.417   .     S
C123   C673    1.399   .     S
C124   H156    1.086   .     S
C124   C125    1.389   .     A
C125   C174    1.445   .     S
C126   C143    1.401   .     A
C126   H158    1.075   .     S
C127   C142    1.391   .     A
C127   C143    1.399   .     A
C127   H149    1.083   .     S
C128   C144    1.403   .     A
C128   C130    1.484   .     S
C129   C176    1.445   .     S
C129   C135    1.413   .     A
C129   C308    1.387   .     S
C130   O166    1.309   .     A
C130   O167    1.292   .     A
C131   H150    1.085   .     S
C131   C132    1.394   .     A
C131   C483    1.387   1_545 S
C132   C140    1.439   .     S
C132   C133    1.394   .     A
C133   H151    1.085   .     S
C133   C488    1.388   1_545 S
C134   C172    1.447   .     S
C134   C135    1.414   .     A
C134   C310    1.388   .     S
C136   H152    1.079   .     S
C136   N163    1.367   .     A
C136   C19     1.417   1_655 S
C137   H153    1.082   .     S
C137   N162    1.367   .     A
C138   N162    1.367   .     A
C138   H154    1.082   .     S
C139   N163    1.368   .     A
C139   H155    1.082   .     S
C139   C20     1.417   1_655 S
C140   O168    1.290   .     A
C140   O169    1.289   .     A
C141   O170    1.294   .     A
C141   O171    1.298   .     A
C141   C143    1.464   .     S
C142   C654    1.399   1_554 S
C142   H688    1.080   1_554 S
C144   C145    1.390   .     A
C144   H159    1.083   .     S
C145   C677    1.389   .     S
C145   H692    1.079   .     S
C146   H160    1.077   .     S
C146   C676    1.389   1_554 S
C146   C651    1.414   1_554 S
Cu147  Cu148   2.681   .     S
Cu147  O164    1.959   .     S
Cu147  O168    1.961   .     S
Cu147  N162    2.015   .     S
Cu147  O166    1.954   .     S
Cu147  O170    1.947   .     S
Cu148  O169    1.959   .     S
Cu148  N163    2.015   .     S
Cu148  O167    1.947   .     S
Cu148  O171    1.954   .     S
Cu148  O165    1.961   .     S
H157   C673    1.080   .     S
H161   C676    1.079   1_554 S
C172   N173    1.158   .     T
C174   N175    1.157   .     T
C176   N177    1.157   .     T
C178   C194    1.453   .     S
C178   O224    1.292   .     A
C178   O223    1.290   .     A
C179   C180    1.418   .     A
C179   C712    1.423   .     S
C179   C736    1.414   .     S
C180   C187    1.429   .     A
C180   C184    1.420   .     A
C181   C185    1.402   .     A
C181   C710    1.423   1_554 S
C181   C713    1.417   1_554 S
C182   C183    1.390   .     A
C182   C712    1.417   .     S
C182   C732    1.399   .     S
C183   H215    1.086   .     S
C183   C184    1.389   .     A
C184   C233    1.445   .     S
C185   C202    1.401   .     A
C185   H217    1.075   .     S
C186   C201    1.391   .     A
C186   C202    1.399   .     A
C186   H208    1.083   .     S
C187   C203    1.403   .     A
C187   C189    1.484   .     S
C188   C235    1.445   .     S
C188   C194    1.413   .     A
C188   C367    1.387   .     S
C189   O225    1.309   .     A
C189   O226    1.292   .     A
C190   H209    1.085   .     S
C190   C191    1.394   .     A
C191   C199    1.439   .     S
C191   C192    1.394   .     A
C192   H210    1.085   .     S
C193   C231    1.447   .     S
C193   C194    1.414   .     A
C193   C369    1.388   .     S
C195   H211    1.079   .     S
C195   N222    1.367   .     A
C195   C255    1.417   .     S
C196   H212    1.082   .     S
C196   N221    1.367   .     A
C196   C313    1.417   1_455 S
C197   N221    1.367   .     A
C197   H213    1.082   .     S
C197   C316    1.417   1_455 S
C198   N222    1.368   .     A
C198   H214    1.082   .     S
C198   C256    1.417   .     S
C199   O227    1.290   .     A
C199   O228    1.289   .     A
C200   O229    1.294   .     A
C200   O230    1.298   .     A
C200   C202    1.464   .     S
C201   C713    1.399   1_554 S
C201   H747    1.080   1_554 S
C203   C204    1.390   .     A
C203   H218    1.083   .     S
C204   C736    1.389   .     S
C204   H751    1.079   .     S
C205   H219    1.077   .     S
C205   C735    1.389   1_554 S
C205   C710    1.414   1_554 S
Cu206  Cu207   2.681   .     S
Cu206  O223    1.959   .     S
Cu206  O227    1.961   .     S
Cu206  N221    2.015   .     S
Cu206  O225    1.954   .     S
Cu206  O229    1.947   .     S
Cu207  O228    1.959   .     S
Cu207  N222    2.015   .     S
Cu207  O226    1.947   .     S
Cu207  O230    1.954   .     S
Cu207  O224    1.961   .     S
H216   C732    1.080   .     S
H220   C735    1.079   1_554 S
C231   N232    1.158   .     T
C233   N234    1.157   .     T
C235   N236    1.157   .     T
C237   C253    1.453   .     S
C237   O283    1.292   .     A
C237   O282    1.290   .     A
C238   C239    1.418   .     A
C238   C771    1.423   .     S
C238   C795    1.414   .     S
C239   C246    1.429   .     A
C239   C243    1.420   .     A
C240   C244    1.402   .     A
C240   C769    1.423   1_554 S
C240   C772    1.417   1_554 S
C241   C242    1.390   .     A
C241   C771    1.417   .     S
C241   C791    1.399   .     S
C242   H274    1.086   .     S
C242   C243    1.389   .     A
C243   C292    1.445   .     S
C244   C261    1.401   .     A
C244   H276    1.075   .     S
C245   C260    1.391   .     A
C245   C261    1.399   .     A
C245   H267    1.083   .     S
C246   C262    1.403   .     A
C246   C248    1.484   .     S
C247   C294    1.445   .     S
C247   C253    1.413   .     A
C247   C426    1.387   .     S
C248   O284    1.309   .     A
C248   O285    1.292   .     A
C249   H268    1.085   .     S
C249   C250    1.394   .     A
C250   C258    1.439   .     S
C250   C251    1.394   .     A
C251   H269    1.085   .     S
C252   C290    1.447   .     S
C252   C253    1.414   .     A
C252   C428    1.388   .     S
C254   H270    1.079   .     S
C254   N281    1.367   .     A
C254   C314    1.417   .     S
C255   H271    1.082   .     S
C255   N280    1.367   .     A
C256   N280    1.367   .     A
C256   H272    1.082   .     S
C257   N281    1.368   .     A
C257   H273    1.082   .     S
C257   C315    1.417   .     S
C258   O286    1.290   .     A
C258   O287    1.289   .     A
C259   O288    1.294   .     A
C259   O289    1.298   .     A
C259   C261    1.464   .     S
C260   C772    1.399   1_554 S
C260   H806    1.080   1_554 S
C262   C263    1.390   .     A
C262   H277    1.083   .     S
C263   C795    1.389   .     S
C263   H810    1.079   .     S
C264   H278    1.077   .     S
C264   C794    1.389   1_554 S
C264   C769    1.414   1_554 S
Cu265  Cu266   2.681   .     S
Cu265  O282    1.959   .     S
Cu265  O286    1.961   .     S
Cu265  N280    2.015   .     S
Cu265  O284    1.954   .     S
Cu265  O288    1.947   .     S
Cu266  O287    1.959   .     S
Cu266  N281    2.015   .     S
Cu266  O285    1.947   .     S
Cu266  O289    1.954   .     S
Cu266  O283    1.961   .     S
H275   C791    1.080   .     S
H279   C794    1.079   1_554 S
C290   N291    1.158   .     T
C292   N293    1.157   .     T
C294   N295    1.157   .     T
C296   C312    1.453   .     S
C296   O342    1.292   .     A
C296   O341    1.290   .     A
C297   C298    1.418   .     A
C297   C830    1.423   .     S
C297   C854    1.414   .     S
C298   C305    1.429   .     A
C298   C302    1.420   .     A
C299   C303    1.402   .     A
C299   C828    1.423   1_554 S
C299   C831    1.417   1_554 S
C300   C301    1.390   .     A
C300   C830    1.417   .     S
C300   C850    1.399   .     S
C301   H333    1.086   .     S
C301   C302    1.389   .     A
C302   C351    1.445   .     S
C303   C320    1.401   .     A
C303   H335    1.075   .     S
C304   C319    1.391   .     A
C304   C320    1.399   .     A
C304   H326    1.083   .     S
C305   C321    1.403   .     A
C305   C307    1.484   .     S
C306   C353    1.445   .     S
C306   C312    1.413   .     A
C306   C485    1.387   .     S
C307   O343    1.309   .     A
C307   O344    1.292   .     A
C308   H327    1.085   .     S
C308   C309    1.394   .     A
C309   C317    1.439   .     S
C309   C310    1.394   .     A
C310   H328    1.085   .     S
C311   C349    1.447   .     S
C311   C312    1.414   .     A
C311   C487    1.388   .     S
C313   H329    1.079   .     S
C313   N340    1.367   .     A
C313   C196    1.417   1_655 S
C314   H330    1.082   .     S
C314   N339    1.367   .     A
C315   N339    1.367   .     A
C315   H331    1.082   .     S
C316   N340    1.368   .     A
C316   H332    1.082   .     S
C316   C197    1.417   1_655 S
C317   O345    1.290   .     A
C317   O346    1.289   .     A
C318   O347    1.294   .     A
C318   O348    1.298   .     A
C318   C320    1.464   .     S
C319   C831    1.399   1_554 S
C319   H865    1.080   1_554 S
C321   C322    1.390   .     A
C321   H336    1.083   .     S
C322   C854    1.389   .     S
C322   H869    1.079   .     S
C323   H337    1.077   .     S
C323   C853    1.389   1_554 S
C323   C828    1.414   1_554 S
Cu324  Cu325   2.681   .     S
Cu324  O341    1.959   .     S
Cu324  O345    1.961   .     S
Cu324  N339    2.015   .     S
Cu324  O343    1.954   .     S
Cu324  O347    1.947   .     S
Cu325  O346    1.959   .     S
Cu325  N340    2.015   .     S
Cu325  O344    1.947   .     S
Cu325  O348    1.954   .     S
Cu325  O342    1.961   .     S
H334   C850    1.080   .     S
H338   C853    1.079   1_554 S
C349   N350    1.158   .     T
C351   N352    1.157   .     T
C353   N354    1.157   .     T
C355   C371    1.453   .     S
C355   O401    1.292   .     A
C355   O400    1.290   .     A
C356   C357    1.418   .     A
C356   C889    1.423   .     S
C356   C913    1.414   .     S
C357   C364    1.429   .     A
C357   C361    1.420   .     A
C358   C362    1.402   .     A
C358   C887    1.423   1_554 S
C358   C890    1.417   1_554 S
C359   C360    1.390   .     A
C359   C889    1.417   .     S
C359   C909    1.399   .     S
C360   H392    1.086   .     S
C360   C361    1.389   .     A
C361   C410    1.445   .     S
C362   C379    1.401   .     A
C362   H394    1.075   .     S
C363   C378    1.391   .     A
C363   C379    1.399   .     A
C363   H385    1.083   .     S
C364   C380    1.403   .     A
C364   C366    1.484   .     S
C365   C412    1.445   .     S
C365   C371    1.413   .     A
C365   C13     1.387   1_565 S
C366   O402    1.309   .     A
C366   O403    1.292   .     A
C367   H386    1.085   .     S
C367   C368    1.394   .     A
C368   C376    1.439   .     S
C368   C369    1.394   .     A
C369   H387    1.085   .     S
C370   C408    1.447   .     S
C370   C371    1.414   .     A
C370   C15     1.388   1_565 S
C372   H388    1.079   .     S
C372   N399    1.367   .     A
C372   C432    1.417   .     S
C373   H389    1.082   .     S
C373   N398    1.367   .     A
C373   C490    1.417   1_455 S
C374   N398    1.367   .     A
C374   H390    1.082   .     S
C374   C493    1.417   1_455 S
C375   N399    1.368   .     A
C375   H391    1.082   .     S
C375   C433    1.417   .     S
C376   O404    1.290   .     A
C376   O405    1.289   .     A
C377   O406    1.294   .     A
C377   O407    1.298   .     A
C377   C379    1.464   .     S
C378   C890    1.399   1_554 S
C378   H924    1.080   1_554 S
C380   C381    1.390   .     A
C380   H395    1.083   .     S
C381   C913    1.389   .     S
C381   H928    1.079   .     S
C382   H396    1.077   .     S
C382   C912    1.389   1_554 S
C382   C887    1.414   1_554 S
Cu383  Cu384   2.681   .     S
Cu383  O400    1.959   .     S
Cu383  O404    1.961   .     S
Cu383  N398    2.015   .     S
Cu383  O402    1.954   .     S
Cu383  O406    1.947   .     S
Cu384  O405    1.959   .     S
Cu384  N399    2.015   .     S
Cu384  O403    1.947   .     S
Cu384  O407    1.954   .     S
Cu384  O401    1.961   .     S
H393   C909    1.080   .     S
H397   C912    1.079   1_554 S
C408   N409    1.158   .     T
C410   N411    1.157   .     T
C412   N413    1.157   .     T
C414   C430    1.453   .     S
C414   O460    1.292   .     A
C414   O459    1.290   .     A
C415   C416    1.418   .     A
C415   C948    1.423   .     S
C415   C972    1.414   .     S
C416   C423    1.429   .     A
C416   C420    1.420   .     A
C417   C421    1.402   .     A
C417   C946    1.423   1_554 S
C417   C949    1.417   1_554 S
C418   C419    1.390   .     A
C418   C948    1.417   .     S
C418   C968    1.399   .     S
C419   H451    1.086   .     S
C419   C420    1.389   .     A
C420   C469    1.445   .     S
C421   C438    1.401   .     A
C421   H453    1.075   .     S
C422   C437    1.391   .     A
C422   C438    1.399   .     A
C422   H444    1.083   .     S
C423   C439    1.403   .     A
C423   C425    1.484   .     S
C424   C471    1.445   .     S
C424   C430    1.413   .     A
C424   C72     1.387   1_565 S
C425   O461    1.309   .     A
C425   O462    1.292   .     A
C426   H445    1.085   .     S
C426   C427    1.394   .     A
C427   C435    1.439   .     S
C427   C428    1.394   .     A
C428   H446    1.085   .     S
C429   C467    1.447   .     S
C429   C430    1.414   .     A
C429   C74     1.388   1_565 S
C431   H447    1.079   .     S
C431   N458    1.367   .     A
C431   C491    1.417   .     S
C432   H448    1.082   .     S
C432   N457    1.367   .     A
C433   N457    1.367   .     A
C433   H449    1.082   .     S
C434   N458    1.368   .     A
C434   H450    1.082   .     S
C434   C492    1.417   .     S
C435   O463    1.290   .     A
C435   O464    1.289   .     A
C436   O465    1.294   .     A
C436   O466    1.298   .     A
C436   C438    1.464   .     S
C437   C949    1.399   1_554 S
C437   H983    1.080   1_554 S
C439   C440    1.390   .     A
C439   H454    1.083   .     S
C440   C972    1.389   .     S
C440   H987    1.079   .     S
C441   H455    1.077   .     S
C441   C971    1.389   1_554 S
C441   C946    1.414   1_554 S
Cu442  Cu443   2.681   .     S
Cu442  O459    1.959   .     S
Cu442  O463    1.961   .     S
Cu442  N457    2.015   .     S
Cu442  O461    1.954   .     S
Cu442  O465    1.947   .     S
Cu443  O464    1.959   .     S
Cu443  N458    2.015   .     S
Cu443  O462    1.947   .     S
Cu443  O466    1.954   .     S
Cu443  O460    1.961   .     S
H452   C968    1.080   .     S
H456   C971    1.079   1_554 S
C467   N468    1.158   .     T
C469   N470    1.157   .     T
C471   N472    1.157   .     T
C473   C489    1.453   .     S
C473   O519    1.292   .     A
C473   O518    1.290   .     A
C474   C475    1.418   .     A
C474   C1007   1.423   .     S
C474   C1031   1.414   .     S
C475   C482    1.429   .     A
C475   C479    1.420   .     A
C476   C480    1.402   .     A
C476   C1005   1.423   1_554 S
C476   C1008   1.417   1_554 S
C477   C478    1.390   .     A
C477   C1007   1.417   .     S
C477   C1027   1.399   .     S
C478   H510    1.086   .     S
C478   C479    1.389   .     A
C479   C528    1.445   .     S
C480   C497    1.401   .     A
C480   H512    1.075   .     S
C481   C496    1.391   .     A
C481   C497    1.399   .     A
C481   H503    1.083   .     S
C482   C498    1.403   .     A
C482   C484    1.484   .     S
C483   C530    1.445   .     S
C483   C489    1.413   .     A
C483   C131    1.387   1_565 S
C484   O520    1.309   .     A
C484   O521    1.292   .     A
C485   H504    1.085   .     S
C485   C486    1.394   .     A
C486   C494    1.439   .     S
C486   C487    1.394   .     A
C487   H505    1.085   .     S
C488   C526    1.447   .     S
C488   C489    1.414   .     A
C488   C133    1.388   1_565 S
C490   H506    1.079   .     S
C490   N517    1.367   .     A
C490   C373    1.417   1_655 S
C491   H507    1.082   .     S
C491   N516    1.367   .     A
C492   N516    1.367   .     A
C492   H508    1.082   .     S
C493   N517    1.368   .     A
C493   H509    1.082   .     S
C493   C374    1.417   1_655 S
C494   O522    1.290   .     A
C494   O523    1.289   .     A
C495   O524    1.294   .     A
C495   O525    1.298   .     A
C495   C497    1.464   .     S
C496   C1008   1.399   1_554 S
C496   H1042   1.080   1_554 S
C498   C499    1.390   .     A
C498   H513    1.083   .     S
C499   C1031   1.389   .     S
C499   H1046   1.079   .     S
C500   H514    1.077   .     S
C500   C1030   1.389   1_554 S
C500   C1005   1.414   1_554 S
Cu501  Cu502   2.681   .     S
Cu501  O518    1.959   .     S
Cu501  O522    1.961   .     S
Cu501  N516    2.015   .     S
Cu501  O520    1.954   .     S
Cu501  O524    1.947   .     S
Cu502  O523    1.959   .     S
Cu502  N517    2.015   .     S
Cu502  O521    1.947   .     S
Cu502  O525    1.954   .     S
Cu502  O519    1.961   .     S
H511   C1027   1.080   .     S
H515   C1030   1.079   1_554 S
C526   N527    1.158   .     T
C528   N529    1.157   .     T
C530   N531    1.157   .     T
C532   C548    1.453   .     S
C532   O578    1.292   .     A
C532   O577    1.290   .     A
C533   C534    1.418   .     A
C533   C4      1.423   1_556 S
C533   C28     1.414   1_556 S
C534   C541    1.429   .     A
C534   C538    1.420   .     A
C535   C539    1.402   .     A
C536   C537    1.390   .     A
C536   C4      1.417   1_556 S
C536   C24     1.399   1_556 S
C537   H569    1.086   .     S
C537   C538    1.389   .     A
C538   C587    1.445   .     S
C539   C556    1.401   .     A
C539   H571    1.075   .     S
C540   C555    1.391   .     A
C540   C556    1.399   .     A
C540   H562    1.083   .     S
C541   C557    1.403   .     A
C541   C543    1.484   .     S
C542   C589    1.445   .     S
C542   C548    1.413   .     A
C542   C721    1.387   .     S
C543   O579    1.309   .     A
C543   O580    1.292   .     A
C544   H563    1.085   .     S
C544   C545    1.394   .     A
C544   C896    1.387   1_545 S
C545   C553    1.439   .     S
C545   C546    1.394   .     A
C546   H564    1.085   .     S
C546   C901    1.388   1_545 S
C547   C585    1.447   .     S
C547   C548    1.414   .     A
C547   C723    1.388   .     S
C549   H565    1.079   .     S
C549   N576    1.367   .     A
C549   C609    1.417   .     S
C550   H566    1.082   .     S
C550   N575    1.367   .     A
C550   C667    1.417   1_455 S
C551   N575    1.367   .     A
C551   H567    1.082   .     S
C551   C670    1.417   1_455 S
C552   N576    1.368   .     A
C552   H568    1.082   .     S
C552   C610    1.417   .     S
C553   O581    1.290   .     A
C553   O582    1.289   .     A
C554   O583    1.294   .     A
C554   O584    1.298   .     A
C554   C556    1.464   .     S
C557   C558    1.390   .     A
C557   H572    1.083   .     S
C558   C28     1.389   1_556 S
C558   H43     1.079   1_556 S
C559   H573    1.077   .     S
Cu560  Cu561   2.681   .     S
Cu560  O577    1.959   .     S
Cu560  O581    1.961   .     S
Cu560  N575    2.015   .     S
Cu560  O579    1.954   .     S
Cu560  O583    1.947   .     S
Cu561  O582    1.959   .     S
Cu561  N576    2.015   .     S
Cu561  O580    1.947   .     S
Cu561  O584    1.954   .     S
Cu561  O578    1.961   .     S
H570   C24     1.080   1_556 S
C585   N586    1.158   .     T
C587   N588    1.157   .     T
C589   N590    1.157   .     T
C591   C607    1.453   .     S
C591   O637    1.292   .     A
C591   O636    1.290   .     A
C592   C593    1.418   .     A
C592   C63     1.423   1_556 S
C592   C87     1.414   1_556 S
C593   C600    1.429   .     A
C593   C597    1.420   .     A
C594   C598    1.402   .     A
C595   C596    1.390   .     A
C595   C63     1.417   1_556 S
C595   C83     1.399   1_556 S
C596   H628    1.086   .     S
C596   C597    1.389   .     A
C597   C646    1.445   .     S
C598   C615    1.401   .     A
C598   H630    1.075   .     S
C599   C614    1.391   .     A
C599   C615    1.399   .     A
C599   H621    1.083   .     S
C600   C616    1.403   .     A
C600   C602    1.484   .     S
C601   C648    1.445   .     S
C601   C607    1.413   .     A
C601   C780    1.387   .     S
C602   O638    1.309   .     A
C602   O639    1.292   .     A
C603   H622    1.085   .     S
C603   C604    1.394   .     A
C603   C955    1.387   1_545 S
C604   C612    1.439   .     S
C604   C605    1.394   .     A
C605   H623    1.085   .     S
C605   C960    1.388   1_545 S
C606   C644    1.447   .     S
C606   C607    1.414   .     A
C606   C782    1.388   .     S
C608   H624    1.079   .     S
C608   N635    1.367   .     A
C608   C668    1.417   .     S
C609   H625    1.082   .     S
C609   N634    1.367   .     A
C610   N634    1.367   .     A
C610   H626    1.082   .     S
C611   N635    1.368   .     A
C611   H627    1.082   .     S
C611   C669    1.417   .     S
C612   O640    1.290   .     A
C612   O641    1.289   .     A
C613   O642    1.294   .     A
C613   O643    1.298   .     A
C613   C615    1.464   .     S
C616   C617    1.390   .     A
C616   H631    1.083   .     S
C617   C87     1.389   1_556 S
C617   H102    1.079   1_556 S
C618   H632    1.077   .     S
Cu619  Cu620   2.681   .     S
Cu619  O636    1.959   .     S
Cu619  O640    1.961   .     S
Cu619  N634    2.015   .     S
Cu619  O638    1.954   .     S
Cu619  O642    1.947   .     S
Cu620  O641    1.959   .     S
Cu620  N635    2.015   .     S
Cu620  O639    1.947   .     S
Cu620  O643    1.954   .     S
Cu620  O637    1.961   .     S
H629   C83     1.080   1_556 S
C644   N645    1.158   .     T
C646   N647    1.157   .     T
C648   N649    1.157   .     T
C650   C666    1.453   .     S
C650   O696    1.292   .     A
C650   O695    1.290   .     A
C651   C652    1.418   .     A
C651   C122    1.423   1_556 S
C651   C146    1.414   1_556 S
C652   C659    1.429   .     A
C652   C656    1.420   .     A
C653   C657    1.402   .     A
C654   C655    1.390   .     A
C654   C122    1.417   1_556 S
C654   C142    1.399   1_556 S
C655   H687    1.086   .     S
C655   C656    1.389   .     A
C656   C705    1.445   .     S
C657   C674    1.401   .     A
C657   H689    1.075   .     S
C658   C673    1.391   .     A
C658   C674    1.399   .     A
C658   H680    1.083   .     S
C659   C675    1.403   .     A
C659   C661    1.484   .     S
C660   C707    1.445   .     S
C660   C666    1.413   .     A
C660   C839    1.387   .     S
C661   O697    1.309   .     A
C661   O698    1.292   .     A
C662   H681    1.085   .     S
C662   C663    1.394   .     A
C662   C1014   1.387   1_545 S
C663   C671    1.439   .     S
C663   C664    1.394   .     A
C664   H682    1.085   .     S
C664   C1019   1.388   1_545 S
C665   C703    1.447   .     S
C665   C666    1.414   .     A
C665   C841    1.388   .     S
C667   H683    1.079   .     S
C667   N694    1.367   .     A
C667   C550    1.417   1_655 S
C668   H684    1.082   .     S
C668   N693    1.367   .     A
C669   N693    1.367   .     A
C669   H685    1.082   .     S
C670   N694    1.368   .     A
C670   H686    1.082   .     S
C670   C551    1.417   1_655 S
C671   O699    1.290   .     A
C671   O700    1.289   .     A
C672   O701    1.294   .     A
C672   O702    1.298   .     A
C672   C674    1.464   .     S
C675   C676    1.390   .     A
C675   H690    1.083   .     S
C676   C146    1.389   1_556 S
C676   H161    1.079   1_556 S
C677   H691    1.077   .     S
Cu678  Cu679   2.681   .     S
Cu678  O695    1.959   .     S
Cu678  O699    1.961   .     S
Cu678  N693    2.015   .     S
Cu678  O697    1.954   .     S
Cu678  O701    1.947   .     S
Cu679  O700    1.959   .     S
Cu679  N694    2.015   .     S
Cu679  O698    1.947   .     S
Cu679  O702    1.954   .     S
Cu679  O696    1.961   .     S
H688   C142    1.080   1_556 S
C703   N704    1.158   .     T
C705   N706    1.157   .     T
C707   N708    1.157   .     T
C709   C725    1.453   .     S
C709   O755    1.292   .     A
C709   O754    1.290   .     A
C710   C711    1.418   .     A
C710   C181    1.423   1_556 S
C710   C205    1.414   1_556 S
C711   C718    1.429   .     A
C711   C715    1.420   .     A
C712   C716    1.402   .     A
C713   C714    1.390   .     A
C713   C181    1.417   1_556 S
C713   C201    1.399   1_556 S
C714   H746    1.086   .     S
C714   C715    1.389   .     A
C715   C764    1.445   .     S
C716   C733    1.401   .     A
C716   H748    1.075   .     S
C717   C732    1.391   .     A
C717   C733    1.399   .     A
C717   H739    1.083   .     S
C718   C734    1.403   .     A
C718   C720    1.484   .     S
C719   C766    1.445   .     S
C719   C725    1.413   .     A
C719   C898    1.387   .     S
C720   O756    1.309   .     A
C720   O757    1.292   .     A
C721   H740    1.085   .     S
C721   C722    1.394   .     A
C722   C730    1.439   .     S
C722   C723    1.394   .     A
C723   H741    1.085   .     S
C724   C762    1.447   .     S
C724   C725    1.414   .     A
C724   C900    1.388   .     S
C726   H742    1.079   .     S
C726   N753    1.367   .     A
C726   C786    1.417   .     S
C727   H743    1.082   .     S
C727   N752    1.367   .     A
C727   C844    1.417   1_455 S
C728   N752    1.367   .     A
C728   H744    1.082   .     S
C728   C847    1.417   1_455 S
C729   N753    1.368   .     A
C729   H745    1.082   .     S
C729   C787    1.417   .     S
C730   O758    1.290   .     A
C730   O759    1.289   .     A
C731   O760    1.294   .     A
C731   O761    1.298   .     A
C731   C733    1.464   .     S
C734   C735    1.390   .     A
C734   H749    1.083   .     S
C735   C205    1.389   1_556 S
C735   H220    1.079   1_556 S
C736   H750    1.077   .     S
Cu737  Cu738   2.681   .     S
Cu737  O754    1.959   .     S
Cu737  O758    1.961   .     S
Cu737  N752    2.015   .     S
Cu737  O756    1.954   .     S
Cu737  O760    1.947   .     S
Cu738  O759    1.959   .     S
Cu738  N753    2.015   .     S
Cu738  O757    1.947   .     S
Cu738  O761    1.954   .     S
Cu738  O755    1.961   .     S
H747   C201    1.080   1_556 S
C762   N763    1.158   .     T
C764   N765    1.157   .     T
C766   N767    1.157   .     T
C768   C784    1.453   .     S
C768   O814    1.292   .     A
C768   O813    1.290   .     A
C769   C770    1.418   .     A
C769   C240    1.423   1_556 S
C769   C264    1.414   1_556 S
C770   C777    1.429   .     A
C770   C774    1.420   .     A
C771   C775    1.402   .     A
C772   C773    1.390   .     A
C772   C240    1.417   1_556 S
C772   C260    1.399   1_556 S
C773   H805    1.086   .     S
C773   C774    1.389   .     A
C774   C823    1.445   .     S
C775   C792    1.401   .     A
C775   H807    1.075   .     S
C776   C791    1.391   .     A
C776   C792    1.399   .     A
C776   H798    1.083   .     S
C777   C793    1.403   .     A
C777   C779    1.484   .     S
C778   C825    1.445   .     S
C778   C784    1.413   .     A
C778   C957    1.387   .     S
C779   O815    1.309   .     A
C779   O816    1.292   .     A
C780   H799    1.085   .     S
C780   C781    1.394   .     A
C781   C789    1.439   .     S
C781   C782    1.394   .     A
C782   H800    1.085   .     S
C783   C821    1.447   .     S
C783   C784    1.414   .     A
C783   C959    1.388   .     S
C785   H801    1.079   .     S
C785   N812    1.367   .     A
C785   C845    1.417   .     S
C786   H802    1.082   .     S
C786   N811    1.367   .     A
C787   N811    1.367   .     A
C787   H803    1.082   .     S
C788   N812    1.368   .     A
C788   H804    1.082   .     S
C788   C846    1.417   .     S
C789   O817    1.290   .     A
C789   O818    1.289   .     A
C790   O819    1.294   .     A
C790   O820    1.298   .     A
C790   C792    1.464   .     S
C793   C794    1.390   .     A
C793   H808    1.083   .     S
C794   C264    1.389   1_556 S
C794   H279    1.079   1_556 S
C795   H809    1.077   .     S
Cu796  Cu797   2.681   .     S
Cu796  O813    1.959   .     S
Cu796  O817    1.961   .     S
Cu796  N811    2.015   .     S
Cu796  O815    1.954   .     S
Cu796  O819    1.947   .     S
Cu797  O818    1.959   .     S
Cu797  N812    2.015   .     S
Cu797  O816    1.947   .     S
Cu797  O820    1.954   .     S
Cu797  O814    1.961   .     S
H806   C260    1.080   1_556 S
C821   N822    1.158   .     T
C823   N824    1.157   .     T
C825   N826    1.157   .     T
C827   C843    1.453   .     S
C827   O873    1.292   .     A
C827   O872    1.290   .     A
C828   C829    1.418   .     A
C828   C299    1.423   1_556 S
C828   C323    1.414   1_556 S
C829   C836    1.429   .     A
C829   C833    1.420   .     A
C830   C834    1.402   .     A
C831   C832    1.390   .     A
C831   C299    1.417   1_556 S
C831   C319    1.399   1_556 S
C832   H864    1.086   .     S
C832   C833    1.389   .     A
C833   C882    1.445   .     S
C834   C851    1.401   .     A
C834   H866    1.075   .     S
C835   C850    1.391   .     A
C835   C851    1.399   .     A
C835   H857    1.083   .     S
C836   C852    1.403   .     A
C836   C838    1.484   .     S
C837   C884    1.445   .     S
C837   C843    1.413   .     A
C837   C1016   1.387   .     S
C838   O874    1.309   .     A
C838   O875    1.292   .     A
C839   H858    1.085   .     S
C839   C840    1.394   .     A
C840   C848    1.439   .     S
C840   C841    1.394   .     A
C841   H859    1.085   .     S
C842   C880    1.447   .     S
C842   C843    1.414   .     A
C842   C1018   1.388   .     S
C844   H860    1.079   .     S
C844   N871    1.367   .     A
C844   C727    1.417   1_655 S
C845   H861    1.082   .     S
C845   N870    1.367   .     A
C846   N870    1.367   .     A
C846   H862    1.082   .     S
C847   N871    1.368   .     A
C847   H863    1.082   .     S
C847   C728    1.417   1_655 S
C848   O876    1.290   .     A
C848   O877    1.289   .     A
C849   O878    1.294   .     A
C849   O879    1.298   .     A
C849   C851    1.464   .     S
C852   C853    1.390   .     A
C852   H867    1.083   .     S
C853   C323    1.389   1_556 S
C853   H338    1.079   1_556 S
C854   H868    1.077   .     S
Cu855  Cu856   2.681   .     S
Cu855  O872    1.959   .     S
Cu855  O876    1.961   .     S
Cu855  N870    2.015   .     S
Cu855  O874    1.954   .     S
Cu855  O878    1.947   .     S
Cu856  O877    1.959   .     S
Cu856  N871    2.015   .     S
Cu856  O875    1.947   .     S
Cu856  O879    1.954   .     S
Cu856  O873    1.961   .     S
H865   C319    1.080   1_556 S
C880   N881    1.158   .     T
C882   N883    1.157   .     T
C884   N885    1.157   .     T
C886   C902    1.453   .     S
C886   O932    1.292   .     A
C886   O931    1.290   .     A
C887   C888    1.418   .     A
C887   C358    1.423   1_556 S
C887   C382    1.414   1_556 S
C888   C895    1.429   .     A
C888   C892    1.420   .     A
C889   C893    1.402   .     A
C890   C891    1.390   .     A
C890   C358    1.417   1_556 S
C890   C378    1.399   1_556 S
C891   H923    1.086   .     S
C891   C892    1.389   .     A
C892   C941    1.445   .     S
C893   C910    1.401   .     A
C893   H925    1.075   .     S
C894   C909    1.391   .     A
C894   C910    1.399   .     A
C894   H916    1.083   .     S
C895   C911    1.403   .     A
C895   C897    1.484   .     S
C896   C943    1.445   .     S
C896   C902    1.413   .     A
C896   C544    1.387   1_565 S
C897   O933    1.309   .     A
C897   O934    1.292   .     A
C898   H917    1.085   .     S
C898   C899    1.394   .     A
C899   C907    1.439   .     S
C899   C900    1.394   .     A
C900   H918    1.085   .     S
C901   C939    1.447   .     S
C901   C902    1.414   .     A
C901   C546    1.388   1_565 S
C903   H919    1.079   .     S
C903   N930    1.367   .     A
C903   C963    1.417   .     S
C904   H920    1.082   .     S
C904   N929    1.367   .     A
C904   C1021   1.417   1_455 S
C905   N929    1.367   .     A
C905   H921    1.082   .     S
C905   C1024   1.417   1_455 S
C906   N930    1.368   .     A
C906   H922    1.082   .     S
C906   C964    1.417   .     S
C907   O935    1.290   .     A
C907   O936    1.289   .     A
C908   O937    1.294   .     A
C908   O938    1.298   .     A
C908   C910    1.464   .     S
C911   C912    1.390   .     A
C911   H926    1.083   .     S
C912   C382    1.389   1_556 S
C912   H397    1.079   1_556 S
C913   H927    1.077   .     S
Cu914  Cu915   2.681   .     S
Cu914  O931    1.959   .     S
Cu914  O935    1.961   .     S
Cu914  N929    2.015   .     S
Cu914  O933    1.954   .     S
Cu914  O937    1.947   .     S
Cu915  O936    1.959   .     S
Cu915  N930    2.015   .     S
Cu915  O934    1.947   .     S
Cu915  O938    1.954   .     S
Cu915  O932    1.961   .     S
H924   C378    1.080   1_556 S
C939   N940    1.158   .     T
C941   N942    1.157   .     T
C943   N944    1.157   .     T
C945   C961    1.453   .     S
C945   O991    1.292   .     A
C945   O990    1.290   .     A
C946   C947    1.418   .     A
C946   C417    1.423   1_556 S
C946   C441    1.414   1_556 S
C947   C954    1.429   .     A
C947   C951    1.420   .     A
C948   C952    1.402   .     A
C949   C950    1.390   .     A
C949   C417    1.417   1_556 S
C949   C437    1.399   1_556 S
C950   H982    1.086   .     S
C950   C951    1.389   .     A
C951   C1000   1.445   .     S
C952   C969    1.401   .     A
C952   H984    1.075   .     S
C953   C968    1.391   .     A
C953   C969    1.399   .     A
C953   H975    1.083   .     S
C954   C970    1.403   .     A
C954   C956    1.484   .     S
C955   C1002   1.445   .     S
C955   C961    1.413   .     A
C955   C603    1.387   1_565 S
C956   O992    1.309   .     A
C956   O993    1.292   .     A
C957   H976    1.085   .     S
C957   C958    1.394   .     A
C958   C966    1.439   .     S
C958   C959    1.394   .     A
C959   H977    1.085   .     S
C960   C998    1.447   .     S
C960   C961    1.414   .     A
C960   C605    1.388   1_565 S
C962   H978    1.079   .     S
C962   N989    1.367   .     A
C962   C1022   1.417   .     S
C963   H979    1.082   .     S
C963   N988    1.367   .     A
C964   N988    1.367   .     A
C964   H980    1.082   .     S
C965   N989    1.368   .     A
C965   H981    1.082   .     S
C965   C1023   1.417   .     S
C966   O994    1.290   .     A
C966   O995    1.289   .     A
C967   O996    1.294   .     A
C967   O997    1.298   .     A
C967   C969    1.464   .     S
C970   C971    1.390   .     A
C970   H985    1.083   .     S
C971   C441    1.389   1_556 S
C971   H456    1.079   1_556 S
C972   H986    1.077   .     S
Cu973  Cu974   2.681   .     S
Cu973  O990    1.959   .     S
Cu973  O994    1.961   .     S
Cu973  N988    2.015   .     S
Cu973  O992    1.954   .     S
Cu973  O996    1.947   .     S
Cu974  O995    1.959   .     S
Cu974  N989    2.015   .     S
Cu974  O993    1.947   .     S
Cu974  O997    1.954   .     S
Cu974  O991    1.961   .     S
H983   C437    1.080   1_556 S
C998   N999    1.158   .     T
C1000  N1001   1.157   .     T
C1002  N1003   1.157   .     T
C1004  C1020   1.453   .     S
C1004  O1050   1.292   .     A
C1004  O1049   1.290   .     A
C1005  C1006   1.418   .     A
C1005  C476    1.423   1_556 S
C1005  C500    1.414   1_556 S
C1006  C1013   1.429   .     A
C1006  C1010   1.420   .     A
C1007  C1011   1.402   .     A
C1008  C1009   1.390   .     A
C1008  C476    1.417   1_556 S
C1008  C496    1.399   1_556 S
C1009  H1041   1.086   .     S
C1009  C1010   1.389   .     A
C1010  C1059   1.445   .     S
C1011  C1028   1.401   .     A
C1011  H1043   1.075   .     S
C1012  C1027   1.391   .     A
C1012  C1028   1.399   .     A
C1012  H1034   1.083   .     S
C1013  C1029   1.403   .     A
C1013  C1015   1.484   .     S
C1014  C1061   1.445   .     S
C1014  C1020   1.413   .     A
C1014  C662    1.387   1_565 S
C1015  O1051   1.309   .     A
C1015  O1052   1.292   .     A
C1016  H1035   1.085   .     S
C1016  C1017   1.394   .     A
C1017  C1025   1.439   .     S
C1017  C1018   1.394   .     A
C1018  H1036   1.085   .     S
C1019  C1057   1.447   .     S
C1019  C1020   1.414   .     A
C1019  C664    1.388   1_565 S
C1021  H1037   1.079   .     S
C1021  N1048   1.367   .     A
C1021  C904    1.417   1_655 S
C1022  H1038   1.082   .     S
C1022  N1047   1.367   .     A
C1023  N1047   1.367   .     A
C1023  H1039   1.082   .     S
C1024  N1048   1.368   .     A
C1024  H1040   1.082   .     S
C1024  C905    1.417   1_655 S
C1025  O1053   1.290   .     A
C1025  O1054   1.289   .     A
C1026  O1055   1.294   .     A
C1026  O1056   1.298   .     A
C1026  C1028   1.464   .     S
C1029  C1030   1.390   .     A
C1029  H1044   1.083   .     S
C1030  C500    1.389   1_556 S
C1030  H515    1.079   1_556 S
C1031  H1045   1.077   .     S
Cu1032 Cu1033  2.681   .     S
Cu1032 O1049   1.959   .     S
Cu1032 O1053   1.961   .     S
Cu1032 N1047   2.015   .     S
Cu1032 O1051   1.954   .     S
Cu1032 O1055   1.947   .     S
Cu1033 O1054   1.959   .     S
Cu1033 N1048   2.015   .     S
Cu1033 O1052   1.947   .     S
Cu1033 O1056   1.954   .     S
Cu1033 O1050   1.961   .     S
H1042  C496    1.080   1_556 S
C1057  N1058   1.158   .     T
C1059  N1060   1.157   .     T
C1061  N1062   1.157   .     T
