data_str_m2_o2_o10_pcu_sym.36
_audit_creation_date              2020-01-03
_audit_creation_method            'Materials Studio'
_symmetry_space_group_name_H-M    'P1'
_symmetry_Int_Tables_number       1
_symmetry_cell_setting            triclinic
loop_
_symmetry_equiv_pos_as_xyz
  x,y,z
_cell_length_a                    26.4798
_cell_length_b                    30.1990
_cell_length_c                    27.8448
_cell_angle_alpha                 90.5155
_cell_angle_beta                  98.4653
_cell_angle_gamma                 90.9802
loop_
_atom_site_label
_atom_site_type_symbol
_atom_site_fract_x
_atom_site_fract_y
_atom_site_fract_z
_atom_site_U_iso_or_equiv
_atom_site_adp_type
_atom_site_occupancy
C1     C     0.16700   0.16498   0.24990   0.00000  Uiso   1.00
C2     C     0.19517   0.28113   0.45049   0.00000  Uiso   1.00
C3     C     0.16754   0.24961   0.02748   0.00000  Uiso   1.00
C4     C     0.16718   0.24930   0.47270   0.00000  Uiso   1.00
C5     C     0.06798   0.24946   0.23750   0.00000  Uiso   1.00
C6     C     0.26534   0.25084   0.26249   0.00000  Uiso   1.00
C7     C     0.01254   0.24618   0.23086   0.00000  Uiso   1.00
C8     C     0.32074   0.25452   0.26912   0.00000  Uiso   1.00
C9     C     0.19465   0.04903   0.29223   0.00000  Uiso   1.00
C10    C     0.19565   0.45189   0.21669   0.00000  Uiso   1.00
C11    C     0.19217   0.09504   0.29165   0.00000  Uiso   1.00
C12    C     0.16708   0.33501   0.25022   0.00000  Uiso   1.00
C13    C     0.19315   0.40580   0.21636   0.00000  Uiso   1.00
C14    C     0.16878   0.11672   0.25013   0.00000  Uiso   1.00
C15    C     0.16888   0.38328   0.25064   0.00000  Uiso   1.00
C16    C     0.14746   0.09208   0.20910   0.00000  Uiso   1.00
C17    C     0.14675   0.40707   0.28528   0.00000  Uiso   1.00
C18    C     0.14870   0.04610   0.20987   0.00000  Uiso   1.00
C19    C     0.14799   0.45310   0.28503   0.00000  Uiso   1.00
C20    C     0.17248   0.02430   0.25115   0.00000  Uiso   1.00
C21    C     0.17258   0.47578   0.25104   0.00000  Uiso   1.00
C22    C     0.20355   0.27479   0.05985   0.00000  Uiso   1.00
C23    C     0.13906   0.21745   0.44139   0.00000  Uiso   1.00
C24    C     0.20188   0.27505   0.11017   0.00000  Uiso   1.00
C25    C     0.13870   0.21886   0.39081   0.00000  Uiso   1.00
C26    C     0.13247   0.22409   0.09907   0.00000  Uiso   1.00
C27    C     0.19560   0.28041   0.40020   0.00000  Uiso   1.00
C28    C     0.13160   0.22449   0.04863   0.00000  Uiso   1.00
Cl29   Cl    0.22742   0.02373   0.34422   0.00000  Uiso   1.00
Cl30   Cl    0.22953   0.47839   0.17483   0.00000  Uiso   1.00
Cl31   Cl    0.08938   0.18769   0.12139   0.00000  Uiso   1.00
Cl32   Cl    0.23611   0.31908   0.37751   0.00000  Uiso   1.00
Cu33   Cu    0.16667   0.24999   0.29822   0.00000  Uiso   1.00
Cu34   Cu    0.16667   0.25000   0.20178   0.00000  Uiso   1.00
H35    H     0.20943   0.11392   0.32332   0.00000  Uiso   1.00
H36    H     0.11642   0.19445   0.36770   0.00000  Uiso   1.00
H37    H     0.10237   0.20479   0.02674   0.00000  Uiso   1.00
H38    H     0.21707   0.30700   0.47142   0.00000  Uiso   1.00
H39    H     0.00994   0.22750   0.16274   0.00000  Uiso   1.00
H40    H     0.32285   0.27565   0.33633   0.00000  Uiso   1.00
H41    H     0.21107   0.38755   0.18994   0.00000  Uiso   1.00
H42    H     0.12905   0.10829   0.17684   0.00000  Uiso   1.00
H43    H     0.12769   0.39008   0.31187   0.00000  Uiso   1.00
H44    H     0.13099   0.02740   0.17826   0.00000  Uiso   1.00
H45    H     0.12961   0.47114   0.31127   0.00000  Uiso   1.00
H46    H     0.23361   0.29405   0.04732   0.00000  Uiso   1.00
H47    H     0.11760   0.19092   0.45505   0.00000  Uiso   1.00
H48    H     0.22946   0.29495   0.13401   0.00000  Uiso   1.00
N49    N     0.16667   0.25001   0.12934   0.00000  Uiso   1.00
N50    N     0.16667   0.24999   0.37066   0.00000  Uiso   1.00
O51    O     0.16667   0.18572   0.29072   0.00000  Uiso   1.00
O52    O     0.01377   0.26843   0.31369   0.00000  Uiso   1.00
O53    O     0.16666   0.31427   0.20928   0.00000  Uiso   1.00
O54    O     0.16667   0.18573   0.20928   0.00000  Uiso   1.00
O55    O     0.16666   0.31427   0.29072   0.00000  Uiso   1.00
O56    O     0.09161   0.24999   0.28132   0.00000  Uiso   1.00
O57    O     0.24172   0.25000   0.21868   0.00000  Uiso   1.00
O58    O     0.09161   0.25000   0.19988   0.00000  Uiso   1.00
O59    O     0.24172   0.25000   0.30012   0.00000  Uiso   1.00
O60    O     0.31936   0.23270   0.18621   0.00000  Uiso   1.00
C61    C     0.50033   0.16498   0.24990   0.00000  Uiso   1.00
C62    C     0.52850   0.28113   0.45049   0.00000  Uiso   1.00
C63    C     0.50087   0.24961   0.02748   0.00000  Uiso   1.00
C64    C     0.50052   0.24930   0.47270   0.00000  Uiso   1.00
C65    C     0.40131   0.24946   0.23750   0.00000  Uiso   1.00
C66    C     0.59867   0.25084   0.26249   0.00000  Uiso   1.00
C67    C     0.34587   0.24618   0.23086   0.00000  Uiso   1.00
C68    C     0.65408   0.25452   0.26912   0.00000  Uiso   1.00
C69    C     0.52798   0.04903   0.29223   0.00000  Uiso   1.00
C70    C     0.52898   0.45189   0.21669   0.00000  Uiso   1.00
C71    C     0.52550   0.09504   0.29165   0.00000  Uiso   1.00
C72    C     0.50042   0.33501   0.25022   0.00000  Uiso   1.00
C73    C     0.52648   0.40580   0.21636   0.00000  Uiso   1.00
C74    C     0.50211   0.11672   0.25013   0.00000  Uiso   1.00
C75    C     0.50221   0.38328   0.25064   0.00000  Uiso   1.00
C76    C     0.48079   0.09208   0.20910   0.00000  Uiso   1.00
C77    C     0.48008   0.40707   0.28528   0.00000  Uiso   1.00
C78    C     0.48204   0.04610   0.20987   0.00000  Uiso   1.00
C79    C     0.48133   0.45310   0.28503   0.00000  Uiso   1.00
C80    C     0.50582   0.02430   0.25115   0.00000  Uiso   1.00
C81    C     0.50592   0.47578   0.25104   0.00000  Uiso   1.00
C82    C     0.53688   0.27479   0.05985   0.00000  Uiso   1.00
C83    C     0.47239   0.21745   0.44139   0.00000  Uiso   1.00
C84    C     0.53521   0.27505   0.11017   0.00000  Uiso   1.00
C85    C     0.47203   0.21886   0.39081   0.00000  Uiso   1.00
C86    C     0.46581   0.22409   0.09907   0.00000  Uiso   1.00
C87    C     0.52893   0.28041   0.40020   0.00000  Uiso   1.00
C88    C     0.46494   0.22449   0.04863   0.00000  Uiso   1.00
Cl89   Cl    0.56075   0.02373   0.34422   0.00000  Uiso   1.00
Cl90   Cl    0.56287   0.47839   0.17483   0.00000  Uiso   1.00
Cl91   Cl    0.42271   0.18769   0.12139   0.00000  Uiso   1.00
Cl92   Cl    0.56944   0.31908   0.37751   0.00000  Uiso   1.00
Cu93   Cu    0.50000   0.24999   0.29822   0.00000  Uiso   1.00
Cu94   Cu    0.50000   0.25000   0.20178   0.00000  Uiso   1.00
H95    H     0.54276   0.11392   0.32332   0.00000  Uiso   1.00
H96    H     0.44975   0.19445   0.36770   0.00000  Uiso   1.00
H97    H     0.43571   0.20479   0.02674   0.00000  Uiso   1.00
H98    H     0.55041   0.30700   0.47142   0.00000  Uiso   1.00
H99    H     0.34327   0.22750   0.16274   0.00000  Uiso   1.00
H100   H     0.65618   0.27565   0.33633   0.00000  Uiso   1.00
H101   H     0.54440   0.38755   0.18994   0.00000  Uiso   1.00
H102   H     0.46238   0.10829   0.17684   0.00000  Uiso   1.00
H103   H     0.46102   0.39008   0.31187   0.00000  Uiso   1.00
H104   H     0.46432   0.02740   0.17826   0.00000  Uiso   1.00
H105   H     0.46294   0.47114   0.31127   0.00000  Uiso   1.00
H106   H     0.56694   0.29405   0.04732   0.00000  Uiso   1.00
H107   H     0.45094   0.19092   0.45505   0.00000  Uiso   1.00
H108   H     0.56280   0.29495   0.13401   0.00000  Uiso   1.00
N109   N     0.50000   0.25001   0.12934   0.00000  Uiso   1.00
N110   N     0.50000   0.24999   0.37066   0.00000  Uiso   1.00
O111   O     0.50000   0.18572   0.29072   0.00000  Uiso   1.00
O112   O     0.34710   0.26843   0.31369   0.00000  Uiso   1.00
O113   O     0.50000   0.31427   0.20928   0.00000  Uiso   1.00
O114   O     0.50000   0.18573   0.20928   0.00000  Uiso   1.00
O115   O     0.50000   0.31427   0.29072   0.00000  Uiso   1.00
O116   O     0.42495   0.24999   0.28132   0.00000  Uiso   1.00
O117   O     0.57505   0.25000   0.21868   0.00000  Uiso   1.00
O118   O     0.42495   0.25000   0.19988   0.00000  Uiso   1.00
O119   O     0.57505   0.25000   0.30012   0.00000  Uiso   1.00
O120   O     0.65269   0.23270   0.18621   0.00000  Uiso   1.00
C121   C     0.83367   0.16498   0.24990   0.00000  Uiso   1.00
C122   C     0.86184   0.28113   0.45049   0.00000  Uiso   1.00
C123   C     0.83421   0.24961   0.02748   0.00000  Uiso   1.00
C124   C     0.83385   0.24930   0.47270   0.00000  Uiso   1.00
C125   C     0.73465   0.24946   0.23750   0.00000  Uiso   1.00
C126   C     0.93200   0.25084   0.26249   0.00000  Uiso   1.00
C127   C     0.67921   0.24618   0.23086   0.00000  Uiso   1.00
C128   C     0.98741   0.25452   0.26912   0.00000  Uiso   1.00
C129   C     0.86131   0.04903   0.29223   0.00000  Uiso   1.00
C130   C     0.86231   0.45189   0.21669   0.00000  Uiso   1.00
C131   C     0.85884   0.09504   0.29165   0.00000  Uiso   1.00
C132   C     0.83375   0.33501   0.25022   0.00000  Uiso   1.00
C133   C     0.85982   0.40580   0.21636   0.00000  Uiso   1.00
C134   C     0.83544   0.11672   0.25013   0.00000  Uiso   1.00
C135   C     0.83554   0.38328   0.25064   0.00000  Uiso   1.00
C136   C     0.81412   0.09208   0.20910   0.00000  Uiso   1.00
C137   C     0.81342   0.40707   0.28528   0.00000  Uiso   1.00
C138   C     0.81537   0.04610   0.20987   0.00000  Uiso   1.00
C139   C     0.81466   0.45310   0.28503   0.00000  Uiso   1.00
C140   C     0.83915   0.02430   0.25115   0.00000  Uiso   1.00
C141   C     0.83925   0.47578   0.25104   0.00000  Uiso   1.00
C142   C     0.87022   0.27479   0.05985   0.00000  Uiso   1.00
C143   C     0.80572   0.21745   0.44139   0.00000  Uiso   1.00
C144   C     0.86854   0.27505   0.11017   0.00000  Uiso   1.00
C145   C     0.80536   0.21886   0.39081   0.00000  Uiso   1.00
C146   C     0.79914   0.22409   0.09907   0.00000  Uiso   1.00
C147   C     0.86226   0.28041   0.40020   0.00000  Uiso   1.00
C148   C     0.79827   0.22449   0.04863   0.00000  Uiso   1.00
Cl149  Cl    0.89409   0.02373   0.34422   0.00000  Uiso   1.00
Cl150  Cl    0.89620   0.47839   0.17483   0.00000  Uiso   1.00
Cl151  Cl    0.75605   0.18769   0.12139   0.00000  Uiso   1.00
Cl152  Cl    0.90277   0.31908   0.37751   0.00000  Uiso   1.00
Cu153  Cu    0.83333   0.24999   0.29822   0.00000  Uiso   1.00
Cu154  Cu    0.83333   0.25000   0.20178   0.00000  Uiso   1.00
H155   H     0.87609   0.11392   0.32332   0.00000  Uiso   1.00
H156   H     0.78309   0.19445   0.36770   0.00000  Uiso   1.00
H157   H     0.76904   0.20479   0.02674   0.00000  Uiso   1.00
H158   H     0.88374   0.30700   0.47142   0.00000  Uiso   1.00
H159   H     0.67660   0.22750   0.16274   0.00000  Uiso   1.00
H160   H     0.98952   0.27565   0.33633   0.00000  Uiso   1.00
H161   H     0.87774   0.38755   0.18994   0.00000  Uiso   1.00
H162   H     0.79571   0.10829   0.17684   0.00000  Uiso   1.00
H163   H     0.79436   0.39008   0.31187   0.00000  Uiso   1.00
H164   H     0.79765   0.02740   0.17826   0.00000  Uiso   1.00
H165   H     0.79628   0.47114   0.31127   0.00000  Uiso   1.00
H166   H     0.90027   0.29405   0.04732   0.00000  Uiso   1.00
H167   H     0.78427   0.19092   0.45505   0.00000  Uiso   1.00
H168   H     0.89613   0.29495   0.13401   0.00000  Uiso   1.00
N169   N     0.83333   0.25001   0.12934   0.00000  Uiso   1.00
N170   N     0.83333   0.24999   0.37066   0.00000  Uiso   1.00
O171   O     0.83334   0.18572   0.29072   0.00000  Uiso   1.00
O172   O     0.68044   0.26843   0.31369   0.00000  Uiso   1.00
O173   O     0.83333   0.31427   0.20928   0.00000  Uiso   1.00
O174   O     0.83334   0.18573   0.20928   0.00000  Uiso   1.00
O175   O     0.83333   0.31427   0.29072   0.00000  Uiso   1.00
O176   O     0.75828   0.24999   0.28132   0.00000  Uiso   1.00
O177   O     0.90839   0.25000   0.21868   0.00000  Uiso   1.00
O178   O     0.75828   0.25000   0.19988   0.00000  Uiso   1.00
O179   O     0.90839   0.25000   0.30012   0.00000  Uiso   1.00
O180   O     0.98602   0.23270   0.18621   0.00000  Uiso   1.00
C181   C     0.16700   0.66498   0.24990   0.00000  Uiso   1.00
C182   C     0.19517   0.78113   0.45049   0.00000  Uiso   1.00
C183   C     0.16754   0.74961   0.02748   0.00000  Uiso   1.00
C184   C     0.16718   0.74930   0.47270   0.00000  Uiso   1.00
C185   C     0.06798   0.74946   0.23750   0.00000  Uiso   1.00
C186   C     0.26534   0.75084   0.26249   0.00000  Uiso   1.00
C187   C     0.01254   0.74618   0.23086   0.00000  Uiso   1.00
C188   C     0.32074   0.75452   0.26912   0.00000  Uiso   1.00
C189   C     0.19465   0.54903   0.29223   0.00000  Uiso   1.00
C190   C     0.19565   0.95189   0.21669   0.00000  Uiso   1.00
C191   C     0.19217   0.59504   0.29165   0.00000  Uiso   1.00
C192   C     0.16708   0.83501   0.25022   0.00000  Uiso   1.00
C193   C     0.19315   0.90580   0.21636   0.00000  Uiso   1.00
C194   C     0.16878   0.61672   0.25013   0.00000  Uiso   1.00
C195   C     0.16888   0.88328   0.25064   0.00000  Uiso   1.00
C196   C     0.14746   0.59208   0.20910   0.00000  Uiso   1.00
C197   C     0.14675   0.90707   0.28528   0.00000  Uiso   1.00
C198   C     0.14870   0.54610   0.20987   0.00000  Uiso   1.00
C199   C     0.14799   0.95310   0.28503   0.00000  Uiso   1.00
C200   C     0.17248   0.52430   0.25115   0.00000  Uiso   1.00
C201   C     0.17258   0.97578   0.25104   0.00000  Uiso   1.00
C202   C     0.20355   0.77479   0.05985   0.00000  Uiso   1.00
C203   C     0.13906   0.71745   0.44139   0.00000  Uiso   1.00
C204   C     0.20188   0.77505   0.11017   0.00000  Uiso   1.00
C205   C     0.13870   0.71886   0.39081   0.00000  Uiso   1.00
C206   C     0.13247   0.72409   0.09907   0.00000  Uiso   1.00
C207   C     0.19560   0.78041   0.40020   0.00000  Uiso   1.00
C208   C     0.13160   0.72449   0.04863   0.00000  Uiso   1.00
Cl209  Cl    0.22742   0.52373   0.34422   0.00000  Uiso   1.00
Cl210  Cl    0.22953   0.97839   0.17483   0.00000  Uiso   1.00
Cl211  Cl    0.08938   0.68769   0.12139   0.00000  Uiso   1.00
Cl212  Cl    0.23611   0.81908   0.37751   0.00000  Uiso   1.00
Cu213  Cu    0.16667   0.74999   0.29822   0.00000  Uiso   1.00
Cu214  Cu    0.16667   0.75000   0.20178   0.00000  Uiso   1.00
H215   H     0.20943   0.61392   0.32332   0.00000  Uiso   1.00
H216   H     0.11642   0.69445   0.36770   0.00000  Uiso   1.00
H217   H     0.10237   0.70479   0.02674   0.00000  Uiso   1.00
H218   H     0.21707   0.80700   0.47142   0.00000  Uiso   1.00
H219   H     0.00994   0.72750   0.16274   0.00000  Uiso   1.00
H220   H     0.32285   0.77565   0.33633   0.00000  Uiso   1.00
H221   H     0.21107   0.88755   0.18994   0.00000  Uiso   1.00
H222   H     0.12905   0.60829   0.17684   0.00000  Uiso   1.00
H223   H     0.12769   0.89008   0.31187   0.00000  Uiso   1.00
H224   H     0.13099   0.52740   0.17826   0.00000  Uiso   1.00
H225   H     0.12961   0.97114   0.31127   0.00000  Uiso   1.00
H226   H     0.23361   0.79405   0.04732   0.00000  Uiso   1.00
H227   H     0.11760   0.69092   0.45505   0.00000  Uiso   1.00
H228   H     0.22946   0.79495   0.13401   0.00000  Uiso   1.00
N229   N     0.16667   0.75001   0.12934   0.00000  Uiso   1.00
N230   N     0.16667   0.74999   0.37066   0.00000  Uiso   1.00
O231   O     0.16667   0.68572   0.29072   0.00000  Uiso   1.00
O232   O     0.01377   0.76843   0.31369   0.00000  Uiso   1.00
O233   O     0.16666   0.81427   0.20928   0.00000  Uiso   1.00
O234   O     0.16667   0.68573   0.20928   0.00000  Uiso   1.00
O235   O     0.16666   0.81427   0.29072   0.00000  Uiso   1.00
O236   O     0.09161   0.74999   0.28132   0.00000  Uiso   1.00
O237   O     0.24172   0.75000   0.21868   0.00000  Uiso   1.00
O238   O     0.09161   0.75000   0.19988   0.00000  Uiso   1.00
O239   O     0.24172   0.75000   0.30012   0.00000  Uiso   1.00
O240   O     0.31936   0.73270   0.18621   0.00000  Uiso   1.00
C241   C     0.50033   0.66498   0.24990   0.00000  Uiso   1.00
C242   C     0.52850   0.78113   0.45049   0.00000  Uiso   1.00
C243   C     0.50087   0.74961   0.02748   0.00000  Uiso   1.00
C244   C     0.50052   0.74930   0.47270   0.00000  Uiso   1.00
C245   C     0.40131   0.74946   0.23750   0.00000  Uiso   1.00
C246   C     0.59867   0.75084   0.26249   0.00000  Uiso   1.00
C247   C     0.34587   0.74618   0.23086   0.00000  Uiso   1.00
C248   C     0.65408   0.75452   0.26912   0.00000  Uiso   1.00
C249   C     0.52798   0.54903   0.29223   0.00000  Uiso   1.00
C250   C     0.52898   0.95189   0.21669   0.00000  Uiso   1.00
C251   C     0.52550   0.59504   0.29165   0.00000  Uiso   1.00
C252   C     0.50042   0.83501   0.25022   0.00000  Uiso   1.00
C253   C     0.52648   0.90580   0.21636   0.00000  Uiso   1.00
C254   C     0.50211   0.61672   0.25013   0.00000  Uiso   1.00
C255   C     0.50221   0.88328   0.25064   0.00000  Uiso   1.00
C256   C     0.48079   0.59208   0.20910   0.00000  Uiso   1.00
C257   C     0.48008   0.90707   0.28528   0.00000  Uiso   1.00
C258   C     0.48204   0.54610   0.20987   0.00000  Uiso   1.00
C259   C     0.48133   0.95310   0.28503   0.00000  Uiso   1.00
C260   C     0.50582   0.52430   0.25115   0.00000  Uiso   1.00
C261   C     0.50592   0.97578   0.25104   0.00000  Uiso   1.00
C262   C     0.53688   0.77479   0.05985   0.00000  Uiso   1.00
C263   C     0.47239   0.71745   0.44139   0.00000  Uiso   1.00
C264   C     0.53521   0.77505   0.11017   0.00000  Uiso   1.00
C265   C     0.47203   0.71886   0.39081   0.00000  Uiso   1.00
C266   C     0.46581   0.72409   0.09907   0.00000  Uiso   1.00
C267   C     0.52893   0.78041   0.40020   0.00000  Uiso   1.00
C268   C     0.46494   0.72449   0.04863   0.00000  Uiso   1.00
Cl269  Cl    0.56075   0.52373   0.34422   0.00000  Uiso   1.00
Cl270  Cl    0.56287   0.97839   0.17483   0.00000  Uiso   1.00
Cl271  Cl    0.42271   0.68769   0.12139   0.00000  Uiso   1.00
Cl272  Cl    0.56944   0.81908   0.37751   0.00000  Uiso   1.00
Cu273  Cu    0.50000   0.74999   0.29822   0.00000  Uiso   1.00
Cu274  Cu    0.50000   0.75000   0.20178   0.00000  Uiso   1.00
H275   H     0.54276   0.61392   0.32332   0.00000  Uiso   1.00
H276   H     0.44975   0.69445   0.36770   0.00000  Uiso   1.00
H277   H     0.43571   0.70479   0.02674   0.00000  Uiso   1.00
H278   H     0.55041   0.80700   0.47142   0.00000  Uiso   1.00
H279   H     0.34327   0.72750   0.16274   0.00000  Uiso   1.00
H280   H     0.65618   0.77565   0.33633   0.00000  Uiso   1.00
H281   H     0.54440   0.88755   0.18994   0.00000  Uiso   1.00
H282   H     0.46238   0.60829   0.17684   0.00000  Uiso   1.00
H283   H     0.46102   0.89008   0.31187   0.00000  Uiso   1.00
H284   H     0.46432   0.52740   0.17826   0.00000  Uiso   1.00
H285   H     0.46294   0.97114   0.31127   0.00000  Uiso   1.00
H286   H     0.56694   0.79405   0.04732   0.00000  Uiso   1.00
H287   H     0.45094   0.69092   0.45505   0.00000  Uiso   1.00
H288   H     0.56280   0.79495   0.13401   0.00000  Uiso   1.00
N289   N     0.50000   0.75001   0.12934   0.00000  Uiso   1.00
N290   N     0.50000   0.74999   0.37066   0.00000  Uiso   1.00
O291   O     0.50000   0.68572   0.29072   0.00000  Uiso   1.00
O292   O     0.34710   0.76843   0.31369   0.00000  Uiso   1.00
O293   O     0.50000   0.81427   0.20928   0.00000  Uiso   1.00
O294   O     0.50000   0.68573   0.20928   0.00000  Uiso   1.00
O295   O     0.50000   0.81427   0.29072   0.00000  Uiso   1.00
O296   O     0.42495   0.74999   0.28132   0.00000  Uiso   1.00
O297   O     0.57505   0.75000   0.21868   0.00000  Uiso   1.00
O298   O     0.42495   0.75000   0.19988   0.00000  Uiso   1.00
O299   O     0.57505   0.75000   0.30012   0.00000  Uiso   1.00
O300   O     0.65269   0.73270   0.18621   0.00000  Uiso   1.00
C301   C     0.83367   0.66498   0.24990   0.00000  Uiso   1.00
C302   C     0.86184   0.78113   0.45049   0.00000  Uiso   1.00
C303   C     0.83421   0.74961   0.02748   0.00000  Uiso   1.00
C304   C     0.83385   0.74930   0.47270   0.00000  Uiso   1.00
C305   C     0.73465   0.74946   0.23750   0.00000  Uiso   1.00
C306   C     0.93200   0.75084   0.26249   0.00000  Uiso   1.00
C307   C     0.67921   0.74618   0.23086   0.00000  Uiso   1.00
C308   C     0.98741   0.75452   0.26912   0.00000  Uiso   1.00
C309   C     0.86131   0.54903   0.29223   0.00000  Uiso   1.00
C310   C     0.86231   0.95189   0.21669   0.00000  Uiso   1.00
C311   C     0.85884   0.59504   0.29165   0.00000  Uiso   1.00
C312   C     0.83375   0.83501   0.25022   0.00000  Uiso   1.00
C313   C     0.85982   0.90580   0.21636   0.00000  Uiso   1.00
C314   C     0.83544   0.61672   0.25013   0.00000  Uiso   1.00
C315   C     0.83554   0.88328   0.25064   0.00000  Uiso   1.00
C316   C     0.81412   0.59208   0.20910   0.00000  Uiso   1.00
C317   C     0.81342   0.90707   0.28528   0.00000  Uiso   1.00
C318   C     0.81537   0.54610   0.20987   0.00000  Uiso   1.00
C319   C     0.81466   0.95310   0.28503   0.00000  Uiso   1.00
C320   C     0.83915   0.52430   0.25115   0.00000  Uiso   1.00
C321   C     0.83925   0.97578   0.25104   0.00000  Uiso   1.00
C322   C     0.87022   0.77479   0.05985   0.00000  Uiso   1.00
C323   C     0.80572   0.71745   0.44139   0.00000  Uiso   1.00
C324   C     0.86854   0.77505   0.11017   0.00000  Uiso   1.00
C325   C     0.80536   0.71886   0.39081   0.00000  Uiso   1.00
C326   C     0.79914   0.72409   0.09907   0.00000  Uiso   1.00
C327   C     0.86226   0.78041   0.40020   0.00000  Uiso   1.00
C328   C     0.79827   0.72449   0.04863   0.00000  Uiso   1.00
Cl329  Cl    0.89409   0.52373   0.34422   0.00000  Uiso   1.00
Cl330  Cl    0.89620   0.97839   0.17483   0.00000  Uiso   1.00
Cl331  Cl    0.75605   0.68769   0.12139   0.00000  Uiso   1.00
Cl332  Cl    0.90277   0.81908   0.37751   0.00000  Uiso   1.00
Cu333  Cu    0.83333   0.74999   0.29822   0.00000  Uiso   1.00
Cu334  Cu    0.83333   0.75000   0.20178   0.00000  Uiso   1.00
H335   H     0.87609   0.61392   0.32332   0.00000  Uiso   1.00
H336   H     0.78309   0.69445   0.36770   0.00000  Uiso   1.00
H337   H     0.76904   0.70479   0.02674   0.00000  Uiso   1.00
H338   H     0.88374   0.80700   0.47142   0.00000  Uiso   1.00
H339   H     0.67660   0.72750   0.16274   0.00000  Uiso   1.00
H340   H     0.98952   0.77565   0.33633   0.00000  Uiso   1.00
H341   H     0.87774   0.88755   0.18994   0.00000  Uiso   1.00
H342   H     0.79571   0.60829   0.17684   0.00000  Uiso   1.00
H343   H     0.79436   0.89008   0.31187   0.00000  Uiso   1.00
H344   H     0.79765   0.52740   0.17826   0.00000  Uiso   1.00
H345   H     0.79628   0.97114   0.31127   0.00000  Uiso   1.00
H346   H     0.90027   0.79405   0.04732   0.00000  Uiso   1.00
H347   H     0.78427   0.69092   0.45505   0.00000  Uiso   1.00
H348   H     0.89613   0.79495   0.13401   0.00000  Uiso   1.00
N349   N     0.83333   0.75001   0.12934   0.00000  Uiso   1.00
N350   N     0.83333   0.74999   0.37066   0.00000  Uiso   1.00
O351   O     0.83334   0.68572   0.29072   0.00000  Uiso   1.00
O352   O     0.68044   0.76843   0.31369   0.00000  Uiso   1.00
O353   O     0.83333   0.81427   0.20928   0.00000  Uiso   1.00
O354   O     0.83334   0.68573   0.20928   0.00000  Uiso   1.00
O355   O     0.83333   0.81427   0.29072   0.00000  Uiso   1.00
O356   O     0.75828   0.74999   0.28132   0.00000  Uiso   1.00
O357   O     0.90839   0.75000   0.21868   0.00000  Uiso   1.00
O358   O     0.75828   0.75000   0.19988   0.00000  Uiso   1.00
O359   O     0.90839   0.75000   0.30012   0.00000  Uiso   1.00
O360   O     0.98602   0.73270   0.18621   0.00000  Uiso   1.00
C361   C     0.16700   0.16498   0.74990   0.00000  Uiso   1.00
C362   C     0.19517   0.28113   0.95049   0.00000  Uiso   1.00
C363   C     0.16754   0.24961   0.52748   0.00000  Uiso   1.00
C364   C     0.16718   0.24930   0.97270   0.00000  Uiso   1.00
C365   C     0.06798   0.24946   0.73750   0.00000  Uiso   1.00
C366   C     0.26534   0.25084   0.76249   0.00000  Uiso   1.00
C367   C     0.01254   0.24618   0.73086   0.00000  Uiso   1.00
C368   C     0.32074   0.25452   0.76912   0.00000  Uiso   1.00
C369   C     0.19465   0.04903   0.79223   0.00000  Uiso   1.00
C370   C     0.19565   0.45189   0.71669   0.00000  Uiso   1.00
C371   C     0.19217   0.09504   0.79165   0.00000  Uiso   1.00
C372   C     0.16708   0.33501   0.75022   0.00000  Uiso   1.00
C373   C     0.19315   0.40580   0.71636   0.00000  Uiso   1.00
C374   C     0.16878   0.11672   0.75013   0.00000  Uiso   1.00
C375   C     0.16888   0.38328   0.75064   0.00000  Uiso   1.00
C376   C     0.14746   0.09208   0.70910   0.00000  Uiso   1.00
C377   C     0.14675   0.40707   0.78528   0.00000  Uiso   1.00
C378   C     0.14870   0.04610   0.70987   0.00000  Uiso   1.00
C379   C     0.14799   0.45310   0.78503   0.00000  Uiso   1.00
C380   C     0.17248   0.02430   0.75115   0.00000  Uiso   1.00
C381   C     0.17258   0.47578   0.75104   0.00000  Uiso   1.00
C382   C     0.20355   0.27479   0.55985   0.00000  Uiso   1.00
C383   C     0.13906   0.21745   0.94139   0.00000  Uiso   1.00
C384   C     0.20188   0.27505   0.61017   0.00000  Uiso   1.00
C385   C     0.13870   0.21886   0.89081   0.00000  Uiso   1.00
C386   C     0.13247   0.22409   0.59907   0.00000  Uiso   1.00
C387   C     0.19560   0.28041   0.90020   0.00000  Uiso   1.00
C388   C     0.13160   0.22449   0.54863   0.00000  Uiso   1.00
Cl389  Cl    0.22742   0.02373   0.84422   0.00000  Uiso   1.00
Cl390  Cl    0.22953   0.47839   0.67483   0.00000  Uiso   1.00
Cl391  Cl    0.08938   0.18769   0.62139   0.00000  Uiso   1.00
Cl392  Cl    0.23611   0.31908   0.87751   0.00000  Uiso   1.00
Cu393  Cu    0.16667   0.24999   0.79822   0.00000  Uiso   1.00
Cu394  Cu    0.16667   0.25000   0.70178   0.00000  Uiso   1.00
H395   H     0.20943   0.11392   0.82332   0.00000  Uiso   1.00
H396   H     0.11642   0.19445   0.86770   0.00000  Uiso   1.00
H397   H     0.10237   0.20479   0.52674   0.00000  Uiso   1.00
H398   H     0.21707   0.30700   0.97142   0.00000  Uiso   1.00
H399   H     0.00994   0.22750   0.66274   0.00000  Uiso   1.00
H400   H     0.32285   0.27565   0.83633   0.00000  Uiso   1.00
H401   H     0.21107   0.38755   0.68994   0.00000  Uiso   1.00
H402   H     0.12905   0.10829   0.67684   0.00000  Uiso   1.00
H403   H     0.12769   0.39008   0.81187   0.00000  Uiso   1.00
H404   H     0.13099   0.02740   0.67826   0.00000  Uiso   1.00
H405   H     0.12961   0.47114   0.81127   0.00000  Uiso   1.00
H406   H     0.23361   0.29405   0.54732   0.00000  Uiso   1.00
H407   H     0.11760   0.19092   0.95505   0.00000  Uiso   1.00
H408   H     0.22946   0.29495   0.63401   0.00000  Uiso   1.00
N409   N     0.16667   0.25001   0.62934   0.00000  Uiso   1.00
N410   N     0.16667   0.24999   0.87066   0.00000  Uiso   1.00
O411   O     0.16667   0.18572   0.79072   0.00000  Uiso   1.00
O412   O     0.01377   0.26843   0.81369   0.00000  Uiso   1.00
O413   O     0.16666   0.31427   0.70928   0.00000  Uiso   1.00
O414   O     0.16667   0.18573   0.70928   0.00000  Uiso   1.00
O415   O     0.16666   0.31427   0.79072   0.00000  Uiso   1.00
O416   O     0.09161   0.24999   0.78132   0.00000  Uiso   1.00
O417   O     0.24172   0.25000   0.71868   0.00000  Uiso   1.00
O418   O     0.09161   0.25000   0.69988   0.00000  Uiso   1.00
O419   O     0.24172   0.25000   0.80012   0.00000  Uiso   1.00
O420   O     0.31936   0.23270   0.68621   0.00000  Uiso   1.00
C421   C     0.50033   0.16498   0.74990   0.00000  Uiso   1.00
C422   C     0.52850   0.28113   0.95049   0.00000  Uiso   1.00
C423   C     0.50087   0.24961   0.52748   0.00000  Uiso   1.00
C424   C     0.50052   0.24930   0.97270   0.00000  Uiso   1.00
C425   C     0.40131   0.24946   0.73750   0.00000  Uiso   1.00
C426   C     0.59867   0.25084   0.76249   0.00000  Uiso   1.00
C427   C     0.34587   0.24618   0.73086   0.00000  Uiso   1.00
C428   C     0.65408   0.25452   0.76912   0.00000  Uiso   1.00
C429   C     0.52798   0.04903   0.79223   0.00000  Uiso   1.00
C430   C     0.52898   0.45189   0.71669   0.00000  Uiso   1.00
C431   C     0.52550   0.09504   0.79165   0.00000  Uiso   1.00
C432   C     0.50042   0.33501   0.75022   0.00000  Uiso   1.00
C433   C     0.52648   0.40580   0.71636   0.00000  Uiso   1.00
C434   C     0.50211   0.11672   0.75013   0.00000  Uiso   1.00
C435   C     0.50221   0.38328   0.75064   0.00000  Uiso   1.00
C436   C     0.48079   0.09208   0.70910   0.00000  Uiso   1.00
C437   C     0.48008   0.40707   0.78528   0.00000  Uiso   1.00
C438   C     0.48204   0.04610   0.70987   0.00000  Uiso   1.00
C439   C     0.48133   0.45310   0.78503   0.00000  Uiso   1.00
C440   C     0.50582   0.02430   0.75115   0.00000  Uiso   1.00
C441   C     0.50592   0.47578   0.75104   0.00000  Uiso   1.00
C442   C     0.53688   0.27479   0.55985   0.00000  Uiso   1.00
C443   C     0.47239   0.21745   0.94139   0.00000  Uiso   1.00
C444   C     0.53521   0.27505   0.61017   0.00000  Uiso   1.00
C445   C     0.47203   0.21886   0.89081   0.00000  Uiso   1.00
C446   C     0.46581   0.22409   0.59907   0.00000  Uiso   1.00
C447   C     0.52893   0.28041   0.90020   0.00000  Uiso   1.00
C448   C     0.46494   0.22449   0.54863   0.00000  Uiso   1.00
Cl449  Cl    0.56075   0.02373   0.84422   0.00000  Uiso   1.00
Cl450  Cl    0.56287   0.47839   0.67483   0.00000  Uiso   1.00
Cl451  Cl    0.42271   0.18769   0.62139   0.00000  Uiso   1.00
Cl452  Cl    0.56944   0.31908   0.87751   0.00000  Uiso   1.00
Cu453  Cu    0.50000   0.24999   0.79822   0.00000  Uiso   1.00
Cu454  Cu    0.50000   0.25000   0.70178   0.00000  Uiso   1.00
H455   H     0.54276   0.11392   0.82332   0.00000  Uiso   1.00
H456   H     0.44975   0.19445   0.86770   0.00000  Uiso   1.00
H457   H     0.43571   0.20479   0.52674   0.00000  Uiso   1.00
H458   H     0.55041   0.30700   0.97142   0.00000  Uiso   1.00
H459   H     0.34327   0.22750   0.66274   0.00000  Uiso   1.00
H460   H     0.65618   0.27565   0.83633   0.00000  Uiso   1.00
H461   H     0.54440   0.38755   0.68994   0.00000  Uiso   1.00
H462   H     0.46238   0.10829   0.67684   0.00000  Uiso   1.00
H463   H     0.46102   0.39008   0.81187   0.00000  Uiso   1.00
H464   H     0.46432   0.02740   0.67826   0.00000  Uiso   1.00
H465   H     0.46294   0.47114   0.81127   0.00000  Uiso   1.00
H466   H     0.56694   0.29405   0.54732   0.00000  Uiso   1.00
H467   H     0.45094   0.19092   0.95505   0.00000  Uiso   1.00
H468   H     0.56280   0.29495   0.63401   0.00000  Uiso   1.00
N469   N     0.50000   0.25001   0.62934   0.00000  Uiso   1.00
N470   N     0.50000   0.24999   0.87066   0.00000  Uiso   1.00
O471   O     0.50000   0.18572   0.79072   0.00000  Uiso   1.00
O472   O     0.34710   0.26843   0.81369   0.00000  Uiso   1.00
O473   O     0.50000   0.31427   0.70928   0.00000  Uiso   1.00
O474   O     0.50000   0.18573   0.70928   0.00000  Uiso   1.00
O475   O     0.50000   0.31427   0.79072   0.00000  Uiso   1.00
O476   O     0.42495   0.24999   0.78132   0.00000  Uiso   1.00
O477   O     0.57505   0.25000   0.71868   0.00000  Uiso   1.00
O478   O     0.42495   0.25000   0.69988   0.00000  Uiso   1.00
O479   O     0.57505   0.25000   0.80012   0.00000  Uiso   1.00
O480   O     0.65269   0.23270   0.68621   0.00000  Uiso   1.00
C481   C     0.83367   0.16498   0.74990   0.00000  Uiso   1.00
C482   C     0.86184   0.28113   0.95049   0.00000  Uiso   1.00
C483   C     0.83421   0.24961   0.52748   0.00000  Uiso   1.00
C484   C     0.83385   0.24930   0.97270   0.00000  Uiso   1.00
C485   C     0.73465   0.24946   0.73750   0.00000  Uiso   1.00
C486   C     0.93200   0.25084   0.76249   0.00000  Uiso   1.00
C487   C     0.67921   0.24618   0.73086   0.00000  Uiso   1.00
C488   C     0.98741   0.25452   0.76912   0.00000  Uiso   1.00
C489   C     0.86131   0.04903   0.79223   0.00000  Uiso   1.00
C490   C     0.86231   0.45189   0.71669   0.00000  Uiso   1.00
C491   C     0.85884   0.09504   0.79165   0.00000  Uiso   1.00
C492   C     0.83375   0.33501   0.75022   0.00000  Uiso   1.00
C493   C     0.85982   0.40580   0.71636   0.00000  Uiso   1.00
C494   C     0.83544   0.11672   0.75013   0.00000  Uiso   1.00
C495   C     0.83554   0.38328   0.75064   0.00000  Uiso   1.00
C496   C     0.81412   0.09208   0.70910   0.00000  Uiso   1.00
C497   C     0.81342   0.40707   0.78528   0.00000  Uiso   1.00
C498   C     0.81537   0.04610   0.70987   0.00000  Uiso   1.00
C499   C     0.81466   0.45310   0.78503   0.00000  Uiso   1.00
C500   C     0.83915   0.02430   0.75115   0.00000  Uiso   1.00
C501   C     0.83925   0.47578   0.75104   0.00000  Uiso   1.00
C502   C     0.87022   0.27479   0.55985   0.00000  Uiso   1.00
C503   C     0.80572   0.21745   0.94139   0.00000  Uiso   1.00
C504   C     0.86854   0.27505   0.61017   0.00000  Uiso   1.00
C505   C     0.80536   0.21886   0.89081   0.00000  Uiso   1.00
C506   C     0.79914   0.22409   0.59907   0.00000  Uiso   1.00
C507   C     0.86226   0.28041   0.90020   0.00000  Uiso   1.00
C508   C     0.79827   0.22449   0.54863   0.00000  Uiso   1.00
Cl509  Cl    0.89409   0.02373   0.84422   0.00000  Uiso   1.00
Cl510  Cl    0.89620   0.47839   0.67483   0.00000  Uiso   1.00
Cl511  Cl    0.75605   0.18769   0.62139   0.00000  Uiso   1.00
Cl512  Cl    0.90277   0.31908   0.87751   0.00000  Uiso   1.00
Cu513  Cu    0.83333   0.24999   0.79822   0.00000  Uiso   1.00
Cu514  Cu    0.83333   0.25000   0.70178   0.00000  Uiso   1.00
H515   H     0.87609   0.11392   0.82332   0.00000  Uiso   1.00
H516   H     0.78309   0.19445   0.86770   0.00000  Uiso   1.00
H517   H     0.76904   0.20479   0.52674   0.00000  Uiso   1.00
H518   H     0.88374   0.30700   0.97142   0.00000  Uiso   1.00
H519   H     0.67660   0.22750   0.66274   0.00000  Uiso   1.00
H520   H     0.98952   0.27565   0.83633   0.00000  Uiso   1.00
H521   H     0.87774   0.38755   0.68994   0.00000  Uiso   1.00
H522   H     0.79571   0.10829   0.67684   0.00000  Uiso   1.00
H523   H     0.79436   0.39008   0.81187   0.00000  Uiso   1.00
H524   H     0.79765   0.02740   0.67826   0.00000  Uiso   1.00
H525   H     0.79628   0.47114   0.81127   0.00000  Uiso   1.00
H526   H     0.90027   0.29405   0.54732   0.00000  Uiso   1.00
H527   H     0.78427   0.19092   0.95505   0.00000  Uiso   1.00
H528   H     0.89613   0.29495   0.63401   0.00000  Uiso   1.00
N529   N     0.83333   0.25001   0.62934   0.00000  Uiso   1.00
N530   N     0.83333   0.24999   0.87066   0.00000  Uiso   1.00
O531   O     0.83334   0.18572   0.79072   0.00000  Uiso   1.00
O532   O     0.68044   0.26843   0.81369   0.00000  Uiso   1.00
O533   O     0.83333   0.31427   0.70928   0.00000  Uiso   1.00
O534   O     0.83334   0.18573   0.70928   0.00000  Uiso   1.00
O535   O     0.83333   0.31427   0.79072   0.00000  Uiso   1.00
O536   O     0.75828   0.24999   0.78132   0.00000  Uiso   1.00
O537   O     0.90839   0.25000   0.71868   0.00000  Uiso   1.00
O538   O     0.75828   0.25000   0.69988   0.00000  Uiso   1.00
O539   O     0.90839   0.25000   0.80012   0.00000  Uiso   1.00
O540   O     0.98602   0.23270   0.68621   0.00000  Uiso   1.00
C541   C     0.16700   0.66498   0.74990   0.00000  Uiso   1.00
C542   C     0.19517   0.78113   0.95049   0.00000  Uiso   1.00
C543   C     0.16754   0.74961   0.52748   0.00000  Uiso   1.00
C544   C     0.16718   0.74930   0.97270   0.00000  Uiso   1.00
C545   C     0.06798   0.74946   0.73750   0.00000  Uiso   1.00
C546   C     0.26534   0.75084   0.76249   0.00000  Uiso   1.00
C547   C     0.01254   0.74618   0.73086   0.00000  Uiso   1.00
C548   C     0.32074   0.75452   0.76912   0.00000  Uiso   1.00
C549   C     0.19465   0.54903   0.79223   0.00000  Uiso   1.00
C550   C     0.19565   0.95189   0.71669   0.00000  Uiso   1.00
C551   C     0.19217   0.59504   0.79165   0.00000  Uiso   1.00
C552   C     0.16708   0.83501   0.75022   0.00000  Uiso   1.00
C553   C     0.19315   0.90580   0.71636   0.00000  Uiso   1.00
C554   C     0.16878   0.61672   0.75013   0.00000  Uiso   1.00
C555   C     0.16888   0.88328   0.75064   0.00000  Uiso   1.00
C556   C     0.14746   0.59208   0.70910   0.00000  Uiso   1.00
C557   C     0.14675   0.90707   0.78528   0.00000  Uiso   1.00
C558   C     0.14870   0.54610   0.70987   0.00000  Uiso   1.00
C559   C     0.14799   0.95310   0.78503   0.00000  Uiso   1.00
C560   C     0.17248   0.52430   0.75115   0.00000  Uiso   1.00
C561   C     0.17258   0.97578   0.75104   0.00000  Uiso   1.00
C562   C     0.20355   0.77479   0.55985   0.00000  Uiso   1.00
C563   C     0.13906   0.71745   0.94139   0.00000  Uiso   1.00
C564   C     0.20188   0.77505   0.61017   0.00000  Uiso   1.00
C565   C     0.13870   0.71886   0.89081   0.00000  Uiso   1.00
C566   C     0.13247   0.72409   0.59907   0.00000  Uiso   1.00
C567   C     0.19560   0.78041   0.90020   0.00000  Uiso   1.00
C568   C     0.13160   0.72449   0.54863   0.00000  Uiso   1.00
Cl569  Cl    0.22742   0.52373   0.84422   0.00000  Uiso   1.00
Cl570  Cl    0.22953   0.97839   0.67483   0.00000  Uiso   1.00
Cl571  Cl    0.08938   0.68769   0.62139   0.00000  Uiso   1.00
Cl572  Cl    0.23611   0.81908   0.87751   0.00000  Uiso   1.00
Cu573  Cu    0.16667   0.74999   0.79822   0.00000  Uiso   1.00
Cu574  Cu    0.16667   0.75000   0.70178   0.00000  Uiso   1.00
H575   H     0.20943   0.61392   0.82332   0.00000  Uiso   1.00
H576   H     0.11642   0.69445   0.86770   0.00000  Uiso   1.00
H577   H     0.10237   0.70479   0.52674   0.00000  Uiso   1.00
H578   H     0.21707   0.80700   0.97142   0.00000  Uiso   1.00
H579   H     0.00994   0.72750   0.66274   0.00000  Uiso   1.00
H580   H     0.32285   0.77565   0.83633   0.00000  Uiso   1.00
H581   H     0.21107   0.88755   0.68994   0.00000  Uiso   1.00
H582   H     0.12905   0.60829   0.67684   0.00000  Uiso   1.00
H583   H     0.12769   0.89008   0.81187   0.00000  Uiso   1.00
H584   H     0.13099   0.52740   0.67826   0.00000  Uiso   1.00
H585   H     0.12961   0.97114   0.81127   0.00000  Uiso   1.00
H586   H     0.23361   0.79405   0.54732   0.00000  Uiso   1.00
H587   H     0.11760   0.69092   0.95505   0.00000  Uiso   1.00
H588   H     0.22946   0.79495   0.63401   0.00000  Uiso   1.00
N589   N     0.16667   0.75001   0.62934   0.00000  Uiso   1.00
N590   N     0.16667   0.74999   0.87066   0.00000  Uiso   1.00
O591   O     0.16667   0.68572   0.79072   0.00000  Uiso   1.00
O592   O     0.01377   0.76843   0.81369   0.00000  Uiso   1.00
O593   O     0.16666   0.81427   0.70928   0.00000  Uiso   1.00
O594   O     0.16667   0.68573   0.70928   0.00000  Uiso   1.00
O595   O     0.16666   0.81427   0.79072   0.00000  Uiso   1.00
O596   O     0.09161   0.74999   0.78132   0.00000  Uiso   1.00
O597   O     0.24172   0.75000   0.71868   0.00000  Uiso   1.00
O598   O     0.09161   0.75000   0.69988   0.00000  Uiso   1.00
O599   O     0.24172   0.75000   0.80012   0.00000  Uiso   1.00
O600   O     0.31936   0.73270   0.68621   0.00000  Uiso   1.00
C601   C     0.50033   0.66498   0.74990   0.00000  Uiso   1.00
C602   C     0.52850   0.78113   0.95049   0.00000  Uiso   1.00
C603   C     0.50087   0.74961   0.52748   0.00000  Uiso   1.00
C604   C     0.50052   0.74930   0.97270   0.00000  Uiso   1.00
C605   C     0.40131   0.74946   0.73750   0.00000  Uiso   1.00
C606   C     0.59867   0.75084   0.76249   0.00000  Uiso   1.00
C607   C     0.34587   0.74618   0.73086   0.00000  Uiso   1.00
C608   C     0.65408   0.75452   0.76912   0.00000  Uiso   1.00
C609   C     0.52798   0.54903   0.79223   0.00000  Uiso   1.00
C610   C     0.52898   0.95189   0.71669   0.00000  Uiso   1.00
C611   C     0.52550   0.59504   0.79165   0.00000  Uiso   1.00
C612   C     0.50042   0.83501   0.75022   0.00000  Uiso   1.00
C613   C     0.52648   0.90580   0.71636   0.00000  Uiso   1.00
C614   C     0.50211   0.61672   0.75013   0.00000  Uiso   1.00
C615   C     0.50221   0.88328   0.75064   0.00000  Uiso   1.00
C616   C     0.48079   0.59208   0.70910   0.00000  Uiso   1.00
C617   C     0.48008   0.90707   0.78528   0.00000  Uiso   1.00
C618   C     0.48204   0.54610   0.70987   0.00000  Uiso   1.00
C619   C     0.48133   0.95310   0.78503   0.00000  Uiso   1.00
C620   C     0.50582   0.52430   0.75115   0.00000  Uiso   1.00
C621   C     0.50592   0.97578   0.75104   0.00000  Uiso   1.00
C622   C     0.53688   0.77479   0.55985   0.00000  Uiso   1.00
C623   C     0.47239   0.71745   0.94139   0.00000  Uiso   1.00
C624   C     0.53521   0.77505   0.61017   0.00000  Uiso   1.00
C625   C     0.47203   0.71886   0.89081   0.00000  Uiso   1.00
C626   C     0.46581   0.72409   0.59907   0.00000  Uiso   1.00
C627   C     0.52893   0.78041   0.90020   0.00000  Uiso   1.00
C628   C     0.46494   0.72449   0.54863   0.00000  Uiso   1.00
Cl629  Cl    0.56075   0.52373   0.84422   0.00000  Uiso   1.00
Cl630  Cl    0.56287   0.97839   0.67483   0.00000  Uiso   1.00
Cl631  Cl    0.42271   0.68769   0.62139   0.00000  Uiso   1.00
Cl632  Cl    0.56944   0.81908   0.87751   0.00000  Uiso   1.00
Cu633  Cu    0.50000   0.74999   0.79822   0.00000  Uiso   1.00
Cu634  Cu    0.50000   0.75000   0.70178   0.00000  Uiso   1.00
H635   H     0.54276   0.61392   0.82332   0.00000  Uiso   1.00
H636   H     0.44975   0.69445   0.86770   0.00000  Uiso   1.00
H637   H     0.43571   0.70479   0.52674   0.00000  Uiso   1.00
H638   H     0.55041   0.80700   0.97142   0.00000  Uiso   1.00
H639   H     0.34327   0.72750   0.66274   0.00000  Uiso   1.00
H640   H     0.65618   0.77565   0.83633   0.00000  Uiso   1.00
H641   H     0.54440   0.88755   0.68994   0.00000  Uiso   1.00
H642   H     0.46238   0.60829   0.67684   0.00000  Uiso   1.00
H643   H     0.46102   0.89008   0.81187   0.00000  Uiso   1.00
H644   H     0.46432   0.52740   0.67826   0.00000  Uiso   1.00
H645   H     0.46294   0.97114   0.81127   0.00000  Uiso   1.00
H646   H     0.56694   0.79405   0.54732   0.00000  Uiso   1.00
H647   H     0.45094   0.69092   0.95505   0.00000  Uiso   1.00
H648   H     0.56280   0.79495   0.63401   0.00000  Uiso   1.00
N649   N     0.50000   0.75001   0.62934   0.00000  Uiso   1.00
N650   N     0.50000   0.74999   0.87066   0.00000  Uiso   1.00
O651   O     0.50000   0.68572   0.79072   0.00000  Uiso   1.00
O652   O     0.34710   0.76843   0.81369   0.00000  Uiso   1.00
O653   O     0.50000   0.81427   0.70928   0.00000  Uiso   1.00
O654   O     0.50000   0.68573   0.70928   0.00000  Uiso   1.00
O655   O     0.50000   0.81427   0.79072   0.00000  Uiso   1.00
O656   O     0.42495   0.74999   0.78132   0.00000  Uiso   1.00
O657   O     0.57505   0.75000   0.71868   0.00000  Uiso   1.00
O658   O     0.42495   0.75000   0.69988   0.00000  Uiso   1.00
O659   O     0.57505   0.75000   0.80012   0.00000  Uiso   1.00
O660   O     0.65269   0.73270   0.68621   0.00000  Uiso   1.00
C661   C     0.83367   0.66498   0.74990   0.00000  Uiso   1.00
C662   C     0.86184   0.78113   0.95049   0.00000  Uiso   1.00
C663   C     0.83421   0.74961   0.52748   0.00000  Uiso   1.00
C664   C     0.83385   0.74930   0.97270   0.00000  Uiso   1.00
C665   C     0.73465   0.74946   0.73750   0.00000  Uiso   1.00
C666   C     0.93200   0.75084   0.76249   0.00000  Uiso   1.00
C667   C     0.67921   0.74618   0.73086   0.00000  Uiso   1.00
C668   C     0.98741   0.75452   0.76912   0.00000  Uiso   1.00
C669   C     0.86131   0.54903   0.79223   0.00000  Uiso   1.00
C670   C     0.86231   0.95189   0.71669   0.00000  Uiso   1.00
C671   C     0.85884   0.59504   0.79165   0.00000  Uiso   1.00
C672   C     0.83375   0.83501   0.75022   0.00000  Uiso   1.00
C673   C     0.85982   0.90580   0.71636   0.00000  Uiso   1.00
C674   C     0.83544   0.61672   0.75013   0.00000  Uiso   1.00
C675   C     0.83554   0.88328   0.75064   0.00000  Uiso   1.00
C676   C     0.81412   0.59208   0.70910   0.00000  Uiso   1.00
C677   C     0.81342   0.90707   0.78528   0.00000  Uiso   1.00
C678   C     0.81537   0.54610   0.70987   0.00000  Uiso   1.00
C679   C     0.81466   0.95310   0.78503   0.00000  Uiso   1.00
C680   C     0.83915   0.52430   0.75115   0.00000  Uiso   1.00
C681   C     0.83925   0.97578   0.75104   0.00000  Uiso   1.00
C682   C     0.87022   0.77479   0.55985   0.00000  Uiso   1.00
C683   C     0.80572   0.71745   0.94139   0.00000  Uiso   1.00
C684   C     0.86854   0.77505   0.61017   0.00000  Uiso   1.00
C685   C     0.80536   0.71886   0.89081   0.00000  Uiso   1.00
C686   C     0.79914   0.72409   0.59907   0.00000  Uiso   1.00
C687   C     0.86226   0.78041   0.90020   0.00000  Uiso   1.00
C688   C     0.79827   0.72449   0.54863   0.00000  Uiso   1.00
Cl689  Cl    0.89409   0.52373   0.84422   0.00000  Uiso   1.00
Cl690  Cl    0.89620   0.97839   0.67483   0.00000  Uiso   1.00
Cl691  Cl    0.75605   0.68769   0.62139   0.00000  Uiso   1.00
Cl692  Cl    0.90277   0.81908   0.87751   0.00000  Uiso   1.00
Cu693  Cu    0.83333   0.74999   0.79822   0.00000  Uiso   1.00
Cu694  Cu    0.83333   0.75000   0.70178   0.00000  Uiso   1.00
H695   H     0.87609   0.61392   0.82332   0.00000  Uiso   1.00
H696   H     0.78309   0.69445   0.86770   0.00000  Uiso   1.00
H697   H     0.76904   0.70479   0.52674   0.00000  Uiso   1.00
H698   H     0.88374   0.80700   0.97142   0.00000  Uiso   1.00
H699   H     0.67660   0.72750   0.66274   0.00000  Uiso   1.00
H700   H     0.98952   0.77565   0.83633   0.00000  Uiso   1.00
H701   H     0.87774   0.88755   0.68994   0.00000  Uiso   1.00
H702   H     0.79571   0.60829   0.67684   0.00000  Uiso   1.00
H703   H     0.79436   0.89008   0.81187   0.00000  Uiso   1.00
H704   H     0.79765   0.52740   0.67826   0.00000  Uiso   1.00
H705   H     0.79628   0.97114   0.81127   0.00000  Uiso   1.00
H706   H     0.90027   0.79405   0.54732   0.00000  Uiso   1.00
H707   H     0.78427   0.69092   0.95505   0.00000  Uiso   1.00
H708   H     0.89613   0.79495   0.63401   0.00000  Uiso   1.00
N709   N     0.83333   0.75001   0.62934   0.00000  Uiso   1.00
N710   N     0.83333   0.74999   0.87066   0.00000  Uiso   1.00
O711   O     0.83334   0.68572   0.79072   0.00000  Uiso   1.00
O712   O     0.68044   0.76843   0.81369   0.00000  Uiso   1.00
O713   O     0.83333   0.81427   0.70928   0.00000  Uiso   1.00
O714   O     0.83334   0.68573   0.70928   0.00000  Uiso   1.00
O715   O     0.83333   0.81427   0.79072   0.00000  Uiso   1.00
O716   O     0.75828   0.74999   0.78132   0.00000  Uiso   1.00
O717   O     0.90839   0.75000   0.71868   0.00000  Uiso   1.00
O718   O     0.75828   0.75000   0.69988   0.00000  Uiso   1.00
O719   O     0.90839   0.75000   0.80012   0.00000  Uiso   1.00
O720   O     0.98602   0.73270   0.68621   0.00000  Uiso   1.00
loop_
_geom_bond_atom_site_label_1
_geom_bond_atom_site_label_2
_geom_bond_distance
_geom_bond_site_symmetry_2
_ccdc_geom_bond_type
C1     O54     1.297   .     A
C1     O51     1.294   .     A
C1     C14     1.459   .     S
C2     C4      1.406   .     A
C2     C27     1.402   .     A
C2     H38     1.079   .     S
C3     C28     1.406   .     A
C3     C22     1.418   .     A
C3     C364    1.524   1_554 S
C4     C23     1.418   .     A
C4     C363    1.524   .     S
C5     O56     1.286   .     A
C5     C7      1.454   .     S
C5     O58     1.297   .     A
C6     O57     1.286   .     A
C6     C8      1.454   .     S
C6     O59     1.297   .     A
C7     C128    1.361   1_455 S
C7     O180    1.389   1_455 S
C8     C67     1.361   .     S
C8     O112    1.389   .     S
C9     C11     1.392   .     A
C9     Cl29    1.762   .     S
C9     C20     1.408   .     A
C10    C21     1.408   .     A
C10    Cl30    1.762   .     S
C10    C13     1.392   .     A
C11    H35     1.084   .     S
C11    C14     1.402   .     A
C12    O53     1.294   .     A
C12    C15     1.457   .     S
C12    O55     1.296   .     A
C13    C15     1.401   .     A
C13    H41     1.084   .     S
C14    C16     1.399   .     A
C15    C17     1.399   .     A
C16    H42     1.082   .     S
C16    C18     1.390   .     A
C17    H43     1.083   .     S
C17    C19     1.390   .     A
C18    H44     1.084   .     S
C18    C20     1.402   .     A
C19    H45     1.083   .     S
C19    C21     1.402   .     A
C20    C201    1.465   1_545 S
C21    C200    1.465   .     S
C22    C24     1.408   .     A
C22    H46     1.079   .     S
C23    C25     1.408   .     A
C23    H47     1.078   .     S
C24    H48     1.082   .     S
C24    N49     1.362   .     A
C25    H36     1.082   .     S
C25    N50     1.362   .     A
C26    C28     1.402   .     A
C26    Cl31    1.754   .     S
C26    N49     1.372   .     A
C27    N50     1.373   .     A
C27    Cl32    1.756   .     S
C28    H37     1.079   .     S
Cu33   O55     1.954   .     S
Cu33   O51     1.950   .     S
Cu33   O56     1.974   .     S
Cu33   Cu34    2.685   .     S
Cu33   N50     2.017   .     S
Cu33   O59     1.980   .     S
Cu34   O57     1.974   .     S
Cu34   O58     1.980   .     S
Cu34   O54     1.954   .     S
Cu34   O53     1.950   .     S
Cu34   N49     2.017   .     S
H39    O180    0.988   1_455 S
H40    O112    0.989   .     S
O52    H160    0.989   1_455 S
O52    C128    1.389   1_455 S
O60    C67     1.389   .     S
O60    H99     0.988   .     S
C61    O114    1.297   .     A
C61    O111    1.294   .     A
C61    C74     1.459   .     S
C62    C64     1.406   .     A
C62    C87     1.402   .     A
C62    H98     1.079   .     S
C63    C88     1.406   .     A
C63    C82     1.418   .     A
C63    C424    1.524   1_554 S
C64    C83     1.418   .     A
C64    C423    1.524   .     S
C65    O116    1.286   .     A
C65    C67     1.454   .     S
C65    O118    1.297   .     A
C66    O117    1.286   .     A
C66    C68     1.454   .     S
C66    O119    1.297   .     A
C68    C127    1.361   .     S
C68    O172    1.389   .     S
C69    C71     1.392   .     A
C69    Cl89    1.762   .     S
C69    C80     1.408   .     A
C70    C81     1.408   .     A
C70    Cl90    1.762   .     S
C70    C73     1.392   .     A
C71    H95     1.084   .     S
C71    C74     1.402   .     A
C72    O113    1.294   .     A
C72    C75     1.457   .     S
C72    O115    1.296   .     A
C73    C75     1.401   .     A
C73    H101    1.084   .     S
C74    C76     1.399   .     A
C75    C77     1.399   .     A
C76    H102    1.082   .     S
C76    C78     1.390   .     A
C77    H103    1.083   .     S
C77    C79     1.390   .     A
C78    H104    1.084   .     S
C78    C80     1.402   .     A
C79    H105    1.083   .     S
C79    C81     1.402   .     A
C80    C261    1.465   1_545 S
C81    C260    1.465   .     S
C82    C84     1.408   .     A
C82    H106    1.079   .     S
C83    C85     1.408   .     A
C83    H107    1.078   .     S
C84    H108    1.082   .     S
C84    N109    1.362   .     A
C85    H96     1.082   .     S
C85    N110    1.362   .     A
C86    C88     1.402   .     A
C86    Cl91    1.754   .     S
C86    N109    1.372   .     A
C87    N110    1.373   .     A
C87    Cl92    1.756   .     S
C88    H97     1.079   .     S
Cu93   O115    1.954   .     S
Cu93   O111    1.950   .     S
Cu93   O116    1.974   .     S
Cu93   Cu94    2.685   .     S
Cu93   N110    2.017   .     S
Cu93   O119    1.980   .     S
Cu94   O117    1.974   .     S
Cu94   O118    1.980   .     S
Cu94   O114    1.954   .     S
Cu94   O113    1.950   .     S
Cu94   N109    2.017   .     S
H100   O172    0.989   .     S
O120   C127    1.389   .     S
O120   H159    0.988   .     S
C121   O174    1.297   .     A
C121   O171    1.294   .     A
C121   C134    1.459   .     S
C122   C124    1.406   .     A
C122   C147    1.402   .     A
C122   H158    1.079   .     S
C123   C148    1.406   .     A
C123   C142    1.418   .     A
C123   C484    1.524   1_554 S
C124   C143    1.418   .     A
C124   C483    1.524   .     S
C125   O176    1.286   .     A
C125   C127    1.454   .     S
C125   O178    1.297   .     A
C126   O177    1.286   .     A
C126   C128    1.454   .     S
C126   O179    1.297   .     A
C128   C7      1.361   1_655 S
C128   O52     1.389   1_655 S
C129   C131    1.392   .     A
C129   Cl149   1.762   .     S
C129   C140    1.408   .     A
C130   C141    1.408   .     A
C130   Cl150   1.762   .     S
C130   C133    1.392   .     A
C131   H155    1.084   .     S
C131   C134    1.402   .     A
C132   O173    1.294   .     A
C132   C135    1.457   .     S
C132   O175    1.296   .     A
C133   C135    1.401   .     A
C133   H161    1.084   .     S
C134   C136    1.399   .     A
C135   C137    1.399   .     A
C136   H162    1.082   .     S
C136   C138    1.390   .     A
C137   H163    1.083   .     S
C137   C139    1.390   .     A
C138   H164    1.084   .     S
C138   C140    1.402   .     A
C139   H165    1.083   .     S
C139   C141    1.402   .     A
C140   C321    1.465   1_545 S
C141   C320    1.465   .     S
C142   C144    1.408   .     A
C142   H166    1.079   .     S
C143   C145    1.408   .     A
C143   H167    1.078   .     S
C144   H168    1.082   .     S
C144   N169    1.362   .     A
C145   H156    1.082   .     S
C145   N170    1.362   .     A
C146   C148    1.402   .     A
C146   Cl151   1.754   .     S
C146   N169    1.372   .     A
C147   N170    1.373   .     A
C147   Cl152   1.756   .     S
C148   H157    1.079   .     S
Cu153  O175    1.954   .     S
Cu153  O171    1.950   .     S
Cu153  O176    1.974   .     S
Cu153  Cu154   2.685   .     S
Cu153  N170    2.017   .     S
Cu153  O179    1.980   .     S
Cu154  O177    1.974   .     S
Cu154  O178    1.980   .     S
Cu154  O174    1.954   .     S
Cu154  O173    1.950   .     S
Cu154  N169    2.017   .     S
H160   O52     0.989   1_655 S
O180   C7      1.389   1_655 S
O180   H39     0.988   1_655 S
C181   O234    1.297   .     A
C181   O231    1.294   .     A
C181   C194    1.459   .     S
C182   C184    1.406   .     A
C182   C207    1.402   .     A
C182   H218    1.079   .     S
C183   C208    1.406   .     A
C183   C202    1.418   .     A
C183   C544    1.524   1_554 S
C184   C203    1.418   .     A
C184   C543    1.524   .     S
C185   O236    1.286   .     A
C185   C187    1.454   .     S
C185   O238    1.297   .     A
C186   O237    1.286   .     A
C186   C188    1.454   .     S
C186   O239    1.297   .     A
C187   C308    1.361   1_455 S
C187   O360    1.389   1_455 S
C188   C247    1.361   .     S
C188   O292    1.389   .     S
C189   C191    1.392   .     A
C189   Cl209   1.762   .     S
C189   C200    1.408   .     A
C190   C201    1.408   .     A
C190   Cl210   1.762   .     S
C190   C193    1.392   .     A
C191   H215    1.084   .     S
C191   C194    1.402   .     A
C192   O233    1.294   .     A
C192   C195    1.457   .     S
C192   O235    1.296   .     A
C193   C195    1.401   .     A
C193   H221    1.084   .     S
C194   C196    1.399   .     A
C195   C197    1.399   .     A
C196   H222    1.082   .     S
C196   C198    1.390   .     A
C197   H223    1.083   .     S
C197   C199    1.390   .     A
C198   H224    1.084   .     S
C198   C200    1.402   .     A
C199   H225    1.083   .     S
C199   C201    1.402   .     A
C201   C20     1.465   1_565 S
C202   C204    1.408   .     A
C202   H226    1.079   .     S
C203   C205    1.408   .     A
C203   H227    1.078   .     S
C204   H228    1.082   .     S
C204   N229    1.362   .     A
C205   H216    1.082   .     S
C205   N230    1.362   .     A
C206   C208    1.402   .     A
C206   Cl211   1.754   .     S
C206   N229    1.372   .     A
C207   N230    1.373   .     A
C207   Cl212   1.756   .     S
C208   H217    1.079   .     S
Cu213  O235    1.954   .     S
Cu213  O231    1.950   .     S
Cu213  O236    1.974   .     S
Cu213  Cu214   2.685   .     S
Cu213  N230    2.017   .     S
Cu213  O239    1.980   .     S
Cu214  O237    1.974   .     S
Cu214  O238    1.980   .     S
Cu214  O234    1.954   .     S
Cu214  O233    1.950   .     S
Cu214  N229    2.017   .     S
H219   O360    0.988   1_455 S
H220   O292    0.989   .     S
O232   H340    0.989   1_455 S
O232   C308    1.389   1_455 S
O240   C247    1.389   .     S
O240   H279    0.988   .     S
C241   O294    1.297   .     A
C241   O291    1.294   .     A
C241   C254    1.459   .     S
C242   C244    1.406   .     A
C242   C267    1.402   .     A
C242   H278    1.079   .     S
C243   C268    1.406   .     A
C243   C262    1.418   .     A
C243   C604    1.524   1_554 S
C244   C263    1.418   .     A
C244   C603    1.524   .     S
C245   O296    1.286   .     A
C245   C247    1.454   .     S
C245   O298    1.297   .     A
C246   O297    1.286   .     A
C246   C248    1.454   .     S
C246   O299    1.297   .     A
C248   C307    1.361   .     S
C248   O352    1.389   .     S
C249   C251    1.392   .     A
C249   Cl269   1.762   .     S
C249   C260    1.408   .     A
C250   C261    1.408   .     A
C250   Cl270   1.762   .     S
C250   C253    1.392   .     A
C251   H275    1.084   .     S
C251   C254    1.402   .     A
C252   O293    1.294   .     A
C252   C255    1.457   .     S
C252   O295    1.296   .     A
C253   C255    1.401   .     A
C253   H281    1.084   .     S
C254   C256    1.399   .     A
C255   C257    1.399   .     A
C256   H282    1.082   .     S
C256   C258    1.390   .     A
C257   H283    1.083   .     S
C257   C259    1.390   .     A
C258   H284    1.084   .     S
C258   C260    1.402   .     A
C259   H285    1.083   .     S
C259   C261    1.402   .     A
C261   C80     1.465   1_565 S
C262   C264    1.408   .     A
C262   H286    1.079   .     S
C263   C265    1.408   .     A
C263   H287    1.078   .     S
C264   H288    1.082   .     S
C264   N289    1.362   .     A
C265   H276    1.082   .     S
C265   N290    1.362   .     A
C266   C268    1.402   .     A
C266   Cl271   1.754   .     S
C266   N289    1.372   .     A
C267   N290    1.373   .     A
C267   Cl272   1.756   .     S
C268   H277    1.079   .     S
Cu273  O295    1.954   .     S
Cu273  O291    1.950   .     S
Cu273  O296    1.974   .     S
Cu273  Cu274   2.685   .     S
Cu273  N290    2.017   .     S
Cu273  O299    1.980   .     S
Cu274  O297    1.974   .     S
Cu274  O298    1.980   .     S
Cu274  O294    1.954   .     S
Cu274  O293    1.950   .     S
Cu274  N289    2.017   .     S
H280   O352    0.989   .     S
O300   C307    1.389   .     S
O300   H339    0.988   .     S
C301   O354    1.297   .     A
C301   O351    1.294   .     A
C301   C314    1.459   .     S
C302   C304    1.406   .     A
C302   C327    1.402   .     A
C302   H338    1.079   .     S
C303   C328    1.406   .     A
C303   C322    1.418   .     A
C303   C664    1.524   1_554 S
C304   C323    1.418   .     A
C304   C663    1.524   .     S
C305   O356    1.286   .     A
C305   C307    1.454   .     S
C305   O358    1.297   .     A
C306   O357    1.286   .     A
C306   C308    1.454   .     S
C306   O359    1.297   .     A
C308   C187    1.361   1_655 S
C308   O232    1.389   1_655 S
C309   C311    1.392   .     A
C309   Cl329   1.762   .     S
C309   C320    1.408   .     A
C310   C321    1.408   .     A
C310   Cl330   1.762   .     S
C310   C313    1.392   .     A
C311   H335    1.084   .     S
C311   C314    1.402   .     A
C312   O353    1.294   .     A
C312   C315    1.457   .     S
C312   O355    1.296   .     A
C313   C315    1.401   .     A
C313   H341    1.084   .     S
C314   C316    1.399   .     A
C315   C317    1.399   .     A
C316   H342    1.082   .     S
C316   C318    1.390   .     A
C317   H343    1.083   .     S
C317   C319    1.390   .     A
C318   H344    1.084   .     S
C318   C320    1.402   .     A
C319   H345    1.083   .     S
C319   C321    1.402   .     A
C321   C140    1.465   1_565 S
C322   C324    1.408   .     A
C322   H346    1.079   .     S
C323   C325    1.408   .     A
C323   H347    1.078   .     S
C324   H348    1.082   .     S
C324   N349    1.362   .     A
C325   H336    1.082   .     S
C325   N350    1.362   .     A
C326   C328    1.402   .     A
C326   Cl331   1.754   .     S
C326   N349    1.372   .     A
C327   N350    1.373   .     A
C327   Cl332   1.756   .     S
C328   H337    1.079   .     S
Cu333  O355    1.954   .     S
Cu333  O351    1.950   .     S
Cu333  O356    1.974   .     S
Cu333  Cu334   2.685   .     S
Cu333  N350    2.017   .     S
Cu333  O359    1.980   .     S
Cu334  O357    1.974   .     S
Cu334  O358    1.980   .     S
Cu334  O354    1.954   .     S
Cu334  O353    1.950   .     S
Cu334  N349    2.017   .     S
H340   O232    0.989   1_655 S
O360   C187    1.389   1_655 S
O360   H219    0.988   1_655 S
C361   O414    1.297   .     A
C361   O411    1.294   .     A
C361   C374    1.459   .     S
C362   C364    1.406   .     A
C362   C387    1.402   .     A
C362   H398    1.079   .     S
C363   C388    1.406   .     A
C363   C382    1.418   .     A
C364   C383    1.418   .     A
C364   C3      1.524   1_556 S
C365   O416    1.286   .     A
C365   C367    1.454   .     S
C365   O418    1.297   .     A
C366   O417    1.286   .     A
C366   C368    1.454   .     S
C366   O419    1.297   .     A
C367   C488    1.361   1_455 S
C367   O540    1.389   1_455 S
C368   C427    1.361   .     S
C368   O472    1.389   .     S
C369   C371    1.392   .     A
C369   Cl389   1.762   .     S
C369   C380    1.408   .     A
C370   C381    1.408   .     A
C370   Cl390   1.762   .     S
C370   C373    1.392   .     A
C371   H395    1.084   .     S
C371   C374    1.402   .     A
C372   O413    1.294   .     A
C372   C375    1.457   .     S
C372   O415    1.296   .     A
C373   C375    1.401   .     A
C373   H401    1.084   .     S
C374   C376    1.399   .     A
C375   C377    1.399   .     A
C376   H402    1.082   .     S
C376   C378    1.390   .     A
C377   H403    1.083   .     S
C377   C379    1.390   .     A
C378   H404    1.084   .     S
C378   C380    1.402   .     A
C379   H405    1.083   .     S
C379   C381    1.402   .     A
C380   C561    1.465   1_545 S
C381   C560    1.465   .     S
C382   C384    1.408   .     A
C382   H406    1.079   .     S
C383   C385    1.408   .     A
C383   H407    1.078   .     S
C384   H408    1.082   .     S
C384   N409    1.362   .     A
C385   H396    1.082   .     S
C385   N410    1.362   .     A
C386   C388    1.402   .     A
C386   Cl391   1.754   .     S
C386   N409    1.372   .     A
C387   N410    1.373   .     A
C387   Cl392   1.756   .     S
C388   H397    1.079   .     S
Cu393  O415    1.954   .     S
Cu393  O411    1.950   .     S
Cu393  O416    1.974   .     S
Cu393  Cu394   2.685   .     S
Cu393  N410    2.017   .     S
Cu393  O419    1.980   .     S
Cu394  O417    1.974   .     S
Cu394  O418    1.980   .     S
Cu394  O414    1.954   .     S
Cu394  O413    1.950   .     S
Cu394  N409    2.017   .     S
H399   O540    0.988   1_455 S
H400   O472    0.989   .     S
O412   H520    0.989   1_455 S
O412   C488    1.389   1_455 S
O420   C427    1.389   .     S
O420   H459    0.988   .     S
C421   O474    1.297   .     A
C421   O471    1.294   .     A
C421   C434    1.459   .     S
C422   C424    1.406   .     A
C422   C447    1.402   .     A
C422   H458    1.079   .     S
C423   C448    1.406   .     A
C423   C442    1.418   .     A
C424   C443    1.418   .     A
C424   C63     1.524   1_556 S
C425   O476    1.286   .     A
C425   C427    1.454   .     S
C425   O478    1.297   .     A
C426   O477    1.286   .     A
C426   C428    1.454   .     S
C426   O479    1.297   .     A
C428   C487    1.361   .     S
C428   O532    1.389   .     S
C429   C431    1.392   .     A
C429   Cl449   1.762   .     S
C429   C440    1.408   .     A
C430   C441    1.408   .     A
C430   Cl450   1.762   .     S
C430   C433    1.392   .     A
C431   H455    1.084   .     S
C431   C434    1.402   .     A
C432   O473    1.294   .     A
C432   C435    1.457   .     S
C432   O475    1.296   .     A
C433   C435    1.401   .     A
C433   H461    1.084   .     S
C434   C436    1.399   .     A
C435   C437    1.399   .     A
C436   H462    1.082   .     S
C436   C438    1.390   .     A
C437   H463    1.083   .     S
C437   C439    1.390   .     A
C438   H464    1.084   .     S
C438   C440    1.402   .     A
C439   H465    1.083   .     S
C439   C441    1.402   .     A
C440   C621    1.465   1_545 S
C441   C620    1.465   .     S
C442   C444    1.408   .     A
C442   H466    1.079   .     S
C443   C445    1.408   .     A
C443   H467    1.078   .     S
C444   H468    1.082   .     S
C444   N469    1.362   .     A
C445   H456    1.082   .     S
C445   N470    1.362   .     A
C446   C448    1.402   .     A
C446   Cl451   1.754   .     S
C446   N469    1.372   .     A
C447   N470    1.373   .     A
C447   Cl452   1.756   .     S
C448   H457    1.079   .     S
Cu453  O475    1.954   .     S
Cu453  O471    1.950   .     S
Cu453  O476    1.974   .     S
Cu453  Cu454   2.685   .     S
Cu453  N470    2.017   .     S
Cu453  O479    1.980   .     S
Cu454  O477    1.974   .     S
Cu454  O478    1.980   .     S
Cu454  O474    1.954   .     S
Cu454  O473    1.950   .     S
Cu454  N469    2.017   .     S
H460   O532    0.989   .     S
O480   C487    1.389   .     S
O480   H519    0.988   .     S
C481   O534    1.297   .     A
C481   O531    1.294   .     A
C481   C494    1.459   .     S
C482   C484    1.406   .     A
C482   C507    1.402   .     A
C482   H518    1.079   .     S
C483   C508    1.406   .     A
C483   C502    1.418   .     A
C484   C503    1.418   .     A
C484   C123    1.524   1_556 S
C485   O536    1.286   .     A
C485   C487    1.454   .     S
C485   O538    1.297   .     A
C486   O537    1.286   .     A
C486   C488    1.454   .     S
C486   O539    1.297   .     A
C488   C367    1.361   1_655 S
C488   O412    1.389   1_655 S
C489   C491    1.392   .     A
C489   Cl509   1.762   .     S
C489   C500    1.408   .     A
C490   C501    1.408   .     A
C490   Cl510   1.762   .     S
C490   C493    1.392   .     A
C491   H515    1.084   .     S
C491   C494    1.402   .     A
C492   O533    1.294   .     A
C492   C495    1.457   .     S
C492   O535    1.296   .     A
C493   C495    1.401   .     A
C493   H521    1.084   .     S
C494   C496    1.399   .     A
C495   C497    1.399   .     A
C496   H522    1.082   .     S
C496   C498    1.390   .     A
C497   H523    1.083   .     S
C497   C499    1.390   .     A
C498   H524    1.084   .     S
C498   C500    1.402   .     A
C499   H525    1.083   .     S
C499   C501    1.402   .     A
C500   C681    1.465   1_545 S
C501   C680    1.465   .     S
C502   C504    1.408   .     A
C502   H526    1.079   .     S
C503   C505    1.408   .     A
C503   H527    1.078   .     S
C504   H528    1.082   .     S
C504   N529    1.362   .     A
C505   H516    1.082   .     S
C505   N530    1.362   .     A
C506   C508    1.402   .     A
C506   Cl511   1.754   .     S
C506   N529    1.372   .     A
C507   N530    1.373   .     A
C507   Cl512   1.756   .     S
C508   H517    1.079   .     S
Cu513  O535    1.954   .     S
Cu513  O531    1.950   .     S
Cu513  O536    1.974   .     S
Cu513  Cu514   2.685   .     S
Cu513  N530    2.017   .     S
Cu513  O539    1.980   .     S
Cu514  O537    1.974   .     S
Cu514  O538    1.980   .     S
Cu514  O534    1.954   .     S
Cu514  O533    1.950   .     S
Cu514  N529    2.017   .     S
H520   O412    0.989   1_655 S
O540   C367    1.389   1_655 S
O540   H399    0.988   1_655 S
C541   O594    1.297   .     A
C541   O591    1.294   .     A
C541   C554    1.459   .     S
C542   C544    1.406   .     A
C542   C567    1.402   .     A
C542   H578    1.079   .     S
C543   C568    1.406   .     A
C543   C562    1.418   .     A
C544   C563    1.418   .     A
C544   C183    1.524   1_556 S
C545   O596    1.286   .     A
C545   C547    1.454   .     S
C545   O598    1.297   .     A
C546   O597    1.286   .     A
C546   C548    1.454   .     S
C546   O599    1.297   .     A
C547   C668    1.361   1_455 S
C547   O720    1.389   1_455 S
C548   C607    1.361   .     S
C548   O652    1.389   .     S
C549   C551    1.392   .     A
C549   Cl569   1.762   .     S
C549   C560    1.408   .     A
C550   C561    1.408   .     A
C550   Cl570   1.762   .     S
C550   C553    1.392   .     A
C551   H575    1.084   .     S
C551   C554    1.402   .     A
C552   O593    1.294   .     A
C552   C555    1.457   .     S
C552   O595    1.296   .     A
C553   C555    1.401   .     A
C553   H581    1.084   .     S
C554   C556    1.399   .     A
C555   C557    1.399   .     A
C556   H582    1.082   .     S
C556   C558    1.390   .     A
C557   H583    1.083   .     S
C557   C559    1.390   .     A
C558   H584    1.084   .     S
C558   C560    1.402   .     A
C559   H585    1.083   .     S
C559   C561    1.402   .     A
C561   C380    1.465   1_565 S
C562   C564    1.408   .     A
C562   H586    1.079   .     S
C563   C565    1.408   .     A
C563   H587    1.078   .     S
C564   H588    1.082   .     S
C564   N589    1.362   .     A
C565   H576    1.082   .     S
C565   N590    1.362   .     A
C566   C568    1.402   .     A
C566   Cl571   1.754   .     S
C566   N589    1.372   .     A
C567   N590    1.373   .     A
C567   Cl572   1.756   .     S
C568   H577    1.079   .     S
Cu573  O595    1.954   .     S
Cu573  O591    1.950   .     S
Cu573  O596    1.974   .     S
Cu573  Cu574   2.685   .     S
Cu573  N590    2.017   .     S
Cu573  O599    1.980   .     S
Cu574  O597    1.974   .     S
Cu574  O598    1.980   .     S
Cu574  O594    1.954   .     S
Cu574  O593    1.950   .     S
Cu574  N589    2.017   .     S
H579   O720    0.988   1_455 S
H580   O652    0.989   .     S
O592   H700    0.989   1_455 S
O592   C668    1.389   1_455 S
O600   C607    1.389   .     S
O600   H639    0.988   .     S
C601   O654    1.297   .     A
C601   O651    1.294   .     A
C601   C614    1.459   .     S
C602   C604    1.406   .     A
C602   C627    1.402   .     A
C602   H638    1.079   .     S
C603   C628    1.406   .     A
C603   C622    1.418   .     A
C604   C623    1.418   .     A
C604   C243    1.524   1_556 S
C605   O656    1.286   .     A
C605   C607    1.454   .     S
C605   O658    1.297   .     A
C606   O657    1.286   .     A
C606   C608    1.454   .     S
C606   O659    1.297   .     A
C608   C667    1.361   .     S
C608   O712    1.389   .     S
C609   C611    1.392   .     A
C609   Cl629   1.762   .     S
C609   C620    1.408   .     A
C610   C621    1.408   .     A
C610   Cl630   1.762   .     S
C610   C613    1.392   .     A
C611   H635    1.084   .     S
C611   C614    1.402   .     A
C612   O653    1.294   .     A
C612   C615    1.457   .     S
C612   O655    1.296   .     A
C613   C615    1.401   .     A
C613   H641    1.084   .     S
C614   C616    1.399   .     A
C615   C617    1.399   .     A
C616   H642    1.082   .     S
C616   C618    1.390   .     A
C617   H643    1.083   .     S
C617   C619    1.390   .     A
C618   H644    1.084   .     S
C618   C620    1.402   .     A
C619   H645    1.083   .     S
C619   C621    1.402   .     A
C621   C440    1.465   1_565 S
C622   C624    1.408   .     A
C622   H646    1.079   .     S
C623   C625    1.408   .     A
C623   H647    1.078   .     S
C624   H648    1.082   .     S
C624   N649    1.362   .     A
C625   H636    1.082   .     S
C625   N650    1.362   .     A
C626   C628    1.402   .     A
C626   Cl631   1.754   .     S
C626   N649    1.372   .     A
C627   N650    1.373   .     A
C627   Cl632   1.756   .     S
C628   H637    1.079   .     S
Cu633  O655    1.954   .     S
Cu633  O651    1.950   .     S
Cu633  O656    1.974   .     S
Cu633  Cu634   2.685   .     S
Cu633  N650    2.017   .     S
Cu633  O659    1.980   .     S
Cu634  O657    1.974   .     S
Cu634  O658    1.980   .     S
Cu634  O654    1.954   .     S
Cu634  O653    1.950   .     S
Cu634  N649    2.017   .     S
H640   O712    0.989   .     S
O660   C667    1.389   .     S
O660   H699    0.988   .     S
C661   O714    1.297   .     A
C661   O711    1.294   .     A
C661   C674    1.459   .     S
C662   C664    1.406   .     A
C662   C687    1.402   .     A
C662   H698    1.079   .     S
C663   C688    1.406   .     A
C663   C682    1.418   .     A
C664   C683    1.418   .     A
C664   C303    1.524   1_556 S
C665   O716    1.286   .     A
C665   C667    1.454   .     S
C665   O718    1.297   .     A
C666   O717    1.286   .     A
C666   C668    1.454   .     S
C666   O719    1.297   .     A
C668   C547    1.361   1_655 S
C668   O592    1.389   1_655 S
C669   C671    1.392   .     A
C669   Cl689   1.762   .     S
C669   C680    1.408   .     A
C670   C681    1.408   .     A
C670   Cl690   1.762   .     S
C670   C673    1.392   .     A
C671   H695    1.084   .     S
C671   C674    1.402   .     A
C672   O713    1.294   .     A
C672   C675    1.457   .     S
C672   O715    1.296   .     A
C673   C675    1.401   .     A
C673   H701    1.084   .     S
C674   C676    1.399   .     A
C675   C677    1.399   .     A
C676   H702    1.082   .     S
C676   C678    1.390   .     A
C677   H703    1.083   .     S
C677   C679    1.390   .     A
C678   H704    1.084   .     S
C678   C680    1.402   .     A
C679   H705    1.083   .     S
C679   C681    1.402   .     A
C681   C500    1.465   1_565 S
C682   C684    1.408   .     A
C682   H706    1.079   .     S
C683   C685    1.408   .     A
C683   H707    1.078   .     S
C684   H708    1.082   .     S
C684   N709    1.362   .     A
C685   H696    1.082   .     S
C685   N710    1.362   .     A
C686   C688    1.402   .     A
C686   Cl691   1.754   .     S
C686   N709    1.372   .     A
C687   N710    1.373   .     A
C687   Cl692   1.756   .     S
C688   H697    1.079   .     S
Cu693  O715    1.954   .     S
Cu693  O711    1.950   .     S
Cu693  O716    1.974   .     S
Cu693  Cu694   2.685   .     S
Cu693  N710    2.017   .     S
Cu693  O719    1.980   .     S
Cu694  O717    1.974   .     S
Cu694  O718    1.980   .     S
Cu694  O714    1.954   .     S
Cu694  O713    1.950   .     S
Cu694  N709    2.017   .     S
H700   O592    0.989   1_655 S
O720   C547    1.389   1_655 S
O720   H579    0.988   1_655 S
