data_str_m2_o2_o10_pcu_sym.71
_audit_creation_date              2020-01-03
_audit_creation_method            'Materials Studio'
_symmetry_space_group_name_H-M    'P1'
_symmetry_Int_Tables_number       1
_symmetry_cell_setting            triclinic
loop_
_symmetry_equiv_pos_as_xyz
  x,y,z
_cell_length_a                    26.2499
_cell_length_b                    30.3229
_cell_length_c                    27.8663
_cell_angle_alpha                 90.2061
_cell_angle_beta                  96.1303
_cell_angle_gamma                 91.4871
loop_
_atom_site_label
_atom_site_type_symbol
_atom_site_fract_x
_atom_site_fract_y
_atom_site_fract_z
_atom_site_U_iso_or_equiv
_atom_site_adp_type
_atom_site_occupancy
C1     C     0.16736   0.16490   0.24978   0.00000  Uiso   1.00
C2     C     0.21428   0.26205   0.44964   0.00000  Uiso   1.00
C3     C     0.17128   0.24477   0.02774   0.00000  Uiso   1.00
C4     C     0.17219   0.24558   0.47326   0.00000  Uiso   1.00
C5     C     0.06834   0.24879   0.23842   0.00000  Uiso   1.00
C6     C     0.26500   0.25206   0.26151   0.00000  Uiso   1.00
C7     C     0.01421   0.24022   0.23461   0.00000  Uiso   1.00
C8     C     0.31912   0.26153   0.26478   0.00000  Uiso   1.00
C9     C     0.14523   0.04794   0.28776   0.00000  Uiso   1.00
C10    C     0.14292   0.45116   0.21003   0.00000  Uiso   1.00
C11    C     0.14759   0.09375   0.28727   0.00000  Uiso   1.00
C12    C     0.16733   0.33508   0.25042   0.00000  Uiso   1.00
C13    C     0.14524   0.40547   0.21040   0.00000  Uiso   1.00
C14    C     0.16699   0.11636   0.24894   0.00000  Uiso   1.00
C15    C     0.16673   0.38350   0.25164   0.00000  Uiso   1.00
C16    C     0.18494   0.09191   0.21070   0.00000  Uiso   1.00
C17    C     0.18604   0.40835   0.29341   0.00000  Uiso   1.00
C18    C     0.18198   0.04588   0.21176   0.00000  Uiso   1.00
C19    C     0.18312   0.45427   0.29237   0.00000  Uiso   1.00
C20    C     0.16219   0.02391   0.24989   0.00000  Uiso   1.00
C21    C     0.16186   0.47567   0.25098   0.00000  Uiso   1.00
C22    C     0.32721   0.20201   0.20215   0.00000  Uiso   1.00
C23    C     0.18951   0.28191   0.05465   0.00000  Uiso   1.00
C24    C     0.00557   0.30163   0.29467   0.00000  Uiso   1.00
C25    C     0.20827   0.11318   0.16907   0.00000  Uiso   1.00
C26    C     0.21100   0.38751   0.33883   0.00000  Uiso   1.00
C27    C     0.21970   0.32129   0.13052   0.00000  Uiso   1.00
C28    C     0.08349   0.20464   0.36643   0.00000  Uiso   1.00
C29    C     0.13376   0.16565   0.03044   0.00000  Uiso   1.00
C30    C     0.26604   0.27328   0.47625   0.00000  Uiso   1.00
C31    C     0.12831   0.23179   0.44369   0.00000  Uiso   1.00
C32    C     0.19053   0.28306   0.10518   0.00000  Uiso   1.00
C33    C     0.12739   0.23056   0.39316   0.00000  Uiso   1.00
C34    C     0.14562   0.21441   0.10358   0.00000  Uiso   1.00
C35    C     0.20900   0.26617   0.39867   0.00000  Uiso   1.00
C36    C     0.14993   0.20952   0.05351   0.00000  Uiso   1.00
Cu37   Cu    0.16667   0.24999   0.29822   0.00000  Uiso   1.00
Cu38   Cu    0.16667   0.25000   0.20179   0.00000  Uiso   1.00
H39    H     0.12987   0.03121   0.31756   0.00000  Uiso   1.00
H40    H     0.30638   0.17783   0.22318   0.00000  Uiso   1.00
H41    H     0.30178   0.21397   0.17079   0.00000  Uiso   1.00
H42    H     0.30709   0.31886   0.30928   0.00000  Uiso   1.00
H43    H     0.03280   0.29252   0.32585   0.00000  Uiso   1.00
H44    H     0.02465   0.32555   0.27184   0.00000  Uiso   1.00
H45    H     0.23841   0.13773   0.18252   0.00000  Uiso   1.00
H46    H     0.22645   0.08870   0.14702   0.00000  Uiso   1.00
H47    H     0.17809   0.12913   0.14492   0.00000  Uiso   1.00
H48    H     0.24170   0.36543   0.32998   0.00000  Uiso   1.00
H49    H     0.22890   0.41261   0.36495   0.00000  Uiso   1.00
H50    H     0.12615   0.46742   0.17780   0.00000  Uiso   1.00
H51    H     0.18195   0.36869   0.35719   0.00000  Uiso   1.00
H52    H     0.24212   0.31097   0.16416   0.00000  Uiso   1.00
H53    H     0.24826   0.33571   0.10791   0.00000  Uiso   1.00
H54    H     0.19308   0.34787   0.13706   0.00000  Uiso   1.00
H55    H     0.09484   0.18723   0.33470   0.00000  Uiso   1.00
H56    H     0.06954   0.17823   0.38971   0.00000  Uiso   1.00
H57    H     0.05083   0.22619   0.35636   0.00000  Uiso   1.00
H58    H     0.12694   0.18851   0.12231   0.00000  Uiso   1.00
H59    H     0.24044   0.28051   0.38144   0.00000  Uiso   1.00
H60    H     0.09130   0.16297   0.02445   0.00000  Uiso   1.00
H61    H     0.13361   0.11152   0.31679   0.00000  Uiso   1.00
H62    H     0.15017   0.16067   0.49585   0.00000  Uiso   1.00
H63    H     0.14787   0.13848   0.05453   0.00000  Uiso   1.00
H64    H     0.27170   0.30965   0.47878   0.00000  Uiso   1.00
H65    H     0.27081   0.25878   0.01286   0.00000  Uiso   1.00
H66    H     0.29668   0.25957   0.45645   0.00000  Uiso   1.00
H67    H     0.12950   0.38724   0.17850   0.00000  Uiso   1.00
H68    H     0.19605   0.02686   0.18314   0.00000  Uiso   1.00
H69    H     0.19851   0.47368   0.32359   0.00000  Uiso   1.00
H70    H     0.20433   0.31012   0.03629   0.00000  Uiso   1.00
H71    H     0.09487   0.22012   0.46002   0.00000  Uiso   1.00
H72    H     0.02546   0.18421   0.18763   0.00000  Uiso   1.00
N73    N     0.16667   0.25001   0.12935   0.00000  Uiso   1.00
N74    N     0.16667   0.24999   0.37066   0.00000  Uiso   1.00
O75    O     0.16667   0.18572   0.29072   0.00000  Uiso   1.00
O76    O     0.16666   0.31427   0.20929   0.00000  Uiso   1.00
O77    O     0.16667   0.18573   0.20928   0.00000  Uiso   1.00
O78    O     0.16666   0.31427   0.29072   0.00000  Uiso   1.00
O79    O     0.09161   0.25000   0.28132   0.00000  Uiso   1.00
O80    O     0.24172   0.25000   0.21868   0.00000  Uiso   1.00
O81    O     0.09161   0.25000   0.19989   0.00000  Uiso   1.00
O82    O     0.24172   0.25000   0.30012   0.00000  Uiso   1.00
C83    C     0.50069   0.16490   0.24978   0.00000  Uiso   1.00
C84    C     0.54762   0.26205   0.44964   0.00000  Uiso   1.00
C85    C     0.50461   0.24477   0.02774   0.00000  Uiso   1.00
C86    C     0.50552   0.24558   0.47326   0.00000  Uiso   1.00
C87    C     0.40168   0.24879   0.23842   0.00000  Uiso   1.00
C88    C     0.59834   0.25206   0.26151   0.00000  Uiso   1.00
C89    C     0.34754   0.24022   0.23461   0.00000  Uiso   1.00
C90    C     0.65245   0.26153   0.26478   0.00000  Uiso   1.00
C91    C     0.47856   0.04794   0.28776   0.00000  Uiso   1.00
C92    C     0.47626   0.45116   0.21003   0.00000  Uiso   1.00
C93    C     0.48092   0.09375   0.28727   0.00000  Uiso   1.00
C94    C     0.50066   0.33508   0.25042   0.00000  Uiso   1.00
C95    C     0.47857   0.40547   0.21040   0.00000  Uiso   1.00
C96    C     0.50032   0.11636   0.24894   0.00000  Uiso   1.00
C97    C     0.50006   0.38350   0.25164   0.00000  Uiso   1.00
C98    C     0.51827   0.09191   0.21070   0.00000  Uiso   1.00
C99    C     0.51937   0.40835   0.29341   0.00000  Uiso   1.00
C100   C     0.51531   0.04588   0.21176   0.00000  Uiso   1.00
C101   C     0.51645   0.45427   0.29237   0.00000  Uiso   1.00
C102   C     0.49553   0.02391   0.24989   0.00000  Uiso   1.00
C103   C     0.49519   0.47567   0.25098   0.00000  Uiso   1.00
C104   C     0.66055   0.20201   0.20215   0.00000  Uiso   1.00
C105   C     0.52284   0.28191   0.05465   0.00000  Uiso   1.00
C106   C     0.33890   0.30163   0.29467   0.00000  Uiso   1.00
C107   C     0.54161   0.11318   0.16907   0.00000  Uiso   1.00
C108   C     0.54433   0.38751   0.33883   0.00000  Uiso   1.00
C109   C     0.55304   0.32129   0.13052   0.00000  Uiso   1.00
C110   C     0.41683   0.20464   0.36643   0.00000  Uiso   1.00
C111   C     0.46709   0.16565   0.03044   0.00000  Uiso   1.00
C112   C     0.59938   0.27328   0.47625   0.00000  Uiso   1.00
C113   C     0.46164   0.23179   0.44369   0.00000  Uiso   1.00
C114   C     0.52386   0.28306   0.10518   0.00000  Uiso   1.00
C115   C     0.46072   0.23056   0.39316   0.00000  Uiso   1.00
C116   C     0.47895   0.21441   0.10358   0.00000  Uiso   1.00
C117   C     0.54233   0.26617   0.39867   0.00000  Uiso   1.00
C118   C     0.48327   0.20952   0.05351   0.00000  Uiso   1.00
Cu119  Cu    0.50000   0.24999   0.29822   0.00000  Uiso   1.00
Cu120  Cu    0.50000   0.25000   0.20179   0.00000  Uiso   1.00
H121   H     0.46321   0.03121   0.31756   0.00000  Uiso   1.00
H122   H     0.63971   0.17783   0.22318   0.00000  Uiso   1.00
H123   H     0.63511   0.21397   0.17079   0.00000  Uiso   1.00
H124   H     0.64042   0.31886   0.30928   0.00000  Uiso   1.00
H125   H     0.36613   0.29252   0.32585   0.00000  Uiso   1.00
H126   H     0.35798   0.32555   0.27184   0.00000  Uiso   1.00
H127   H     0.57174   0.13773   0.18252   0.00000  Uiso   1.00
H128   H     0.55979   0.08870   0.14702   0.00000  Uiso   1.00
H129   H     0.51143   0.12913   0.14492   0.00000  Uiso   1.00
H130   H     0.57503   0.36543   0.32998   0.00000  Uiso   1.00
H131   H     0.56224   0.41261   0.36495   0.00000  Uiso   1.00
H132   H     0.45949   0.46742   0.17780   0.00000  Uiso   1.00
H133   H     0.51528   0.36869   0.35719   0.00000  Uiso   1.00
H134   H     0.57545   0.31097   0.16416   0.00000  Uiso   1.00
H135   H     0.58159   0.33571   0.10791   0.00000  Uiso   1.00
H136   H     0.52641   0.34787   0.13706   0.00000  Uiso   1.00
H137   H     0.42817   0.18723   0.33470   0.00000  Uiso   1.00
H138   H     0.40287   0.17823   0.38971   0.00000  Uiso   1.00
H139   H     0.38416   0.22619   0.35636   0.00000  Uiso   1.00
H140   H     0.46027   0.18851   0.12231   0.00000  Uiso   1.00
H141   H     0.57378   0.28051   0.38144   0.00000  Uiso   1.00
H142   H     0.42463   0.16297   0.02445   0.00000  Uiso   1.00
H143   H     0.46694   0.11152   0.31679   0.00000  Uiso   1.00
H144   H     0.48350   0.16067   0.49585   0.00000  Uiso   1.00
H145   H     0.48120   0.13848   0.05453   0.00000  Uiso   1.00
H146   H     0.60504   0.30965   0.47878   0.00000  Uiso   1.00
H147   H     0.60415   0.25878   0.01286   0.00000  Uiso   1.00
H148   H     0.63002   0.25957   0.45645   0.00000  Uiso   1.00
H149   H     0.46283   0.38724   0.17850   0.00000  Uiso   1.00
H150   H     0.52939   0.02686   0.18314   0.00000  Uiso   1.00
H151   H     0.53184   0.47368   0.32359   0.00000  Uiso   1.00
H152   H     0.53767   0.31012   0.03629   0.00000  Uiso   1.00
H153   H     0.42820   0.22012   0.46002   0.00000  Uiso   1.00
H154   H     0.35879   0.18421   0.18763   0.00000  Uiso   1.00
N155   N     0.50000   0.25001   0.12935   0.00000  Uiso   1.00
N156   N     0.50000   0.24999   0.37066   0.00000  Uiso   1.00
O157   O     0.50000   0.18572   0.29072   0.00000  Uiso   1.00
O158   O     0.50000   0.31427   0.20929   0.00000  Uiso   1.00
O159   O     0.50000   0.18573   0.20928   0.00000  Uiso   1.00
O160   O     0.50000   0.31427   0.29072   0.00000  Uiso   1.00
O161   O     0.42495   0.25000   0.28132   0.00000  Uiso   1.00
O162   O     0.57505   0.25000   0.21868   0.00000  Uiso   1.00
O163   O     0.42495   0.25000   0.19989   0.00000  Uiso   1.00
O164   O     0.57505   0.25000   0.30012   0.00000  Uiso   1.00
C165   C     0.83402   0.16490   0.24978   0.00000  Uiso   1.00
C166   C     0.88095   0.26205   0.44964   0.00000  Uiso   1.00
C167   C     0.83794   0.24477   0.02774   0.00000  Uiso   1.00
C168   C     0.83886   0.24558   0.47326   0.00000  Uiso   1.00
C169   C     0.73501   0.24879   0.23842   0.00000  Uiso   1.00
C170   C     0.93167   0.25206   0.26151   0.00000  Uiso   1.00
C171   C     0.68087   0.24022   0.23461   0.00000  Uiso   1.00
C172   C     0.98579   0.26153   0.26478   0.00000  Uiso   1.00
C173   C     0.81190   0.04794   0.28776   0.00000  Uiso   1.00
C174   C     0.80959   0.45116   0.21003   0.00000  Uiso   1.00
C175   C     0.81426   0.09375   0.28727   0.00000  Uiso   1.00
C176   C     0.83400   0.33508   0.25042   0.00000  Uiso   1.00
C177   C     0.81191   0.40547   0.21040   0.00000  Uiso   1.00
C178   C     0.83366   0.11636   0.24894   0.00000  Uiso   1.00
C179   C     0.83339   0.38350   0.25164   0.00000  Uiso   1.00
C180   C     0.85160   0.09191   0.21070   0.00000  Uiso   1.00
C181   C     0.85271   0.40835   0.29341   0.00000  Uiso   1.00
C182   C     0.84865   0.04588   0.21176   0.00000  Uiso   1.00
C183   C     0.84979   0.45427   0.29237   0.00000  Uiso   1.00
C184   C     0.82886   0.02391   0.24989   0.00000  Uiso   1.00
C185   C     0.82852   0.47567   0.25098   0.00000  Uiso   1.00
C186   C     0.99388   0.20201   0.20215   0.00000  Uiso   1.00
C187   C     0.85617   0.28191   0.05465   0.00000  Uiso   1.00
C188   C     0.67224   0.30163   0.29467   0.00000  Uiso   1.00
C189   C     0.87494   0.11318   0.16907   0.00000  Uiso   1.00
C190   C     0.87766   0.38751   0.33883   0.00000  Uiso   1.00
C191   C     0.88637   0.32129   0.13052   0.00000  Uiso   1.00
C192   C     0.75016   0.20464   0.36643   0.00000  Uiso   1.00
C193   C     0.80043   0.16565   0.03044   0.00000  Uiso   1.00
C194   C     0.93271   0.27328   0.47625   0.00000  Uiso   1.00
C195   C     0.79497   0.23179   0.44369   0.00000  Uiso   1.00
C196   C     0.85720   0.28306   0.10518   0.00000  Uiso   1.00
C197   C     0.79405   0.23056   0.39316   0.00000  Uiso   1.00
C198   C     0.81228   0.21441   0.10358   0.00000  Uiso   1.00
C199   C     0.87566   0.26617   0.39867   0.00000  Uiso   1.00
C200   C     0.81660   0.20952   0.05351   0.00000  Uiso   1.00
Cu201  Cu    0.83333   0.24999   0.29822   0.00000  Uiso   1.00
Cu202  Cu    0.83333   0.25000   0.20179   0.00000  Uiso   1.00
H203   H     0.79654   0.03121   0.31756   0.00000  Uiso   1.00
H204   H     0.97304   0.17783   0.22318   0.00000  Uiso   1.00
H205   H     0.96844   0.21397   0.17079   0.00000  Uiso   1.00
H206   H     0.97376   0.31886   0.30928   0.00000  Uiso   1.00
H207   H     0.69947   0.29252   0.32585   0.00000  Uiso   1.00
H208   H     0.69132   0.32555   0.27184   0.00000  Uiso   1.00
H209   H     0.90507   0.13773   0.18252   0.00000  Uiso   1.00
H210   H     0.89312   0.08870   0.14702   0.00000  Uiso   1.00
H211   H     0.84476   0.12913   0.14492   0.00000  Uiso   1.00
H212   H     0.90837   0.36543   0.32998   0.00000  Uiso   1.00
H213   H     0.89557   0.41261   0.36495   0.00000  Uiso   1.00
H214   H     0.79282   0.46742   0.17780   0.00000  Uiso   1.00
H215   H     0.84861   0.36869   0.35719   0.00000  Uiso   1.00
H216   H     0.90879   0.31097   0.16416   0.00000  Uiso   1.00
H217   H     0.91492   0.33571   0.10791   0.00000  Uiso   1.00
H218   H     0.85974   0.34787   0.13706   0.00000  Uiso   1.00
H219   H     0.76151   0.18723   0.33470   0.00000  Uiso   1.00
H220   H     0.73620   0.17823   0.38971   0.00000  Uiso   1.00
H221   H     0.71749   0.22619   0.35636   0.00000  Uiso   1.00
H222   H     0.79361   0.18851   0.12231   0.00000  Uiso   1.00
H223   H     0.90711   0.28051   0.38144   0.00000  Uiso   1.00
H224   H     0.75797   0.16297   0.02445   0.00000  Uiso   1.00
H225   H     0.80028   0.11152   0.31679   0.00000  Uiso   1.00
H226   H     0.81683   0.16067   0.49585   0.00000  Uiso   1.00
H227   H     0.81454   0.13848   0.05453   0.00000  Uiso   1.00
H228   H     0.93837   0.30965   0.47878   0.00000  Uiso   1.00
H229   H     0.93748   0.25878   0.01286   0.00000  Uiso   1.00
H230   H     0.96335   0.25957   0.45645   0.00000  Uiso   1.00
H231   H     0.79616   0.38724   0.17850   0.00000  Uiso   1.00
H232   H     0.86272   0.02686   0.18314   0.00000  Uiso   1.00
H233   H     0.86517   0.47368   0.32359   0.00000  Uiso   1.00
H234   H     0.87100   0.31012   0.03629   0.00000  Uiso   1.00
H235   H     0.76153   0.22012   0.46002   0.00000  Uiso   1.00
H236   H     0.69212   0.18421   0.18763   0.00000  Uiso   1.00
N237   N     0.83333   0.25001   0.12935   0.00000  Uiso   1.00
N238   N     0.83333   0.24999   0.37066   0.00000  Uiso   1.00
O239   O     0.83334   0.18572   0.29072   0.00000  Uiso   1.00
O240   O     0.83333   0.31427   0.20929   0.00000  Uiso   1.00
O241   O     0.83334   0.18573   0.20928   0.00000  Uiso   1.00
O242   O     0.83333   0.31427   0.29072   0.00000  Uiso   1.00
O243   O     0.75828   0.25000   0.28132   0.00000  Uiso   1.00
O244   O     0.90839   0.25000   0.21868   0.00000  Uiso   1.00
O245   O     0.75828   0.25000   0.19989   0.00000  Uiso   1.00
O246   O     0.90839   0.25000   0.30012   0.00000  Uiso   1.00
C247   C     0.16736   0.66490   0.24978   0.00000  Uiso   1.00
C248   C     0.21428   0.76205   0.44964   0.00000  Uiso   1.00
C249   C     0.17128   0.74477   0.02774   0.00000  Uiso   1.00
C250   C     0.17219   0.74558   0.47326   0.00000  Uiso   1.00
C251   C     0.06834   0.74879   0.23842   0.00000  Uiso   1.00
C252   C     0.26500   0.75206   0.26151   0.00000  Uiso   1.00
C253   C     0.01421   0.74022   0.23461   0.00000  Uiso   1.00
C254   C     0.31912   0.76153   0.26478   0.00000  Uiso   1.00
C255   C     0.14523   0.54794   0.28776   0.00000  Uiso   1.00
C256   C     0.14292   0.95116   0.21003   0.00000  Uiso   1.00
C257   C     0.14759   0.59375   0.28727   0.00000  Uiso   1.00
C258   C     0.16733   0.83508   0.25042   0.00000  Uiso   1.00
C259   C     0.14524   0.90547   0.21040   0.00000  Uiso   1.00
C260   C     0.16699   0.61636   0.24894   0.00000  Uiso   1.00
C261   C     0.16673   0.88350   0.25164   0.00000  Uiso   1.00
C262   C     0.18494   0.59191   0.21070   0.00000  Uiso   1.00
C263   C     0.18604   0.90835   0.29341   0.00000  Uiso   1.00
C264   C     0.18198   0.54588   0.21176   0.00000  Uiso   1.00
C265   C     0.18312   0.95427   0.29237   0.00000  Uiso   1.00
C266   C     0.16219   0.52391   0.24989   0.00000  Uiso   1.00
C267   C     0.16186   0.97567   0.25098   0.00000  Uiso   1.00
C268   C     0.32721   0.70201   0.20215   0.00000  Uiso   1.00
C269   C     0.18951   0.78191   0.05465   0.00000  Uiso   1.00
C270   C     0.00557   0.80163   0.29467   0.00000  Uiso   1.00
C271   C     0.20827   0.61318   0.16907   0.00000  Uiso   1.00
C272   C     0.21100   0.88751   0.33883   0.00000  Uiso   1.00
C273   C     0.21970   0.82129   0.13052   0.00000  Uiso   1.00
C274   C     0.08349   0.70464   0.36643   0.00000  Uiso   1.00
C275   C     0.13376   0.66565   0.03044   0.00000  Uiso   1.00
C276   C     0.26604   0.77328   0.47625   0.00000  Uiso   1.00
C277   C     0.12831   0.73179   0.44369   0.00000  Uiso   1.00
C278   C     0.19053   0.78306   0.10518   0.00000  Uiso   1.00
C279   C     0.12739   0.73056   0.39316   0.00000  Uiso   1.00
C280   C     0.14562   0.71441   0.10358   0.00000  Uiso   1.00
C281   C     0.20900   0.76617   0.39867   0.00000  Uiso   1.00
C282   C     0.14993   0.70952   0.05351   0.00000  Uiso   1.00
Cu283  Cu    0.16667   0.74999   0.29822   0.00000  Uiso   1.00
Cu284  Cu    0.16667   0.75000   0.20179   0.00000  Uiso   1.00
H285   H     0.12987   0.53121   0.31756   0.00000  Uiso   1.00
H286   H     0.30638   0.67783   0.22318   0.00000  Uiso   1.00
H287   H     0.30178   0.71397   0.17079   0.00000  Uiso   1.00
H288   H     0.30709   0.81886   0.30928   0.00000  Uiso   1.00
H289   H     0.03280   0.79252   0.32585   0.00000  Uiso   1.00
H290   H     0.02465   0.82555   0.27184   0.00000  Uiso   1.00
H291   H     0.23841   0.63773   0.18252   0.00000  Uiso   1.00
H292   H     0.22645   0.58870   0.14702   0.00000  Uiso   1.00
H293   H     0.17809   0.62913   0.14492   0.00000  Uiso   1.00
H294   H     0.24170   0.86543   0.32998   0.00000  Uiso   1.00
H295   H     0.22890   0.91261   0.36495   0.00000  Uiso   1.00
H296   H     0.12615   0.96742   0.17780   0.00000  Uiso   1.00
H297   H     0.18195   0.86869   0.35719   0.00000  Uiso   1.00
H298   H     0.24212   0.81097   0.16416   0.00000  Uiso   1.00
H299   H     0.24826   0.83571   0.10791   0.00000  Uiso   1.00
H300   H     0.19308   0.84787   0.13706   0.00000  Uiso   1.00
H301   H     0.09484   0.68723   0.33470   0.00000  Uiso   1.00
H302   H     0.06954   0.67823   0.38971   0.00000  Uiso   1.00
H303   H     0.05083   0.72619   0.35636   0.00000  Uiso   1.00
H304   H     0.12694   0.68851   0.12231   0.00000  Uiso   1.00
H305   H     0.24044   0.78051   0.38144   0.00000  Uiso   1.00
H306   H     0.09130   0.66297   0.02445   0.00000  Uiso   1.00
H307   H     0.13361   0.61152   0.31679   0.00000  Uiso   1.00
H308   H     0.15017   0.66067   0.49585   0.00000  Uiso   1.00
H309   H     0.14787   0.63848   0.05453   0.00000  Uiso   1.00
H310   H     0.27170   0.80965   0.47878   0.00000  Uiso   1.00
H311   H     0.27081   0.75878   0.01286   0.00000  Uiso   1.00
H312   H     0.29668   0.75957   0.45645   0.00000  Uiso   1.00
H313   H     0.12950   0.88724   0.17850   0.00000  Uiso   1.00
H314   H     0.19605   0.52686   0.18314   0.00000  Uiso   1.00
H315   H     0.19851   0.97368   0.32359   0.00000  Uiso   1.00
H316   H     0.20433   0.81012   0.03629   0.00000  Uiso   1.00
H317   H     0.09487   0.72012   0.46002   0.00000  Uiso   1.00
H318   H     0.02546   0.68421   0.18763   0.00000  Uiso   1.00
N319   N     0.16667   0.75001   0.12935   0.00000  Uiso   1.00
N320   N     0.16667   0.74999   0.37066   0.00000  Uiso   1.00
O321   O     0.16667   0.68572   0.29072   0.00000  Uiso   1.00
O322   O     0.16666   0.81427   0.20929   0.00000  Uiso   1.00
O323   O     0.16667   0.68573   0.20928   0.00000  Uiso   1.00
O324   O     0.16666   0.81427   0.29072   0.00000  Uiso   1.00
O325   O     0.09161   0.75000   0.28132   0.00000  Uiso   1.00
O326   O     0.24172   0.75000   0.21868   0.00000  Uiso   1.00
O327   O     0.09161   0.75000   0.19989   0.00000  Uiso   1.00
O328   O     0.24172   0.75000   0.30012   0.00000  Uiso   1.00
C329   C     0.50069   0.66490   0.24978   0.00000  Uiso   1.00
C330   C     0.54762   0.76205   0.44964   0.00000  Uiso   1.00
C331   C     0.50461   0.74477   0.02774   0.00000  Uiso   1.00
C332   C     0.50552   0.74558   0.47326   0.00000  Uiso   1.00
C333   C     0.40168   0.74879   0.23842   0.00000  Uiso   1.00
C334   C     0.59834   0.75206   0.26151   0.00000  Uiso   1.00
C335   C     0.34754   0.74022   0.23461   0.00000  Uiso   1.00
C336   C     0.65245   0.76153   0.26478   0.00000  Uiso   1.00
C337   C     0.47856   0.54794   0.28776   0.00000  Uiso   1.00
C338   C     0.47626   0.95116   0.21003   0.00000  Uiso   1.00
C339   C     0.48092   0.59375   0.28727   0.00000  Uiso   1.00
C340   C     0.50066   0.83508   0.25042   0.00000  Uiso   1.00
C341   C     0.47857   0.90547   0.21040   0.00000  Uiso   1.00
C342   C     0.50032   0.61636   0.24894   0.00000  Uiso   1.00
C343   C     0.50006   0.88350   0.25164   0.00000  Uiso   1.00
C344   C     0.51827   0.59191   0.21070   0.00000  Uiso   1.00
C345   C     0.51937   0.90835   0.29341   0.00000  Uiso   1.00
C346   C     0.51531   0.54588   0.21176   0.00000  Uiso   1.00
C347   C     0.51645   0.95427   0.29237   0.00000  Uiso   1.00
C348   C     0.49553   0.52391   0.24989   0.00000  Uiso   1.00
C349   C     0.49519   0.97567   0.25098   0.00000  Uiso   1.00
C350   C     0.66055   0.70201   0.20215   0.00000  Uiso   1.00
C351   C     0.52284   0.78191   0.05465   0.00000  Uiso   1.00
C352   C     0.33890   0.80163   0.29467   0.00000  Uiso   1.00
C353   C     0.54161   0.61318   0.16907   0.00000  Uiso   1.00
C354   C     0.54433   0.88751   0.33883   0.00000  Uiso   1.00
C355   C     0.55304   0.82129   0.13052   0.00000  Uiso   1.00
C356   C     0.41683   0.70464   0.36643   0.00000  Uiso   1.00
C357   C     0.46709   0.66565   0.03044   0.00000  Uiso   1.00
C358   C     0.59938   0.77328   0.47625   0.00000  Uiso   1.00
C359   C     0.46164   0.73179   0.44369   0.00000  Uiso   1.00
C360   C     0.52386   0.78306   0.10518   0.00000  Uiso   1.00
C361   C     0.46072   0.73056   0.39316   0.00000  Uiso   1.00
C362   C     0.47895   0.71441   0.10358   0.00000  Uiso   1.00
C363   C     0.54233   0.76617   0.39867   0.00000  Uiso   1.00
C364   C     0.48327   0.70952   0.05351   0.00000  Uiso   1.00
Cu365  Cu    0.50000   0.74999   0.29822   0.00000  Uiso   1.00
Cu366  Cu    0.50000   0.75000   0.20179   0.00000  Uiso   1.00
H367   H     0.46321   0.53121   0.31756   0.00000  Uiso   1.00
H368   H     0.63971   0.67783   0.22318   0.00000  Uiso   1.00
H369   H     0.63511   0.71397   0.17079   0.00000  Uiso   1.00
H370   H     0.64042   0.81886   0.30928   0.00000  Uiso   1.00
H371   H     0.36613   0.79252   0.32585   0.00000  Uiso   1.00
H372   H     0.35798   0.82555   0.27184   0.00000  Uiso   1.00
H373   H     0.57174   0.63773   0.18252   0.00000  Uiso   1.00
H374   H     0.55979   0.58870   0.14702   0.00000  Uiso   1.00
H375   H     0.51143   0.62913   0.14492   0.00000  Uiso   1.00
H376   H     0.57503   0.86543   0.32998   0.00000  Uiso   1.00
H377   H     0.56224   0.91261   0.36495   0.00000  Uiso   1.00
H378   H     0.45949   0.96742   0.17780   0.00000  Uiso   1.00
H379   H     0.51528   0.86869   0.35719   0.00000  Uiso   1.00
H380   H     0.57545   0.81097   0.16416   0.00000  Uiso   1.00
H381   H     0.58159   0.83571   0.10791   0.00000  Uiso   1.00
H382   H     0.52641   0.84787   0.13706   0.00000  Uiso   1.00
H383   H     0.42817   0.68723   0.33470   0.00000  Uiso   1.00
H384   H     0.40287   0.67823   0.38971   0.00000  Uiso   1.00
H385   H     0.38416   0.72619   0.35636   0.00000  Uiso   1.00
H386   H     0.46027   0.68851   0.12231   0.00000  Uiso   1.00
H387   H     0.57378   0.78051   0.38144   0.00000  Uiso   1.00
H388   H     0.42463   0.66297   0.02445   0.00000  Uiso   1.00
H389   H     0.46694   0.61152   0.31679   0.00000  Uiso   1.00
H390   H     0.48350   0.66067   0.49585   0.00000  Uiso   1.00
H391   H     0.48120   0.63848   0.05453   0.00000  Uiso   1.00
H392   H     0.60504   0.80965   0.47878   0.00000  Uiso   1.00
H393   H     0.60415   0.75878   0.01286   0.00000  Uiso   1.00
H394   H     0.63002   0.75957   0.45645   0.00000  Uiso   1.00
H395   H     0.46283   0.88724   0.17850   0.00000  Uiso   1.00
H396   H     0.52939   0.52686   0.18314   0.00000  Uiso   1.00
H397   H     0.53184   0.97368   0.32359   0.00000  Uiso   1.00
H398   H     0.53767   0.81012   0.03629   0.00000  Uiso   1.00
H399   H     0.42820   0.72012   0.46002   0.00000  Uiso   1.00
H400   H     0.35879   0.68421   0.18763   0.00000  Uiso   1.00
N401   N     0.50000   0.75001   0.12935   0.00000  Uiso   1.00
N402   N     0.50000   0.74999   0.37066   0.00000  Uiso   1.00
O403   O     0.50000   0.68572   0.29072   0.00000  Uiso   1.00
O404   O     0.50000   0.81427   0.20929   0.00000  Uiso   1.00
O405   O     0.50000   0.68573   0.20928   0.00000  Uiso   1.00
O406   O     0.50000   0.81427   0.29072   0.00000  Uiso   1.00
O407   O     0.42495   0.75000   0.28132   0.00000  Uiso   1.00
O408   O     0.57505   0.75000   0.21868   0.00000  Uiso   1.00
O409   O     0.42495   0.75000   0.19989   0.00000  Uiso   1.00
O410   O     0.57505   0.75000   0.30012   0.00000  Uiso   1.00
C411   C     0.83402   0.66490   0.24978   0.00000  Uiso   1.00
C412   C     0.88095   0.76205   0.44964   0.00000  Uiso   1.00
C413   C     0.83794   0.74477   0.02774   0.00000  Uiso   1.00
C414   C     0.83886   0.74558   0.47326   0.00000  Uiso   1.00
C415   C     0.73501   0.74879   0.23842   0.00000  Uiso   1.00
C416   C     0.93167   0.75206   0.26151   0.00000  Uiso   1.00
C417   C     0.68087   0.74022   0.23461   0.00000  Uiso   1.00
C418   C     0.98579   0.76153   0.26478   0.00000  Uiso   1.00
C419   C     0.81190   0.54794   0.28776   0.00000  Uiso   1.00
C420   C     0.80959   0.95116   0.21003   0.00000  Uiso   1.00
C421   C     0.81426   0.59375   0.28727   0.00000  Uiso   1.00
C422   C     0.83400   0.83508   0.25042   0.00000  Uiso   1.00
C423   C     0.81191   0.90547   0.21040   0.00000  Uiso   1.00
C424   C     0.83366   0.61636   0.24894   0.00000  Uiso   1.00
C425   C     0.83339   0.88350   0.25164   0.00000  Uiso   1.00
C426   C     0.85160   0.59191   0.21070   0.00000  Uiso   1.00
C427   C     0.85271   0.90835   0.29341   0.00000  Uiso   1.00
C428   C     0.84865   0.54588   0.21176   0.00000  Uiso   1.00
C429   C     0.84979   0.95427   0.29237   0.00000  Uiso   1.00
C430   C     0.82886   0.52391   0.24989   0.00000  Uiso   1.00
C431   C     0.82852   0.97567   0.25098   0.00000  Uiso   1.00
C432   C     0.99388   0.70201   0.20215   0.00000  Uiso   1.00
C433   C     0.85617   0.78191   0.05465   0.00000  Uiso   1.00
C434   C     0.67224   0.80163   0.29467   0.00000  Uiso   1.00
C435   C     0.87494   0.61318   0.16907   0.00000  Uiso   1.00
C436   C     0.87766   0.88751   0.33883   0.00000  Uiso   1.00
C437   C     0.88637   0.82129   0.13052   0.00000  Uiso   1.00
C438   C     0.75016   0.70464   0.36643   0.00000  Uiso   1.00
C439   C     0.80043   0.66565   0.03044   0.00000  Uiso   1.00
C440   C     0.93271   0.77328   0.47625   0.00000  Uiso   1.00
C441   C     0.79497   0.73179   0.44369   0.00000  Uiso   1.00
C442   C     0.85720   0.78306   0.10518   0.00000  Uiso   1.00
C443   C     0.79405   0.73056   0.39316   0.00000  Uiso   1.00
C444   C     0.81228   0.71441   0.10358   0.00000  Uiso   1.00
C445   C     0.87566   0.76617   0.39867   0.00000  Uiso   1.00
C446   C     0.81660   0.70952   0.05351   0.00000  Uiso   1.00
Cu447  Cu    0.83333   0.74999   0.29822   0.00000  Uiso   1.00
Cu448  Cu    0.83333   0.75000   0.20179   0.00000  Uiso   1.00
H449   H     0.79654   0.53121   0.31756   0.00000  Uiso   1.00
H450   H     0.97304   0.67783   0.22318   0.00000  Uiso   1.00
H451   H     0.96844   0.71397   0.17079   0.00000  Uiso   1.00
H452   H     0.97376   0.81886   0.30928   0.00000  Uiso   1.00
H453   H     0.69947   0.79252   0.32585   0.00000  Uiso   1.00
H454   H     0.69132   0.82555   0.27184   0.00000  Uiso   1.00
H455   H     0.90507   0.63773   0.18252   0.00000  Uiso   1.00
H456   H     0.89312   0.58870   0.14702   0.00000  Uiso   1.00
H457   H     0.84476   0.62913   0.14492   0.00000  Uiso   1.00
H458   H     0.90837   0.86543   0.32998   0.00000  Uiso   1.00
H459   H     0.89557   0.91261   0.36495   0.00000  Uiso   1.00
H460   H     0.79282   0.96742   0.17780   0.00000  Uiso   1.00
H461   H     0.84861   0.86869   0.35719   0.00000  Uiso   1.00
H462   H     0.90879   0.81097   0.16416   0.00000  Uiso   1.00
H463   H     0.91492   0.83571   0.10791   0.00000  Uiso   1.00
H464   H     0.85974   0.84787   0.13706   0.00000  Uiso   1.00
H465   H     0.76151   0.68723   0.33470   0.00000  Uiso   1.00
H466   H     0.73620   0.67823   0.38971   0.00000  Uiso   1.00
H467   H     0.71749   0.72619   0.35636   0.00000  Uiso   1.00
H468   H     0.79361   0.68851   0.12231   0.00000  Uiso   1.00
H469   H     0.90711   0.78051   0.38144   0.00000  Uiso   1.00
H470   H     0.75797   0.66297   0.02445   0.00000  Uiso   1.00
H471   H     0.80028   0.61152   0.31679   0.00000  Uiso   1.00
H472   H     0.81683   0.66067   0.49585   0.00000  Uiso   1.00
H473   H     0.81454   0.63848   0.05453   0.00000  Uiso   1.00
H474   H     0.93837   0.80965   0.47878   0.00000  Uiso   1.00
H475   H     0.93748   0.75878   0.01286   0.00000  Uiso   1.00
H476   H     0.96335   0.75957   0.45645   0.00000  Uiso   1.00
H477   H     0.79616   0.88724   0.17850   0.00000  Uiso   1.00
H478   H     0.86272   0.52686   0.18314   0.00000  Uiso   1.00
H479   H     0.86517   0.97368   0.32359   0.00000  Uiso   1.00
H480   H     0.87100   0.81012   0.03629   0.00000  Uiso   1.00
H481   H     0.76153   0.72012   0.46002   0.00000  Uiso   1.00
H482   H     0.69212   0.68421   0.18763   0.00000  Uiso   1.00
N483   N     0.83333   0.75001   0.12935   0.00000  Uiso   1.00
N484   N     0.83333   0.74999   0.37066   0.00000  Uiso   1.00
O485   O     0.83334   0.68572   0.29072   0.00000  Uiso   1.00
O486   O     0.83333   0.81427   0.20929   0.00000  Uiso   1.00
O487   O     0.83334   0.68573   0.20928   0.00000  Uiso   1.00
O488   O     0.83333   0.81427   0.29072   0.00000  Uiso   1.00
O489   O     0.75828   0.75000   0.28132   0.00000  Uiso   1.00
O490   O     0.90839   0.75000   0.21868   0.00000  Uiso   1.00
O491   O     0.75828   0.75000   0.19989   0.00000  Uiso   1.00
O492   O     0.90839   0.75000   0.30012   0.00000  Uiso   1.00
C493   C     0.16736   0.16490   0.74978   0.00000  Uiso   1.00
C494   C     0.21428   0.26205   0.94964   0.00000  Uiso   1.00
C495   C     0.17128   0.24477   0.52774   0.00000  Uiso   1.00
C496   C     0.17219   0.24558   0.97326   0.00000  Uiso   1.00
C497   C     0.06834   0.24879   0.73842   0.00000  Uiso   1.00
C498   C     0.26500   0.25206   0.76151   0.00000  Uiso   1.00
C499   C     0.01421   0.24022   0.73461   0.00000  Uiso   1.00
C500   C     0.31912   0.26153   0.76478   0.00000  Uiso   1.00
C501   C     0.14523   0.04794   0.78776   0.00000  Uiso   1.00
C502   C     0.14292   0.45116   0.71003   0.00000  Uiso   1.00
C503   C     0.14759   0.09375   0.78727   0.00000  Uiso   1.00
C504   C     0.16733   0.33508   0.75042   0.00000  Uiso   1.00
C505   C     0.14524   0.40547   0.71040   0.00000  Uiso   1.00
C506   C     0.16699   0.11636   0.74894   0.00000  Uiso   1.00
C507   C     0.16673   0.38350   0.75164   0.00000  Uiso   1.00
C508   C     0.18494   0.09191   0.71070   0.00000  Uiso   1.00
C509   C     0.18604   0.40835   0.79341   0.00000  Uiso   1.00
C510   C     0.18198   0.04588   0.71176   0.00000  Uiso   1.00
C511   C     0.18312   0.45427   0.79237   0.00000  Uiso   1.00
C512   C     0.16219   0.02391   0.74989   0.00000  Uiso   1.00
C513   C     0.16186   0.47567   0.75098   0.00000  Uiso   1.00
C514   C     0.32721   0.20201   0.70215   0.00000  Uiso   1.00
C515   C     0.18951   0.28191   0.55465   0.00000  Uiso   1.00
C516   C     0.00557   0.30163   0.79467   0.00000  Uiso   1.00
C517   C     0.20827   0.11318   0.66907   0.00000  Uiso   1.00
C518   C     0.21100   0.38751   0.83883   0.00000  Uiso   1.00
C519   C     0.21970   0.32129   0.63052   0.00000  Uiso   1.00
C520   C     0.08349   0.20464   0.86643   0.00000  Uiso   1.00
C521   C     0.13376   0.16565   0.53044   0.00000  Uiso   1.00
C522   C     0.26604   0.27328   0.97625   0.00000  Uiso   1.00
C523   C     0.12831   0.23179   0.94369   0.00000  Uiso   1.00
C524   C     0.19053   0.28306   0.60518   0.00000  Uiso   1.00
C525   C     0.12739   0.23056   0.89316   0.00000  Uiso   1.00
C526   C     0.14562   0.21441   0.60358   0.00000  Uiso   1.00
C527   C     0.20900   0.26617   0.89867   0.00000  Uiso   1.00
C528   C     0.14993   0.20952   0.55351   0.00000  Uiso   1.00
Cu529  Cu    0.16667   0.24999   0.79822   0.00000  Uiso   1.00
Cu530  Cu    0.16667   0.25000   0.70179   0.00000  Uiso   1.00
H531   H     0.12987   0.03121   0.81756   0.00000  Uiso   1.00
H532   H     0.30638   0.17783   0.72318   0.00000  Uiso   1.00
H533   H     0.30178   0.21397   0.67079   0.00000  Uiso   1.00
H534   H     0.30709   0.31886   0.80928   0.00000  Uiso   1.00
H535   H     0.03280   0.29252   0.82585   0.00000  Uiso   1.00
H536   H     0.02465   0.32555   0.77184   0.00000  Uiso   1.00
H537   H     0.23841   0.13773   0.68252   0.00000  Uiso   1.00
H538   H     0.22645   0.08870   0.64702   0.00000  Uiso   1.00
H539   H     0.17809   0.12913   0.64492   0.00000  Uiso   1.00
H540   H     0.24170   0.36543   0.82998   0.00000  Uiso   1.00
H541   H     0.22890   0.41261   0.86495   0.00000  Uiso   1.00
H542   H     0.12615   0.46742   0.67780   0.00000  Uiso   1.00
H543   H     0.18195   0.36869   0.85719   0.00000  Uiso   1.00
H544   H     0.24212   0.31097   0.66416   0.00000  Uiso   1.00
H545   H     0.24826   0.33571   0.60791   0.00000  Uiso   1.00
H546   H     0.19308   0.34787   0.63706   0.00000  Uiso   1.00
H547   H     0.09484   0.18723   0.83470   0.00000  Uiso   1.00
H548   H     0.06954   0.17823   0.88971   0.00000  Uiso   1.00
H549   H     0.05083   0.22619   0.85636   0.00000  Uiso   1.00
H550   H     0.12694   0.18851   0.62231   0.00000  Uiso   1.00
H551   H     0.24044   0.28051   0.88144   0.00000  Uiso   1.00
H552   H     0.09130   0.16297   0.52445   0.00000  Uiso   1.00
H553   H     0.13361   0.11152   0.81679   0.00000  Uiso   1.00
H554   H     0.15017   0.16067   0.99585   0.00000  Uiso   1.00
H555   H     0.14787   0.13848   0.55453   0.00000  Uiso   1.00
H556   H     0.27170   0.30965   0.97878   0.00000  Uiso   1.00
H557   H     0.27081   0.25878   0.51286   0.00000  Uiso   1.00
H558   H     0.29668   0.25957   0.95645   0.00000  Uiso   1.00
H559   H     0.12950   0.38724   0.67850   0.00000  Uiso   1.00
H560   H     0.19605   0.02686   0.68314   0.00000  Uiso   1.00
H561   H     0.19851   0.47368   0.82359   0.00000  Uiso   1.00
H562   H     0.20433   0.31012   0.53629   0.00000  Uiso   1.00
H563   H     0.09487   0.22012   0.96002   0.00000  Uiso   1.00
H564   H     0.02546   0.18421   0.68763   0.00000  Uiso   1.00
N565   N     0.16667   0.25001   0.62935   0.00000  Uiso   1.00
N566   N     0.16667   0.24999   0.87066   0.00000  Uiso   1.00
O567   O     0.16667   0.18572   0.79072   0.00000  Uiso   1.00
O568   O     0.16666   0.31427   0.70929   0.00000  Uiso   1.00
O569   O     0.16667   0.18573   0.70928   0.00000  Uiso   1.00
O570   O     0.16666   0.31427   0.79072   0.00000  Uiso   1.00
O571   O     0.09161   0.25000   0.78132   0.00000  Uiso   1.00
O572   O     0.24172   0.25000   0.71868   0.00000  Uiso   1.00
O573   O     0.09161   0.25000   0.69989   0.00000  Uiso   1.00
O574   O     0.24172   0.25000   0.80012   0.00000  Uiso   1.00
C575   C     0.50069   0.16490   0.74978   0.00000  Uiso   1.00
C576   C     0.54762   0.26205   0.94964   0.00000  Uiso   1.00
C577   C     0.50461   0.24477   0.52774   0.00000  Uiso   1.00
C578   C     0.50552   0.24558   0.97326   0.00000  Uiso   1.00
C579   C     0.40168   0.24879   0.73842   0.00000  Uiso   1.00
C580   C     0.59834   0.25206   0.76151   0.00000  Uiso   1.00
C581   C     0.34754   0.24022   0.73461   0.00000  Uiso   1.00
C582   C     0.65245   0.26153   0.76478   0.00000  Uiso   1.00
C583   C     0.47856   0.04794   0.78776   0.00000  Uiso   1.00
C584   C     0.47626   0.45116   0.71003   0.00000  Uiso   1.00
C585   C     0.48092   0.09375   0.78727   0.00000  Uiso   1.00
C586   C     0.50066   0.33508   0.75042   0.00000  Uiso   1.00
C587   C     0.47857   0.40547   0.71040   0.00000  Uiso   1.00
C588   C     0.50032   0.11636   0.74894   0.00000  Uiso   1.00
C589   C     0.50006   0.38350   0.75164   0.00000  Uiso   1.00
C590   C     0.51827   0.09191   0.71070   0.00000  Uiso   1.00
C591   C     0.51937   0.40835   0.79341   0.00000  Uiso   1.00
C592   C     0.51531   0.04588   0.71176   0.00000  Uiso   1.00
C593   C     0.51645   0.45427   0.79237   0.00000  Uiso   1.00
C594   C     0.49553   0.02391   0.74989   0.00000  Uiso   1.00
C595   C     0.49519   0.47567   0.75098   0.00000  Uiso   1.00
C596   C     0.66055   0.20201   0.70215   0.00000  Uiso   1.00
C597   C     0.52284   0.28191   0.55465   0.00000  Uiso   1.00
C598   C     0.33890   0.30163   0.79467   0.00000  Uiso   1.00
C599   C     0.54161   0.11318   0.66907   0.00000  Uiso   1.00
C600   C     0.54433   0.38751   0.83883   0.00000  Uiso   1.00
C601   C     0.55304   0.32129   0.63052   0.00000  Uiso   1.00
C602   C     0.41683   0.20464   0.86643   0.00000  Uiso   1.00
C603   C     0.46709   0.16565   0.53044   0.00000  Uiso   1.00
C604   C     0.59938   0.27328   0.97625   0.00000  Uiso   1.00
C605   C     0.46164   0.23179   0.94369   0.00000  Uiso   1.00
C606   C     0.52386   0.28306   0.60518   0.00000  Uiso   1.00
C607   C     0.46072   0.23056   0.89316   0.00000  Uiso   1.00
C608   C     0.47895   0.21441   0.60358   0.00000  Uiso   1.00
C609   C     0.54233   0.26617   0.89867   0.00000  Uiso   1.00
C610   C     0.48327   0.20952   0.55351   0.00000  Uiso   1.00
Cu611  Cu    0.50000   0.24999   0.79822   0.00000  Uiso   1.00
Cu612  Cu    0.50000   0.25000   0.70179   0.00000  Uiso   1.00
H613   H     0.46321   0.03121   0.81756   0.00000  Uiso   1.00
H614   H     0.63971   0.17783   0.72318   0.00000  Uiso   1.00
H615   H     0.63511   0.21397   0.67079   0.00000  Uiso   1.00
H616   H     0.64042   0.31886   0.80928   0.00000  Uiso   1.00
H617   H     0.36613   0.29252   0.82585   0.00000  Uiso   1.00
H618   H     0.35798   0.32555   0.77184   0.00000  Uiso   1.00
H619   H     0.57174   0.13773   0.68252   0.00000  Uiso   1.00
H620   H     0.55979   0.08870   0.64702   0.00000  Uiso   1.00
H621   H     0.51143   0.12913   0.64492   0.00000  Uiso   1.00
H622   H     0.57503   0.36543   0.82998   0.00000  Uiso   1.00
H623   H     0.56224   0.41261   0.86495   0.00000  Uiso   1.00
H624   H     0.45949   0.46742   0.67780   0.00000  Uiso   1.00
H625   H     0.51528   0.36869   0.85719   0.00000  Uiso   1.00
H626   H     0.57545   0.31097   0.66416   0.00000  Uiso   1.00
H627   H     0.58159   0.33571   0.60791   0.00000  Uiso   1.00
H628   H     0.52641   0.34787   0.63706   0.00000  Uiso   1.00
H629   H     0.42817   0.18723   0.83470   0.00000  Uiso   1.00
H630   H     0.40287   0.17823   0.88971   0.00000  Uiso   1.00
H631   H     0.38416   0.22619   0.85636   0.00000  Uiso   1.00
H632   H     0.46027   0.18851   0.62231   0.00000  Uiso   1.00
H633   H     0.57378   0.28051   0.88144   0.00000  Uiso   1.00
H634   H     0.42463   0.16297   0.52445   0.00000  Uiso   1.00
H635   H     0.46694   0.11152   0.81679   0.00000  Uiso   1.00
H636   H     0.48350   0.16067   0.99585   0.00000  Uiso   1.00
H637   H     0.48120   0.13848   0.55453   0.00000  Uiso   1.00
H638   H     0.60504   0.30965   0.97878   0.00000  Uiso   1.00
H639   H     0.60415   0.25878   0.51286   0.00000  Uiso   1.00
H640   H     0.63002   0.25957   0.95645   0.00000  Uiso   1.00
H641   H     0.46283   0.38724   0.67850   0.00000  Uiso   1.00
H642   H     0.52939   0.02686   0.68314   0.00000  Uiso   1.00
H643   H     0.53184   0.47368   0.82359   0.00000  Uiso   1.00
H644   H     0.53767   0.31012   0.53629   0.00000  Uiso   1.00
H645   H     0.42820   0.22012   0.96002   0.00000  Uiso   1.00
H646   H     0.35879   0.18421   0.68763   0.00000  Uiso   1.00
N647   N     0.50000   0.25001   0.62935   0.00000  Uiso   1.00
N648   N     0.50000   0.24999   0.87066   0.00000  Uiso   1.00
O649   O     0.50000   0.18572   0.79072   0.00000  Uiso   1.00
O650   O     0.50000   0.31427   0.70929   0.00000  Uiso   1.00
O651   O     0.50000   0.18573   0.70928   0.00000  Uiso   1.00
O652   O     0.50000   0.31427   0.79072   0.00000  Uiso   1.00
O653   O     0.42495   0.25000   0.78132   0.00000  Uiso   1.00
O654   O     0.57505   0.25000   0.71868   0.00000  Uiso   1.00
O655   O     0.42495   0.25000   0.69989   0.00000  Uiso   1.00
O656   O     0.57505   0.25000   0.80012   0.00000  Uiso   1.00
C657   C     0.83402   0.16490   0.74978   0.00000  Uiso   1.00
C658   C     0.88095   0.26205   0.94964   0.00000  Uiso   1.00
C659   C     0.83794   0.24477   0.52774   0.00000  Uiso   1.00
C660   C     0.83886   0.24558   0.97326   0.00000  Uiso   1.00
C661   C     0.73501   0.24879   0.73842   0.00000  Uiso   1.00
C662   C     0.93167   0.25206   0.76151   0.00000  Uiso   1.00
C663   C     0.68087   0.24022   0.73461   0.00000  Uiso   1.00
C664   C     0.98579   0.26153   0.76478   0.00000  Uiso   1.00
C665   C     0.81190   0.04794   0.78776   0.00000  Uiso   1.00
C666   C     0.80959   0.45116   0.71003   0.00000  Uiso   1.00
C667   C     0.81426   0.09375   0.78727   0.00000  Uiso   1.00
C668   C     0.83400   0.33508   0.75042   0.00000  Uiso   1.00
C669   C     0.81191   0.40547   0.71040   0.00000  Uiso   1.00
C670   C     0.83366   0.11636   0.74894   0.00000  Uiso   1.00
C671   C     0.83339   0.38350   0.75164   0.00000  Uiso   1.00
C672   C     0.85160   0.09191   0.71070   0.00000  Uiso   1.00
C673   C     0.85271   0.40835   0.79341   0.00000  Uiso   1.00
C674   C     0.84865   0.04588   0.71176   0.00000  Uiso   1.00
C675   C     0.84979   0.45427   0.79237   0.00000  Uiso   1.00
C676   C     0.82886   0.02391   0.74989   0.00000  Uiso   1.00
C677   C     0.82852   0.47567   0.75098   0.00000  Uiso   1.00
C678   C     0.99388   0.20201   0.70215   0.00000  Uiso   1.00
C679   C     0.85617   0.28191   0.55465   0.00000  Uiso   1.00
C680   C     0.67224   0.30163   0.79467   0.00000  Uiso   1.00
C681   C     0.87494   0.11318   0.66907   0.00000  Uiso   1.00
C682   C     0.87766   0.38751   0.83883   0.00000  Uiso   1.00
C683   C     0.88637   0.32129   0.63052   0.00000  Uiso   1.00
C684   C     0.75016   0.20464   0.86643   0.00000  Uiso   1.00
C685   C     0.80043   0.16565   0.53044   0.00000  Uiso   1.00
C686   C     0.93271   0.27328   0.97625   0.00000  Uiso   1.00
C687   C     0.79497   0.23179   0.94369   0.00000  Uiso   1.00
C688   C     0.85720   0.28306   0.60518   0.00000  Uiso   1.00
C689   C     0.79405   0.23056   0.89316   0.00000  Uiso   1.00
C690   C     0.81228   0.21441   0.60358   0.00000  Uiso   1.00
C691   C     0.87566   0.26617   0.89867   0.00000  Uiso   1.00
C692   C     0.81660   0.20952   0.55351   0.00000  Uiso   1.00
Cu693  Cu    0.83333   0.24999   0.79822   0.00000  Uiso   1.00
Cu694  Cu    0.83333   0.25000   0.70179   0.00000  Uiso   1.00
H695   H     0.79654   0.03121   0.81756   0.00000  Uiso   1.00
H696   H     0.97304   0.17783   0.72318   0.00000  Uiso   1.00
H697   H     0.96844   0.21397   0.67079   0.00000  Uiso   1.00
H698   H     0.97376   0.31886   0.80928   0.00000  Uiso   1.00
H699   H     0.69947   0.29252   0.82585   0.00000  Uiso   1.00
H700   H     0.69132   0.32555   0.77184   0.00000  Uiso   1.00
H701   H     0.90507   0.13773   0.68252   0.00000  Uiso   1.00
H702   H     0.89312   0.08870   0.64702   0.00000  Uiso   1.00
H703   H     0.84476   0.12913   0.64492   0.00000  Uiso   1.00
H704   H     0.90837   0.36543   0.82998   0.00000  Uiso   1.00
H705   H     0.89557   0.41261   0.86495   0.00000  Uiso   1.00
H706   H     0.79282   0.46742   0.67780   0.00000  Uiso   1.00
H707   H     0.84861   0.36869   0.85719   0.00000  Uiso   1.00
H708   H     0.90879   0.31097   0.66416   0.00000  Uiso   1.00
H709   H     0.91492   0.33571   0.60791   0.00000  Uiso   1.00
H710   H     0.85974   0.34787   0.63706   0.00000  Uiso   1.00
H711   H     0.76151   0.18723   0.83470   0.00000  Uiso   1.00
H712   H     0.73620   0.17823   0.88971   0.00000  Uiso   1.00
H713   H     0.71749   0.22619   0.85636   0.00000  Uiso   1.00
H714   H     0.79361   0.18851   0.62231   0.00000  Uiso   1.00
H715   H     0.90711   0.28051   0.88144   0.00000  Uiso   1.00
H716   H     0.75797   0.16297   0.52445   0.00000  Uiso   1.00
H717   H     0.80028   0.11152   0.81679   0.00000  Uiso   1.00
H718   H     0.81683   0.16067   0.99585   0.00000  Uiso   1.00
H719   H     0.81454   0.13848   0.55453   0.00000  Uiso   1.00
H720   H     0.93837   0.30965   0.97878   0.00000  Uiso   1.00
H721   H     0.93748   0.25878   0.51286   0.00000  Uiso   1.00
H722   H     0.96335   0.25957   0.95645   0.00000  Uiso   1.00
H723   H     0.79616   0.38724   0.67850   0.00000  Uiso   1.00
H724   H     0.86272   0.02686   0.68314   0.00000  Uiso   1.00
H725   H     0.86517   0.47368   0.82359   0.00000  Uiso   1.00
H726   H     0.87100   0.31012   0.53629   0.00000  Uiso   1.00
H727   H     0.76153   0.22012   0.96002   0.00000  Uiso   1.00
H728   H     0.69212   0.18421   0.68763   0.00000  Uiso   1.00
N729   N     0.83333   0.25001   0.62935   0.00000  Uiso   1.00
N730   N     0.83333   0.24999   0.87066   0.00000  Uiso   1.00
O731   O     0.83334   0.18572   0.79072   0.00000  Uiso   1.00
O732   O     0.83333   0.31427   0.70929   0.00000  Uiso   1.00
O733   O     0.83334   0.18573   0.70928   0.00000  Uiso   1.00
O734   O     0.83333   0.31427   0.79072   0.00000  Uiso   1.00
O735   O     0.75828   0.25000   0.78132   0.00000  Uiso   1.00
O736   O     0.90839   0.25000   0.71868   0.00000  Uiso   1.00
O737   O     0.75828   0.25000   0.69989   0.00000  Uiso   1.00
O738   O     0.90839   0.25000   0.80012   0.00000  Uiso   1.00
C739   C     0.16736   0.66490   0.74978   0.00000  Uiso   1.00
C740   C     0.21428   0.76205   0.94964   0.00000  Uiso   1.00
C741   C     0.17128   0.74477   0.52774   0.00000  Uiso   1.00
C742   C     0.17219   0.74558   0.97326   0.00000  Uiso   1.00
C743   C     0.06834   0.74879   0.73842   0.00000  Uiso   1.00
C744   C     0.26500   0.75206   0.76151   0.00000  Uiso   1.00
C745   C     0.01421   0.74022   0.73461   0.00000  Uiso   1.00
C746   C     0.31912   0.76153   0.76478   0.00000  Uiso   1.00
C747   C     0.14523   0.54794   0.78776   0.00000  Uiso   1.00
C748   C     0.14292   0.95116   0.71003   0.00000  Uiso   1.00
C749   C     0.14759   0.59375   0.78727   0.00000  Uiso   1.00
C750   C     0.16733   0.83508   0.75042   0.00000  Uiso   1.00
C751   C     0.14524   0.90547   0.71040   0.00000  Uiso   1.00
C752   C     0.16699   0.61636   0.74894   0.00000  Uiso   1.00
C753   C     0.16673   0.88350   0.75164   0.00000  Uiso   1.00
C754   C     0.18494   0.59191   0.71070   0.00000  Uiso   1.00
C755   C     0.18604   0.90835   0.79341   0.00000  Uiso   1.00
C756   C     0.18198   0.54588   0.71176   0.00000  Uiso   1.00
C757   C     0.18312   0.95427   0.79237   0.00000  Uiso   1.00
C758   C     0.16219   0.52391   0.74989   0.00000  Uiso   1.00
C759   C     0.16186   0.97567   0.75098   0.00000  Uiso   1.00
C760   C     0.32721   0.70201   0.70215   0.00000  Uiso   1.00
C761   C     0.18951   0.78191   0.55465   0.00000  Uiso   1.00
C762   C     0.00557   0.80163   0.79467   0.00000  Uiso   1.00
C763   C     0.20827   0.61318   0.66907   0.00000  Uiso   1.00
C764   C     0.21100   0.88751   0.83883   0.00000  Uiso   1.00
C765   C     0.21970   0.82129   0.63052   0.00000  Uiso   1.00
C766   C     0.08349   0.70464   0.86643   0.00000  Uiso   1.00
C767   C     0.13376   0.66565   0.53044   0.00000  Uiso   1.00
C768   C     0.26604   0.77328   0.97625   0.00000  Uiso   1.00
C769   C     0.12831   0.73179   0.94369   0.00000  Uiso   1.00
C770   C     0.19053   0.78306   0.60518   0.00000  Uiso   1.00
C771   C     0.12739   0.73056   0.89316   0.00000  Uiso   1.00
C772   C     0.14562   0.71441   0.60358   0.00000  Uiso   1.00
C773   C     0.20900   0.76617   0.89867   0.00000  Uiso   1.00
C774   C     0.14993   0.70952   0.55351   0.00000  Uiso   1.00
Cu775  Cu    0.16667   0.74999   0.79822   0.00000  Uiso   1.00
Cu776  Cu    0.16667   0.75000   0.70179   0.00000  Uiso   1.00
H777   H     0.12987   0.53121   0.81756   0.00000  Uiso   1.00
H778   H     0.30638   0.67783   0.72318   0.00000  Uiso   1.00
H779   H     0.30178   0.71397   0.67079   0.00000  Uiso   1.00
H780   H     0.30709   0.81886   0.80928   0.00000  Uiso   1.00
H781   H     0.03280   0.79252   0.82585   0.00000  Uiso   1.00
H782   H     0.02465   0.82555   0.77184   0.00000  Uiso   1.00
H783   H     0.23841   0.63773   0.68252   0.00000  Uiso   1.00
H784   H     0.22645   0.58870   0.64702   0.00000  Uiso   1.00
H785   H     0.17809   0.62913   0.64492   0.00000  Uiso   1.00
H786   H     0.24170   0.86543   0.82998   0.00000  Uiso   1.00
H787   H     0.22890   0.91261   0.86495   0.00000  Uiso   1.00
H788   H     0.12615   0.96742   0.67780   0.00000  Uiso   1.00
H789   H     0.18195   0.86869   0.85719   0.00000  Uiso   1.00
H790   H     0.24212   0.81097   0.66416   0.00000  Uiso   1.00
H791   H     0.24826   0.83571   0.60791   0.00000  Uiso   1.00
H792   H     0.19308   0.84787   0.63706   0.00000  Uiso   1.00
H793   H     0.09484   0.68723   0.83470   0.00000  Uiso   1.00
H794   H     0.06954   0.67823   0.88971   0.00000  Uiso   1.00
H795   H     0.05083   0.72619   0.85636   0.00000  Uiso   1.00
H796   H     0.12694   0.68851   0.62231   0.00000  Uiso   1.00
H797   H     0.24044   0.78051   0.88144   0.00000  Uiso   1.00
H798   H     0.09130   0.66297   0.52445   0.00000  Uiso   1.00
H799   H     0.13361   0.61152   0.81679   0.00000  Uiso   1.00
H800   H     0.15017   0.66067   0.99585   0.00000  Uiso   1.00
H801   H     0.14787   0.63848   0.55453   0.00000  Uiso   1.00
H802   H     0.27170   0.80965   0.97878   0.00000  Uiso   1.00
H803   H     0.27081   0.75878   0.51286   0.00000  Uiso   1.00
H804   H     0.29668   0.75957   0.95645   0.00000  Uiso   1.00
H805   H     0.12950   0.88724   0.67850   0.00000  Uiso   1.00
H806   H     0.19605   0.52686   0.68314   0.00000  Uiso   1.00
H807   H     0.19851   0.97368   0.82359   0.00000  Uiso   1.00
H808   H     0.20433   0.81012   0.53629   0.00000  Uiso   1.00
H809   H     0.09487   0.72012   0.96002   0.00000  Uiso   1.00
H810   H     0.02546   0.68421   0.68763   0.00000  Uiso   1.00
N811   N     0.16667   0.75001   0.62935   0.00000  Uiso   1.00
N812   N     0.16667   0.74999   0.87066   0.00000  Uiso   1.00
O813   O     0.16667   0.68572   0.79072   0.00000  Uiso   1.00
O814   O     0.16666   0.81427   0.70929   0.00000  Uiso   1.00
O815   O     0.16667   0.68573   0.70928   0.00000  Uiso   1.00
O816   O     0.16666   0.81427   0.79072   0.00000  Uiso   1.00
O817   O     0.09161   0.75000   0.78132   0.00000  Uiso   1.00
O818   O     0.24172   0.75000   0.71868   0.00000  Uiso   1.00
O819   O     0.09161   0.75000   0.69989   0.00000  Uiso   1.00
O820   O     0.24172   0.75000   0.80012   0.00000  Uiso   1.00
C821   C     0.50069   0.66490   0.74978   0.00000  Uiso   1.00
C822   C     0.54762   0.76205   0.94964   0.00000  Uiso   1.00
C823   C     0.50461   0.74477   0.52774   0.00000  Uiso   1.00
C824   C     0.50552   0.74558   0.97326   0.00000  Uiso   1.00
C825   C     0.40168   0.74879   0.73842   0.00000  Uiso   1.00
C826   C     0.59834   0.75206   0.76151   0.00000  Uiso   1.00
C827   C     0.34754   0.74022   0.73461   0.00000  Uiso   1.00
C828   C     0.65245   0.76153   0.76478   0.00000  Uiso   1.00
C829   C     0.47856   0.54794   0.78776   0.00000  Uiso   1.00
C830   C     0.47626   0.95116   0.71003   0.00000  Uiso   1.00
C831   C     0.48092   0.59375   0.78727   0.00000  Uiso   1.00
C832   C     0.50066   0.83508   0.75042   0.00000  Uiso   1.00
C833   C     0.47857   0.90547   0.71040   0.00000  Uiso   1.00
C834   C     0.50032   0.61636   0.74894   0.00000  Uiso   1.00
C835   C     0.50006   0.88350   0.75164   0.00000  Uiso   1.00
C836   C     0.51827   0.59191   0.71070   0.00000  Uiso   1.00
C837   C     0.51937   0.90835   0.79341   0.00000  Uiso   1.00
C838   C     0.51531   0.54588   0.71176   0.00000  Uiso   1.00
C839   C     0.51645   0.95427   0.79237   0.00000  Uiso   1.00
C840   C     0.49553   0.52391   0.74989   0.00000  Uiso   1.00
C841   C     0.49519   0.97567   0.75098   0.00000  Uiso   1.00
C842   C     0.66055   0.70201   0.70215   0.00000  Uiso   1.00
C843   C     0.52284   0.78191   0.55465   0.00000  Uiso   1.00
C844   C     0.33890   0.80163   0.79467   0.00000  Uiso   1.00
C845   C     0.54161   0.61318   0.66907   0.00000  Uiso   1.00
C846   C     0.54433   0.88751   0.83883   0.00000  Uiso   1.00
C847   C     0.55304   0.82129   0.63052   0.00000  Uiso   1.00
C848   C     0.41683   0.70464   0.86643   0.00000  Uiso   1.00
C849   C     0.46709   0.66565   0.53044   0.00000  Uiso   1.00
C850   C     0.59938   0.77328   0.97625   0.00000  Uiso   1.00
C851   C     0.46164   0.73179   0.94369   0.00000  Uiso   1.00
C852   C     0.52386   0.78306   0.60518   0.00000  Uiso   1.00
C853   C     0.46072   0.73056   0.89316   0.00000  Uiso   1.00
C854   C     0.47895   0.71441   0.60358   0.00000  Uiso   1.00
C855   C     0.54233   0.76617   0.89867   0.00000  Uiso   1.00
C856   C     0.48327   0.70952   0.55351   0.00000  Uiso   1.00
Cu857  Cu    0.50000   0.74999   0.79822   0.00000  Uiso   1.00
Cu858  Cu    0.50000   0.75000   0.70179   0.00000  Uiso   1.00
H859   H     0.46321   0.53121   0.81756   0.00000  Uiso   1.00
H860   H     0.63971   0.67783   0.72318   0.00000  Uiso   1.00
H861   H     0.63511   0.71397   0.67079   0.00000  Uiso   1.00
H862   H     0.64042   0.81886   0.80928   0.00000  Uiso   1.00
H863   H     0.36613   0.79252   0.82585   0.00000  Uiso   1.00
H864   H     0.35798   0.82555   0.77184   0.00000  Uiso   1.00
H865   H     0.57174   0.63773   0.68252   0.00000  Uiso   1.00
H866   H     0.55979   0.58870   0.64702   0.00000  Uiso   1.00
H867   H     0.51143   0.62913   0.64492   0.00000  Uiso   1.00
H868   H     0.57503   0.86543   0.82998   0.00000  Uiso   1.00
H869   H     0.56224   0.91261   0.86495   0.00000  Uiso   1.00
H870   H     0.45949   0.96742   0.67780   0.00000  Uiso   1.00
H871   H     0.51528   0.86869   0.85719   0.00000  Uiso   1.00
H872   H     0.57545   0.81097   0.66416   0.00000  Uiso   1.00
H873   H     0.58159   0.83571   0.60791   0.00000  Uiso   1.00
H874   H     0.52641   0.84787   0.63706   0.00000  Uiso   1.00
H875   H     0.42817   0.68723   0.83470   0.00000  Uiso   1.00
H876   H     0.40287   0.67823   0.88971   0.00000  Uiso   1.00
H877   H     0.38416   0.72619   0.85636   0.00000  Uiso   1.00
H878   H     0.46027   0.68851   0.62231   0.00000  Uiso   1.00
H879   H     0.57378   0.78051   0.88144   0.00000  Uiso   1.00
H880   H     0.42463   0.66297   0.52445   0.00000  Uiso   1.00
H881   H     0.46694   0.61152   0.81679   0.00000  Uiso   1.00
H882   H     0.48350   0.66067   0.99585   0.00000  Uiso   1.00
H883   H     0.48120   0.63848   0.55453   0.00000  Uiso   1.00
H884   H     0.60504   0.80965   0.97878   0.00000  Uiso   1.00
H885   H     0.60415   0.75878   0.51286   0.00000  Uiso   1.00
H886   H     0.63002   0.75957   0.95645   0.00000  Uiso   1.00
H887   H     0.46283   0.88724   0.67850   0.00000  Uiso   1.00
H888   H     0.52939   0.52686   0.68314   0.00000  Uiso   1.00
H889   H     0.53184   0.97368   0.82359   0.00000  Uiso   1.00
H890   H     0.53767   0.81012   0.53629   0.00000  Uiso   1.00
H891   H     0.42820   0.72012   0.96002   0.00000  Uiso   1.00
H892   H     0.35879   0.68421   0.68763   0.00000  Uiso   1.00
N893   N     0.50000   0.75001   0.62935   0.00000  Uiso   1.00
N894   N     0.50000   0.74999   0.87066   0.00000  Uiso   1.00
O895   O     0.50000   0.68572   0.79072   0.00000  Uiso   1.00
O896   O     0.50000   0.81427   0.70929   0.00000  Uiso   1.00
O897   O     0.50000   0.68573   0.70928   0.00000  Uiso   1.00
O898   O     0.50000   0.81427   0.79072   0.00000  Uiso   1.00
O899   O     0.42495   0.75000   0.78132   0.00000  Uiso   1.00
O900   O     0.57505   0.75000   0.71868   0.00000  Uiso   1.00
O901   O     0.42495   0.75000   0.69989   0.00000  Uiso   1.00
O902   O     0.57505   0.75000   0.80012   0.00000  Uiso   1.00
C903   C     0.83402   0.66490   0.74978   0.00000  Uiso   1.00
C904   C     0.88095   0.76205   0.94964   0.00000  Uiso   1.00
C905   C     0.83794   0.74477   0.52774   0.00000  Uiso   1.00
C906   C     0.83886   0.74558   0.97326   0.00000  Uiso   1.00
C907   C     0.73501   0.74879   0.73842   0.00000  Uiso   1.00
C908   C     0.93167   0.75206   0.76151   0.00000  Uiso   1.00
C909   C     0.68087   0.74022   0.73461   0.00000  Uiso   1.00
C910   C     0.98579   0.76153   0.76478   0.00000  Uiso   1.00
C911   C     0.81190   0.54794   0.78776   0.00000  Uiso   1.00
C912   C     0.80959   0.95116   0.71003   0.00000  Uiso   1.00
C913   C     0.81426   0.59375   0.78727   0.00000  Uiso   1.00
C914   C     0.83400   0.83508   0.75042   0.00000  Uiso   1.00
C915   C     0.81191   0.90547   0.71040   0.00000  Uiso   1.00
C916   C     0.83366   0.61636   0.74894   0.00000  Uiso   1.00
C917   C     0.83339   0.88350   0.75164   0.00000  Uiso   1.00
C918   C     0.85160   0.59191   0.71070   0.00000  Uiso   1.00
C919   C     0.85271   0.90835   0.79341   0.00000  Uiso   1.00
C920   C     0.84865   0.54588   0.71176   0.00000  Uiso   1.00
C921   C     0.84979   0.95427   0.79237   0.00000  Uiso   1.00
C922   C     0.82886   0.52391   0.74989   0.00000  Uiso   1.00
C923   C     0.82852   0.97567   0.75098   0.00000  Uiso   1.00
C924   C     0.99388   0.70201   0.70215   0.00000  Uiso   1.00
C925   C     0.85617   0.78191   0.55465   0.00000  Uiso   1.00
C926   C     0.67224   0.80163   0.79467   0.00000  Uiso   1.00
C927   C     0.87494   0.61318   0.66907   0.00000  Uiso   1.00
C928   C     0.87766   0.88751   0.83883   0.00000  Uiso   1.00
C929   C     0.88637   0.82129   0.63052   0.00000  Uiso   1.00
C930   C     0.75016   0.70464   0.86643   0.00000  Uiso   1.00
C931   C     0.80043   0.66565   0.53044   0.00000  Uiso   1.00
C932   C     0.93271   0.77328   0.97625   0.00000  Uiso   1.00
C933   C     0.79497   0.73179   0.94369   0.00000  Uiso   1.00
C934   C     0.85720   0.78306   0.60518   0.00000  Uiso   1.00
C935   C     0.79405   0.73056   0.89316   0.00000  Uiso   1.00
C936   C     0.81228   0.71441   0.60358   0.00000  Uiso   1.00
C937   C     0.87566   0.76617   0.89867   0.00000  Uiso   1.00
C938   C     0.81660   0.70952   0.55351   0.00000  Uiso   1.00
Cu939  Cu    0.83333   0.74999   0.79822   0.00000  Uiso   1.00
Cu940  Cu    0.83333   0.75000   0.70179   0.00000  Uiso   1.00
H941   H     0.79654   0.53121   0.81756   0.00000  Uiso   1.00
H942   H     0.97304   0.67783   0.72318   0.00000  Uiso   1.00
H943   H     0.96844   0.71397   0.67079   0.00000  Uiso   1.00
H944   H     0.97376   0.81886   0.80928   0.00000  Uiso   1.00
H945   H     0.69947   0.79252   0.82585   0.00000  Uiso   1.00
H946   H     0.69132   0.82555   0.77184   0.00000  Uiso   1.00
H947   H     0.90507   0.63773   0.68252   0.00000  Uiso   1.00
H948   H     0.89312   0.58870   0.64702   0.00000  Uiso   1.00
H949   H     0.84476   0.62913   0.64492   0.00000  Uiso   1.00
H950   H     0.90837   0.86543   0.82998   0.00000  Uiso   1.00
H951   H     0.89557   0.91261   0.86495   0.00000  Uiso   1.00
H952   H     0.79282   0.96742   0.67780   0.00000  Uiso   1.00
H953   H     0.84861   0.86869   0.85719   0.00000  Uiso   1.00
H954   H     0.90879   0.81097   0.66416   0.00000  Uiso   1.00
H955   H     0.91492   0.83571   0.60791   0.00000  Uiso   1.00
H956   H     0.85974   0.84787   0.63706   0.00000  Uiso   1.00
H957   H     0.76151   0.68723   0.83470   0.00000  Uiso   1.00
H958   H     0.73620   0.67823   0.88971   0.00000  Uiso   1.00
H959   H     0.71749   0.72619   0.85636   0.00000  Uiso   1.00
H960   H     0.79361   0.68851   0.62231   0.00000  Uiso   1.00
H961   H     0.90711   0.78051   0.88144   0.00000  Uiso   1.00
H962   H     0.75797   0.66297   0.52445   0.00000  Uiso   1.00
H963   H     0.80028   0.61152   0.81679   0.00000  Uiso   1.00
H964   H     0.81683   0.66067   0.99585   0.00000  Uiso   1.00
H965   H     0.81454   0.63848   0.55453   0.00000  Uiso   1.00
H966   H     0.93837   0.80965   0.97878   0.00000  Uiso   1.00
H967   H     0.93748   0.75878   0.51286   0.00000  Uiso   1.00
H968   H     0.96335   0.75957   0.95645   0.00000  Uiso   1.00
H969   H     0.79616   0.88724   0.67850   0.00000  Uiso   1.00
H970   H     0.86272   0.52686   0.68314   0.00000  Uiso   1.00
H971   H     0.86517   0.97368   0.82359   0.00000  Uiso   1.00
H972   H     0.87100   0.81012   0.53629   0.00000  Uiso   1.00
H973   H     0.76153   0.72012   0.96002   0.00000  Uiso   1.00
H974   H     0.69212   0.68421   0.68763   0.00000  Uiso   1.00
N975   N     0.83333   0.75001   0.62935   0.00000  Uiso   1.00
N976   N     0.83333   0.74999   0.87066   0.00000  Uiso   1.00
O977   O     0.83334   0.68572   0.79072   0.00000  Uiso   1.00
O978   O     0.83333   0.81427   0.70929   0.00000  Uiso   1.00
O979   O     0.83334   0.68573   0.70928   0.00000  Uiso   1.00
O980   O     0.83333   0.81427   0.79072   0.00000  Uiso   1.00
O981   O     0.75828   0.75000   0.78132   0.00000  Uiso   1.00
O982   O     0.90839   0.75000   0.71868   0.00000  Uiso   1.00
O983   O     0.75828   0.75000   0.69989   0.00000  Uiso   1.00
O984   O     0.90839   0.75000   0.80012   0.00000  Uiso   1.00
loop_
_geom_bond_atom_site_label_1
_geom_bond_atom_site_label_2
_geom_bond_distance
_geom_bond_site_symmetry_2
_ccdc_geom_bond_type
C1     O77     1.294   .     A
C1     O75     1.304   .     A
C1     C14     1.472   .     S
C2     C35     1.419   .     A
C2     C4      1.426   .     A
C2     C30     1.507   .     S
C3     C23     1.396   .     A
C3     C36     1.426   .     A
C3     C496    1.521   1_554 S
C4     C31     1.397   .     A
C4     C495    1.521   .     S
C5     O79     1.283   .     A
C5     C7      1.431   .     S
C5     O81     1.291   .     A
C6     O82     1.294   .     A
C6     C8      1.435   .     S
C6     O80     1.282   .     A
C7     C172    1.355   1_455 S
C7     C186    1.517   1_455 S
C8     C89     1.355   .     S
C8     C106    1.520   .     S
C9     H39     1.083   .     S
C9     C20     1.398   .     A
C9     C11     1.389   .     A
C10    C21     1.399   .     A
C10    H50     1.083   .     S
C10    C13     1.388   .     A
C11    C14     1.405   .     A
C11    H61     1.083   .     S
C12    O78     1.292   .     A
C12    C15     1.469   .     S
C12    O76     1.305   .     A
C13    C15     1.403   .     A
C13    H67     1.083   .     S
C14    C16     1.424   .     A
C15    C17     1.424   .     A
C16    C25     1.508   .     S
C16    C18     1.396   .     A
C17    C26     1.510   .     S
C17    C19     1.397   .     A
C18    H68     1.084   .     S
C18    C20     1.396   .     A
C19    C21     1.396   .     A
C19    H69     1.084   .     S
C20    C267    1.463   1_545 S
C21    C266    1.463   .     S
C22    H41     1.110   .     S
C22    H40     1.109   .     S
C22    C89     1.517   .     S
C22    H154    1.111   .     S
C23    H70     1.083   .     S
C23    C32     1.406   .     A
C24    H44     1.111   .     S
C24    H43     1.105   .     S
C24    C172    1.520   1_455 S
C24    H206    1.109   1_455 S
C25    H47     1.106   .     S
C25    H45     1.106   .     S
C25    H46     1.111   .     S
C26    H48     1.108   .     S
C26    H49     1.111   .     S
C26    H51     1.110   .     S
C27    H54     1.108   .     S
C27    H52     1.103   .     S
C27    C32     1.504   .     S
C27    H53     1.112   .     S
C28    H56     1.112   .     S
C28    H57     1.105   .     S
C28    H55     1.100   .     S
C28    C33     1.505   .     S
C29    H63     1.111   .     S
C29    C36     1.506   .     S
C29    H60     1.110   .     S
C29    H554    1.108   1_554 S
C30    H64     1.110   .     S
C30    H66     1.111   .     S
C30    H557    1.109   .     S
C31    C33     1.406   .     A
C31    H71     1.083   .     S
C32    N73     1.383   .     A
C33    N74     1.383   .     A
C34    C36     1.419   .     A
C34    N73     1.366   .     A
C34    H58     1.080   .     S
C35    N74     1.367   .     A
C35    H59     1.081   .     S
Cu37   N74     2.019   .     S
Cu37   O79     1.976   .     S
Cu37   O75     1.959   .     S
Cu37   Cu38    2.687   .     S
Cu37   O82     1.965   .     S
Cu37   O78     1.961   .     S
Cu38   O76     1.959   .     S
Cu38   O81     1.965   .     S
Cu38   O77     1.961   .     S
Cu38   O80     1.976   .     S
Cu38   N73     2.019   .     S
H42    C106    1.109   .     S
H62    C521    1.108   .     S
H65    C522    1.109   1_554 S
H72    C186    1.111   1_455 S
C83    O159    1.294   .     A
C83    O157    1.304   .     A
C83    C96     1.472   .     S
C84    C117    1.419   .     A
C84    C86     1.426   .     A
C84    C112    1.507   .     S
C85    C105    1.396   .     A
C85    C118    1.426   .     A
C85    C578    1.521   1_554 S
C86    C113    1.397   .     A
C86    C577    1.521   .     S
C87    O161    1.283   .     A
C87    C89     1.431   .     S
C87    O163    1.291   .     A
C88    O164    1.294   .     A
C88    C90     1.435   .     S
C88    O162    1.282   .     A
C90    C171    1.355   .     S
C90    C188    1.520   .     S
C91    H121    1.083   .     S
C91    C102    1.398   .     A
C91    C93     1.389   .     A
C92    C103    1.399   .     A
C92    H132    1.083   .     S
C92    C95     1.388   .     A
C93    C96     1.405   .     A
C93    H143    1.083   .     S
C94    O160    1.292   .     A
C94    C97     1.469   .     S
C94    O158    1.305   .     A
C95    C97     1.403   .     A
C95    H149    1.083   .     S
C96    C98     1.424   .     A
C97    C99     1.424   .     A
C98    C107    1.508   .     S
C98    C100    1.396   .     A
C99    C108    1.510   .     S
C99    C101    1.397   .     A
C100   H150    1.084   .     S
C100   C102    1.396   .     A
C101   C103    1.396   .     A
C101   H151    1.084   .     S
C102   C349    1.463   1_545 S
C103   C348    1.463   .     S
C104   H123    1.110   .     S
C104   H122    1.109   .     S
C104   C171    1.517   .     S
C104   H236    1.111   .     S
C105   H152    1.083   .     S
C105   C114    1.406   .     A
C106   H126    1.111   .     S
C106   H125    1.105   .     S
C107   H129    1.106   .     S
C107   H127    1.106   .     S
C107   H128    1.111   .     S
C108   H130    1.108   .     S
C108   H131    1.111   .     S
C108   H133    1.110   .     S
C109   H136    1.108   .     S
C109   H134    1.103   .     S
C109   C114    1.504   .     S
C109   H135    1.112   .     S
C110   H138    1.112   .     S
C110   H139    1.105   .     S
C110   H137    1.100   .     S
C110   C115    1.505   .     S
C111   H145    1.111   .     S
C111   C118    1.506   .     S
C111   H142    1.110   .     S
C111   H636    1.108   1_554 S
C112   H146    1.110   .     S
C112   H148    1.111   .     S
C112   H639    1.109   .     S
C113   C115    1.406   .     A
C113   H153    1.083   .     S
C114   N155    1.383   .     A
C115   N156    1.383   .     A
C116   C118    1.419   .     A
C116   N155    1.366   .     A
C116   H140    1.080   .     S
C117   N156    1.367   .     A
C117   H141    1.081   .     S
Cu119  N156    2.019   .     S
Cu119  O161    1.976   .     S
Cu119  O157    1.959   .     S
Cu119  Cu120   2.687   .     S
Cu119  O164    1.965   .     S
Cu119  O160    1.961   .     S
Cu120  O158    1.959   .     S
Cu120  O163    1.965   .     S
Cu120  O159    1.961   .     S
Cu120  O162    1.976   .     S
Cu120  N155    2.019   .     S
H124   C188    1.109   .     S
H144   C603    1.108   .     S
H147   C604    1.109   1_554 S
C165   O241    1.294   .     A
C165   O239    1.304   .     A
C165   C178    1.472   .     S
C166   C199    1.419   .     A
C166   C168    1.426   .     A
C166   C194    1.507   .     S
C167   C187    1.396   .     A
C167   C200    1.426   .     A
C167   C660    1.521   1_554 S
C168   C195    1.397   .     A
C168   C659    1.521   .     S
C169   O243    1.283   .     A
C169   C171    1.431   .     S
C169   O245    1.291   .     A
C170   O246    1.294   .     A
C170   C172    1.435   .     S
C170   O244    1.282   .     A
C172   C7      1.355   1_655 S
C172   C24     1.520   1_655 S
C173   H203    1.083   .     S
C173   C184    1.398   .     A
C173   C175    1.389   .     A
C174   C185    1.399   .     A
C174   H214    1.083   .     S
C174   C177    1.388   .     A
C175   C178    1.405   .     A
C175   H225    1.083   .     S
C176   O242    1.292   .     A
C176   C179    1.469   .     S
C176   O240    1.305   .     A
C177   C179    1.403   .     A
C177   H231    1.083   .     S
C178   C180    1.424   .     A
C179   C181    1.424   .     A
C180   C189    1.508   .     S
C180   C182    1.396   .     A
C181   C190    1.510   .     S
C181   C183    1.397   .     A
C182   H232    1.084   .     S
C182   C184    1.396   .     A
C183   C185    1.396   .     A
C183   H233    1.084   .     S
C184   C431    1.463   1_545 S
C185   C430    1.463   .     S
C186   H205    1.110   .     S
C186   H204    1.109   .     S
C186   C7      1.517   1_655 S
C186   H72     1.111   1_655 S
C187   H234    1.083   .     S
C187   C196    1.406   .     A
C188   H208    1.111   .     S
C188   H207    1.105   .     S
C189   H211    1.106   .     S
C189   H209    1.106   .     S
C189   H210    1.111   .     S
C190   H212    1.108   .     S
C190   H213    1.111   .     S
C190   H215    1.110   .     S
C191   H218    1.108   .     S
C191   H216    1.103   .     S
C191   C196    1.504   .     S
C191   H217    1.112   .     S
C192   H220    1.112   .     S
C192   H221    1.105   .     S
C192   H219    1.100   .     S
C192   C197    1.505   .     S
C193   H227    1.111   .     S
C193   C200    1.506   .     S
C193   H224    1.110   .     S
C193   H718    1.108   1_554 S
C194   H228    1.110   .     S
C194   H230    1.111   .     S
C194   H721    1.109   .     S
C195   C197    1.406   .     A
C195   H235    1.083   .     S
C196   N237    1.383   .     A
C197   N238    1.383   .     A
C198   C200    1.419   .     A
C198   N237    1.366   .     A
C198   H222    1.080   .     S
C199   N238    1.367   .     A
C199   H223    1.081   .     S
Cu201  N238    2.019   .     S
Cu201  O243    1.976   .     S
Cu201  O239    1.959   .     S
Cu201  Cu202   2.687   .     S
Cu201  O246    1.965   .     S
Cu201  O242    1.961   .     S
Cu202  O240    1.959   .     S
Cu202  O245    1.965   .     S
Cu202  O241    1.961   .     S
Cu202  O244    1.976   .     S
Cu202  N237    2.019   .     S
H206   C24     1.109   1_655 S
H226   C685    1.108   .     S
H229   C686    1.109   1_554 S
C247   O323    1.294   .     A
C247   O321    1.304   .     A
C247   C260    1.472   .     S
C248   C281    1.419   .     A
C248   C250    1.426   .     A
C248   C276    1.507   .     S
C249   C269    1.396   .     A
C249   C282    1.426   .     A
C249   C742    1.521   1_554 S
C250   C277    1.397   .     A
C250   C741    1.521   .     S
C251   O325    1.283   .     A
C251   C253    1.431   .     S
C251   O327    1.291   .     A
C252   O328    1.294   .     A
C252   C254    1.435   .     S
C252   O326    1.282   .     A
C253   C418    1.355   1_455 S
C253   C432    1.517   1_455 S
C254   C335    1.355   .     S
C254   C352    1.520   .     S
C255   H285    1.083   .     S
C255   C266    1.398   .     A
C255   C257    1.389   .     A
C256   C267    1.399   .     A
C256   H296    1.083   .     S
C256   C259    1.388   .     A
C257   C260    1.405   .     A
C257   H307    1.083   .     S
C258   O324    1.292   .     A
C258   C261    1.469   .     S
C258   O322    1.305   .     A
C259   C261    1.403   .     A
C259   H313    1.083   .     S
C260   C262    1.424   .     A
C261   C263    1.424   .     A
C262   C271    1.508   .     S
C262   C264    1.396   .     A
C263   C272    1.510   .     S
C263   C265    1.397   .     A
C264   H314    1.084   .     S
C264   C266    1.396   .     A
C265   C267    1.396   .     A
C265   H315    1.084   .     S
C267   C20     1.463   1_565 S
C268   H287    1.110   .     S
C268   H286    1.109   .     S
C268   C335    1.517   .     S
C268   H400    1.111   .     S
C269   H316    1.083   .     S
C269   C278    1.406   .     A
C270   H290    1.111   .     S
C270   H289    1.105   .     S
C270   C418    1.520   1_455 S
C270   H452    1.109   1_455 S
C271   H293    1.106   .     S
C271   H291    1.106   .     S
C271   H292    1.111   .     S
C272   H294    1.108   .     S
C272   H295    1.111   .     S
C272   H297    1.110   .     S
C273   H300    1.108   .     S
C273   H298    1.103   .     S
C273   C278    1.504   .     S
C273   H299    1.112   .     S
C274   H302    1.112   .     S
C274   H303    1.105   .     S
C274   H301    1.100   .     S
C274   C279    1.505   .     S
C275   H309    1.111   .     S
C275   C282    1.506   .     S
C275   H306    1.110   .     S
C275   H800    1.108   1_554 S
C276   H310    1.110   .     S
C276   H312    1.111   .     S
C276   H803    1.109   .     S
C277   C279    1.406   .     A
C277   H317    1.083   .     S
C278   N319    1.383   .     A
C279   N320    1.383   .     A
C280   C282    1.419   .     A
C280   N319    1.366   .     A
C280   H304    1.080   .     S
C281   N320    1.367   .     A
C281   H305    1.081   .     S
Cu283  N320    2.019   .     S
Cu283  O325    1.976   .     S
Cu283  O321    1.959   .     S
Cu283  Cu284   2.687   .     S
Cu283  O328    1.965   .     S
Cu283  O324    1.961   .     S
Cu284  O322    1.959   .     S
Cu284  O327    1.965   .     S
Cu284  O323    1.961   .     S
Cu284  O326    1.976   .     S
Cu284  N319    2.019   .     S
H288   C352    1.109   .     S
H308   C767    1.108   .     S
H311   C768    1.109   1_554 S
H318   C432    1.111   1_455 S
C329   O405    1.294   .     A
C329   O403    1.304   .     A
C329   C342    1.472   .     S
C330   C363    1.419   .     A
C330   C332    1.426   .     A
C330   C358    1.507   .     S
C331   C351    1.396   .     A
C331   C364    1.426   .     A
C331   C824    1.521   1_554 S
C332   C359    1.397   .     A
C332   C823    1.521   .     S
C333   O407    1.283   .     A
C333   C335    1.431   .     S
C333   O409    1.291   .     A
C334   O410    1.294   .     A
C334   C336    1.435   .     S
C334   O408    1.282   .     A
C336   C417    1.355   .     S
C336   C434    1.520   .     S
C337   H367    1.083   .     S
C337   C348    1.398   .     A
C337   C339    1.389   .     A
C338   C349    1.399   .     A
C338   H378    1.083   .     S
C338   C341    1.388   .     A
C339   C342    1.405   .     A
C339   H389    1.083   .     S
C340   O406    1.292   .     A
C340   C343    1.469   .     S
C340   O404    1.305   .     A
C341   C343    1.403   .     A
C341   H395    1.083   .     S
C342   C344    1.424   .     A
C343   C345    1.424   .     A
C344   C353    1.508   .     S
C344   C346    1.396   .     A
C345   C354    1.510   .     S
C345   C347    1.397   .     A
C346   H396    1.084   .     S
C346   C348    1.396   .     A
C347   C349    1.396   .     A
C347   H397    1.084   .     S
C349   C102    1.463   1_565 S
C350   H369    1.110   .     S
C350   H368    1.109   .     S
C350   C417    1.517   .     S
C350   H482    1.111   .     S
C351   H398    1.083   .     S
C351   C360    1.406   .     A
C352   H372    1.111   .     S
C352   H371    1.105   .     S
C353   H375    1.106   .     S
C353   H373    1.106   .     S
C353   H374    1.111   .     S
C354   H376    1.108   .     S
C354   H377    1.111   .     S
C354   H379    1.110   .     S
C355   H382    1.108   .     S
C355   H380    1.103   .     S
C355   C360    1.504   .     S
C355   H381    1.112   .     S
C356   H384    1.112   .     S
C356   H385    1.105   .     S
C356   H383    1.100   .     S
C356   C361    1.505   .     S
C357   H391    1.111   .     S
C357   C364    1.506   .     S
C357   H388    1.110   .     S
C357   H882    1.108   1_554 S
C358   H392    1.110   .     S
C358   H394    1.111   .     S
C358   H885    1.109   .     S
C359   C361    1.406   .     A
C359   H399    1.083   .     S
C360   N401    1.383   .     A
C361   N402    1.383   .     A
C362   C364    1.419   .     A
C362   N401    1.366   .     A
C362   H386    1.080   .     S
C363   N402    1.367   .     A
C363   H387    1.081   .     S
Cu365  N402    2.019   .     S
Cu365  O407    1.976   .     S
Cu365  O403    1.959   .     S
Cu365  Cu366   2.687   .     S
Cu365  O410    1.965   .     S
Cu365  O406    1.961   .     S
Cu366  O404    1.959   .     S
Cu366  O409    1.965   .     S
Cu366  O405    1.961   .     S
Cu366  O408    1.976   .     S
Cu366  N401    2.019   .     S
H370   C434    1.109   .     S
H390   C849    1.108   .     S
H393   C850    1.109   1_554 S
C411   O487    1.294   .     A
C411   O485    1.304   .     A
C411   C424    1.472   .     S
C412   C445    1.419   .     A
C412   C414    1.426   .     A
C412   C440    1.507   .     S
C413   C433    1.396   .     A
C413   C446    1.426   .     A
C413   C906    1.521   1_554 S
C414   C441    1.397   .     A
C414   C905    1.521   .     S
C415   O489    1.283   .     A
C415   C417    1.431   .     S
C415   O491    1.291   .     A
C416   O492    1.294   .     A
C416   C418    1.435   .     S
C416   O490    1.282   .     A
C418   C253    1.355   1_655 S
C418   C270    1.520   1_655 S
C419   H449    1.083   .     S
C419   C430    1.398   .     A
C419   C421    1.389   .     A
C420   C431    1.399   .     A
C420   H460    1.083   .     S
C420   C423    1.388   .     A
C421   C424    1.405   .     A
C421   H471    1.083   .     S
C422   O488    1.292   .     A
C422   C425    1.469   .     S
C422   O486    1.305   .     A
C423   C425    1.403   .     A
C423   H477    1.083   .     S
C424   C426    1.424   .     A
C425   C427    1.424   .     A
C426   C435    1.508   .     S
C426   C428    1.396   .     A
C427   C436    1.510   .     S
C427   C429    1.397   .     A
C428   H478    1.084   .     S
C428   C430    1.396   .     A
C429   C431    1.396   .     A
C429   H479    1.084   .     S
C431   C184    1.463   1_565 S
C432   H451    1.110   .     S
C432   H450    1.109   .     S
C432   C253    1.517   1_655 S
C432   H318    1.111   1_655 S
C433   H480    1.083   .     S
C433   C442    1.406   .     A
C434   H454    1.111   .     S
C434   H453    1.105   .     S
C435   H457    1.106   .     S
C435   H455    1.106   .     S
C435   H456    1.111   .     S
C436   H458    1.108   .     S
C436   H459    1.111   .     S
C436   H461    1.110   .     S
C437   H464    1.108   .     S
C437   H462    1.103   .     S
C437   C442    1.504   .     S
C437   H463    1.112   .     S
C438   H466    1.112   .     S
C438   H467    1.105   .     S
C438   H465    1.100   .     S
C438   C443    1.505   .     S
C439   H473    1.111   .     S
C439   C446    1.506   .     S
C439   H470    1.110   .     S
C439   H964    1.108   1_554 S
C440   H474    1.110   .     S
C440   H476    1.111   .     S
C440   H967    1.109   .     S
C441   C443    1.406   .     A
C441   H481    1.083   .     S
C442   N483    1.383   .     A
C443   N484    1.383   .     A
C444   C446    1.419   .     A
C444   N483    1.366   .     A
C444   H468    1.080   .     S
C445   N484    1.367   .     A
C445   H469    1.081   .     S
Cu447  N484    2.019   .     S
Cu447  O489    1.976   .     S
Cu447  O485    1.959   .     S
Cu447  Cu448   2.687   .     S
Cu447  O492    1.965   .     S
Cu447  O488    1.961   .     S
Cu448  O486    1.959   .     S
Cu448  O491    1.965   .     S
Cu448  O487    1.961   .     S
Cu448  O490    1.976   .     S
Cu448  N483    2.019   .     S
H452   C270    1.109   1_655 S
H472   C931    1.108   .     S
H475   C932    1.109   1_554 S
C493   O569    1.294   .     A
C493   O567    1.304   .     A
C493   C506    1.472   .     S
C494   C527    1.419   .     A
C494   C496    1.426   .     A
C494   C522    1.507   .     S
C495   C515    1.396   .     A
C495   C528    1.426   .     A
C496   C523    1.397   .     A
C496   C3      1.521   1_556 S
C497   O571    1.283   .     A
C497   C499    1.431   .     S
C497   O573    1.291   .     A
C498   O574    1.294   .     A
C498   C500    1.435   .     S
C498   O572    1.282   .     A
C499   C664    1.355   1_455 S
C499   C678    1.517   1_455 S
C500   C581    1.355   .     S
C500   C598    1.520   .     S
C501   H531    1.083   .     S
C501   C512    1.398   .     A
C501   C503    1.389   .     A
C502   C513    1.399   .     A
C502   H542    1.083   .     S
C502   C505    1.388   .     A
C503   C506    1.405   .     A
C503   H553    1.083   .     S
C504   O570    1.292   .     A
C504   C507    1.469   .     S
C504   O568    1.305   .     A
C505   C507    1.403   .     A
C505   H559    1.083   .     S
C506   C508    1.424   .     A
C507   C509    1.424   .     A
C508   C517    1.508   .     S
C508   C510    1.396   .     A
C509   C518    1.510   .     S
C509   C511    1.397   .     A
C510   H560    1.084   .     S
C510   C512    1.396   .     A
C511   C513    1.396   .     A
C511   H561    1.084   .     S
C512   C759    1.463   1_545 S
C513   C758    1.463   .     S
C514   H533    1.110   .     S
C514   H532    1.109   .     S
C514   C581    1.517   .     S
C514   H646    1.111   .     S
C515   H562    1.083   .     S
C515   C524    1.406   .     A
C516   H536    1.111   .     S
C516   H535    1.105   .     S
C516   C664    1.520   1_455 S
C516   H698    1.109   1_455 S
C517   H539    1.106   .     S
C517   H537    1.106   .     S
C517   H538    1.111   .     S
C518   H540    1.108   .     S
C518   H541    1.111   .     S
C518   H543    1.110   .     S
C519   H546    1.108   .     S
C519   H544    1.103   .     S
C519   C524    1.504   .     S
C519   H545    1.112   .     S
C520   H548    1.112   .     S
C520   H549    1.105   .     S
C520   H547    1.100   .     S
C520   C525    1.505   .     S
C521   H555    1.111   .     S
C521   C528    1.506   .     S
C521   H552    1.110   .     S
C522   H556    1.110   .     S
C522   H558    1.111   .     S
C522   H65     1.109   1_556 S
C523   C525    1.406   .     A
C523   H563    1.083   .     S
C524   N565    1.383   .     A
C525   N566    1.383   .     A
C526   C528    1.419   .     A
C526   N565    1.366   .     A
C526   H550    1.080   .     S
C527   N566    1.367   .     A
C527   H551    1.081   .     S
Cu529  N566    2.019   .     S
Cu529  O571    1.976   .     S
Cu529  O567    1.959   .     S
Cu529  Cu530   2.687   .     S
Cu529  O574    1.965   .     S
Cu529  O570    1.961   .     S
Cu530  O568    1.959   .     S
Cu530  O573    1.965   .     S
Cu530  O569    1.961   .     S
Cu530  O572    1.976   .     S
Cu530  N565    2.019   .     S
H534   C598    1.109   .     S
H554   C29     1.108   1_556 S
H564   C678    1.111   1_455 S
C575   O651    1.294   .     A
C575   O649    1.304   .     A
C575   C588    1.472   .     S
C576   C609    1.419   .     A
C576   C578    1.426   .     A
C576   C604    1.507   .     S
C577   C597    1.396   .     A
C577   C610    1.426   .     A
C578   C605    1.397   .     A
C578   C85     1.521   1_556 S
C579   O653    1.283   .     A
C579   C581    1.431   .     S
C579   O655    1.291   .     A
C580   O656    1.294   .     A
C580   C582    1.435   .     S
C580   O654    1.282   .     A
C582   C663    1.355   .     S
C582   C680    1.520   .     S
C583   H613    1.083   .     S
C583   C594    1.398   .     A
C583   C585    1.389   .     A
C584   C595    1.399   .     A
C584   H624    1.083   .     S
C584   C587    1.388   .     A
C585   C588    1.405   .     A
C585   H635    1.083   .     S
C586   O652    1.292   .     A
C586   C589    1.469   .     S
C586   O650    1.305   .     A
C587   C589    1.403   .     A
C587   H641    1.083   .     S
C588   C590    1.424   .     A
C589   C591    1.424   .     A
C590   C599    1.508   .     S
C590   C592    1.396   .     A
C591   C600    1.510   .     S
C591   C593    1.397   .     A
C592   H642    1.084   .     S
C592   C594    1.396   .     A
C593   C595    1.396   .     A
C593   H643    1.084   .     S
C594   C841    1.463   1_545 S
C595   C840    1.463   .     S
C596   H615    1.110   .     S
C596   H614    1.109   .     S
C596   C663    1.517   .     S
C596   H728    1.111   .     S
C597   H644    1.083   .     S
C597   C606    1.406   .     A
C598   H618    1.111   .     S
C598   H617    1.105   .     S
C599   H621    1.106   .     S
C599   H619    1.106   .     S
C599   H620    1.111   .     S
C600   H622    1.108   .     S
C600   H623    1.111   .     S
C600   H625    1.110   .     S
C601   H628    1.108   .     S
C601   H626    1.103   .     S
C601   C606    1.504   .     S
C601   H627    1.112   .     S
C602   H630    1.112   .     S
C602   H631    1.105   .     S
C602   H629    1.100   .     S
C602   C607    1.505   .     S
C603   H637    1.111   .     S
C603   C610    1.506   .     S
C603   H634    1.110   .     S
C604   H638    1.110   .     S
C604   H640    1.111   .     S
C604   H147    1.109   1_556 S
C605   C607    1.406   .     A
C605   H645    1.083   .     S
C606   N647    1.383   .     A
C607   N648    1.383   .     A
C608   C610    1.419   .     A
C608   N647    1.366   .     A
C608   H632    1.080   .     S
C609   N648    1.367   .     A
C609   H633    1.081   .     S
Cu611  N648    2.019   .     S
Cu611  O653    1.976   .     S
Cu611  O649    1.959   .     S
Cu611  Cu612   2.687   .     S
Cu611  O656    1.965   .     S
Cu611  O652    1.961   .     S
Cu612  O650    1.959   .     S
Cu612  O655    1.965   .     S
Cu612  O651    1.961   .     S
Cu612  O654    1.976   .     S
Cu612  N647    2.019   .     S
H616   C680    1.109   .     S
H636   C111    1.108   1_556 S
C657   O733    1.294   .     A
C657   O731    1.304   .     A
C657   C670    1.472   .     S
C658   C691    1.419   .     A
C658   C660    1.426   .     A
C658   C686    1.507   .     S
C659   C679    1.396   .     A
C659   C692    1.426   .     A
C660   C687    1.397   .     A
C660   C167    1.521   1_556 S
C661   O735    1.283   .     A
C661   C663    1.431   .     S
C661   O737    1.291   .     A
C662   O738    1.294   .     A
C662   C664    1.435   .     S
C662   O736    1.282   .     A
C664   C499    1.355   1_655 S
C664   C516    1.520   1_655 S
C665   H695    1.083   .     S
C665   C676    1.398   .     A
C665   C667    1.389   .     A
C666   C677    1.399   .     A
C666   H706    1.083   .     S
C666   C669    1.388   .     A
C667   C670    1.405   .     A
C667   H717    1.083   .     S
C668   O734    1.292   .     A
C668   C671    1.469   .     S
C668   O732    1.305   .     A
C669   C671    1.403   .     A
C669   H723    1.083   .     S
C670   C672    1.424   .     A
C671   C673    1.424   .     A
C672   C681    1.508   .     S
C672   C674    1.396   .     A
C673   C682    1.510   .     S
C673   C675    1.397   .     A
C674   H724    1.084   .     S
C674   C676    1.396   .     A
C675   C677    1.396   .     A
C675   H725    1.084   .     S
C676   C923    1.463   1_545 S
C677   C922    1.463   .     S
C678   H697    1.110   .     S
C678   H696    1.109   .     S
C678   C499    1.517   1_655 S
C678   H564    1.111   1_655 S
C679   H726    1.083   .     S
C679   C688    1.406   .     A
C680   H700    1.111   .     S
C680   H699    1.105   .     S
C681   H703    1.106   .     S
C681   H701    1.106   .     S
C681   H702    1.111   .     S
C682   H704    1.108   .     S
C682   H705    1.111   .     S
C682   H707    1.110   .     S
C683   H710    1.108   .     S
C683   H708    1.103   .     S
C683   C688    1.504   .     S
C683   H709    1.112   .     S
C684   H712    1.112   .     S
C684   H713    1.105   .     S
C684   H711    1.100   .     S
C684   C689    1.505   .     S
C685   H719    1.111   .     S
C685   C692    1.506   .     S
C685   H716    1.110   .     S
C686   H720    1.110   .     S
C686   H722    1.111   .     S
C686   H229    1.109   1_556 S
C687   C689    1.406   .     A
C687   H727    1.083   .     S
C688   N729    1.383   .     A
C689   N730    1.383   .     A
C690   C692    1.419   .     A
C690   N729    1.366   .     A
C690   H714    1.080   .     S
C691   N730    1.367   .     A
C691   H715    1.081   .     S
Cu693  N730    2.019   .     S
Cu693  O735    1.976   .     S
Cu693  O731    1.959   .     S
Cu693  Cu694   2.687   .     S
Cu693  O738    1.965   .     S
Cu693  O734    1.961   .     S
Cu694  O732    1.959   .     S
Cu694  O737    1.965   .     S
Cu694  O733    1.961   .     S
Cu694  O736    1.976   .     S
Cu694  N729    2.019   .     S
H698   C516    1.109   1_655 S
H718   C193    1.108   1_556 S
C739   O815    1.294   .     A
C739   O813    1.304   .     A
C739   C752    1.472   .     S
C740   C773    1.419   .     A
C740   C742    1.426   .     A
C740   C768    1.507   .     S
C741   C761    1.396   .     A
C741   C774    1.426   .     A
C742   C769    1.397   .     A
C742   C249    1.521   1_556 S
C743   O817    1.283   .     A
C743   C745    1.431   .     S
C743   O819    1.291   .     A
C744   O820    1.294   .     A
C744   C746    1.435   .     S
C744   O818    1.282   .     A
C745   C910    1.355   1_455 S
C745   C924    1.517   1_455 S
C746   C827    1.355   .     S
C746   C844    1.520   .     S
C747   H777    1.083   .     S
C747   C758    1.398   .     A
C747   C749    1.389   .     A
C748   C759    1.399   .     A
C748   H788    1.083   .     S
C748   C751    1.388   .     A
C749   C752    1.405   .     A
C749   H799    1.083   .     S
C750   O816    1.292   .     A
C750   C753    1.469   .     S
C750   O814    1.305   .     A
C751   C753    1.403   .     A
C751   H805    1.083   .     S
C752   C754    1.424   .     A
C753   C755    1.424   .     A
C754   C763    1.508   .     S
C754   C756    1.396   .     A
C755   C764    1.510   .     S
C755   C757    1.397   .     A
C756   H806    1.084   .     S
C756   C758    1.396   .     A
C757   C759    1.396   .     A
C757   H807    1.084   .     S
C759   C512    1.463   1_565 S
C760   H779    1.110   .     S
C760   H778    1.109   .     S
C760   C827    1.517   .     S
C760   H892    1.111   .     S
C761   H808    1.083   .     S
C761   C770    1.406   .     A
C762   H782    1.111   .     S
C762   H781    1.105   .     S
C762   C910    1.520   1_455 S
C762   H944    1.109   1_455 S
C763   H785    1.106   .     S
C763   H783    1.106   .     S
C763   H784    1.111   .     S
C764   H786    1.108   .     S
C764   H787    1.111   .     S
C764   H789    1.110   .     S
C765   H792    1.108   .     S
C765   H790    1.103   .     S
C765   C770    1.504   .     S
C765   H791    1.112   .     S
C766   H794    1.112   .     S
C766   H795    1.105   .     S
C766   H793    1.100   .     S
C766   C771    1.505   .     S
C767   H801    1.111   .     S
C767   C774    1.506   .     S
C767   H798    1.110   .     S
C768   H802    1.110   .     S
C768   H804    1.111   .     S
C768   H311    1.109   1_556 S
C769   C771    1.406   .     A
C769   H809    1.083   .     S
C770   N811    1.383   .     A
C771   N812    1.383   .     A
C772   C774    1.419   .     A
C772   N811    1.366   .     A
C772   H796    1.080   .     S
C773   N812    1.367   .     A
C773   H797    1.081   .     S
Cu775  N812    2.019   .     S
Cu775  O817    1.976   .     S
Cu775  O813    1.959   .     S
Cu775  Cu776   2.687   .     S
Cu775  O820    1.965   .     S
Cu775  O816    1.961   .     S
Cu776  O814    1.959   .     S
Cu776  O819    1.965   .     S
Cu776  O815    1.961   .     S
Cu776  O818    1.976   .     S
Cu776  N811    2.019   .     S
H780   C844    1.109   .     S
H800   C275    1.108   1_556 S
H810   C924    1.111   1_455 S
C821   O897    1.294   .     A
C821   O895    1.304   .     A
C821   C834    1.472   .     S
C822   C855    1.419   .     A
C822   C824    1.426   .     A
C822   C850    1.507   .     S
C823   C843    1.396   .     A
C823   C856    1.426   .     A
C824   C851    1.397   .     A
C824   C331    1.521   1_556 S
C825   O899    1.283   .     A
C825   C827    1.431   .     S
C825   O901    1.291   .     A
C826   O902    1.294   .     A
C826   C828    1.435   .     S
C826   O900    1.282   .     A
C828   C909    1.355   .     S
C828   C926    1.520   .     S
C829   H859    1.083   .     S
C829   C840    1.398   .     A
C829   C831    1.389   .     A
C830   C841    1.399   .     A
C830   H870    1.083   .     S
C830   C833    1.388   .     A
C831   C834    1.405   .     A
C831   H881    1.083   .     S
C832   O898    1.292   .     A
C832   C835    1.469   .     S
C832   O896    1.305   .     A
C833   C835    1.403   .     A
C833   H887    1.083   .     S
C834   C836    1.424   .     A
C835   C837    1.424   .     A
C836   C845    1.508   .     S
C836   C838    1.396   .     A
C837   C846    1.510   .     S
C837   C839    1.397   .     A
C838   H888    1.084   .     S
C838   C840    1.396   .     A
C839   C841    1.396   .     A
C839   H889    1.084   .     S
C841   C594    1.463   1_565 S
C842   H861    1.110   .     S
C842   H860    1.109   .     S
C842   C909    1.517   .     S
C842   H974    1.111   .     S
C843   H890    1.083   .     S
C843   C852    1.406   .     A
C844   H864    1.111   .     S
C844   H863    1.105   .     S
C845   H867    1.106   .     S
C845   H865    1.106   .     S
C845   H866    1.111   .     S
C846   H868    1.108   .     S
C846   H869    1.111   .     S
C846   H871    1.110   .     S
C847   H874    1.108   .     S
C847   H872    1.103   .     S
C847   C852    1.504   .     S
C847   H873    1.112   .     S
C848   H876    1.112   .     S
C848   H877    1.105   .     S
C848   H875    1.100   .     S
C848   C853    1.505   .     S
C849   H883    1.111   .     S
C849   C856    1.506   .     S
C849   H880    1.110   .     S
C850   H884    1.110   .     S
C850   H886    1.111   .     S
C850   H393    1.109   1_556 S
C851   C853    1.406   .     A
C851   H891    1.083   .     S
C852   N893    1.383   .     A
C853   N894    1.383   .     A
C854   C856    1.419   .     A
C854   N893    1.366   .     A
C854   H878    1.080   .     S
C855   N894    1.367   .     A
C855   H879    1.081   .     S
Cu857  N894    2.019   .     S
Cu857  O899    1.976   .     S
Cu857  O895    1.959   .     S
Cu857  Cu858   2.687   .     S
Cu857  O902    1.965   .     S
Cu857  O898    1.961   .     S
Cu858  O896    1.959   .     S
Cu858  O901    1.965   .     S
Cu858  O897    1.961   .     S
Cu858  O900    1.976   .     S
Cu858  N893    2.019   .     S
H862   C926    1.109   .     S
H882   C357    1.108   1_556 S
C903   O979    1.294   .     A
C903   O977    1.304   .     A
C903   C916    1.472   .     S
C904   C937    1.419   .     A
C904   C906    1.426   .     A
C904   C932    1.507   .     S
C905   C925    1.396   .     A
C905   C938    1.426   .     A
C906   C933    1.397   .     A
C906   C413    1.521   1_556 S
C907   O981    1.283   .     A
C907   C909    1.431   .     S
C907   O983    1.291   .     A
C908   O984    1.294   .     A
C908   C910    1.435   .     S
C908   O982    1.282   .     A
C910   C745    1.355   1_655 S
C910   C762    1.520   1_655 S
C911   H941    1.083   .     S
C911   C922    1.398   .     A
C911   C913    1.389   .     A
C912   C923    1.399   .     A
C912   H952    1.083   .     S
C912   C915    1.388   .     A
C913   C916    1.405   .     A
C913   H963    1.083   .     S
C914   O980    1.292   .     A
C914   C917    1.469   .     S
C914   O978    1.305   .     A
C915   C917    1.403   .     A
C915   H969    1.083   .     S
C916   C918    1.424   .     A
C917   C919    1.424   .     A
C918   C927    1.508   .     S
C918   C920    1.396   .     A
C919   C928    1.510   .     S
C919   C921    1.397   .     A
C920   H970    1.084   .     S
C920   C922    1.396   .     A
C921   C923    1.396   .     A
C921   H971    1.084   .     S
C923   C676    1.463   1_565 S
C924   H943    1.110   .     S
C924   H942    1.109   .     S
C924   C745    1.517   1_655 S
C924   H810    1.111   1_655 S
C925   H972    1.083   .     S
C925   C934    1.406   .     A
C926   H946    1.111   .     S
C926   H945    1.105   .     S
C927   H949    1.106   .     S
C927   H947    1.106   .     S
C927   H948    1.111   .     S
C928   H950    1.108   .     S
C928   H951    1.111   .     S
C928   H953    1.110   .     S
C929   H956    1.108   .     S
C929   H954    1.103   .     S
C929   C934    1.504   .     S
C929   H955    1.112   .     S
C930   H958    1.112   .     S
C930   H959    1.105   .     S
C930   H957    1.100   .     S
C930   C935    1.505   .     S
C931   H965    1.111   .     S
C931   C938    1.506   .     S
C931   H962    1.110   .     S
C932   H966    1.110   .     S
C932   H968    1.111   .     S
C932   H475    1.109   1_556 S
C933   C935    1.406   .     A
C933   H973    1.083   .     S
C934   N975    1.383   .     A
C935   N976    1.383   .     A
C936   C938    1.419   .     A
C936   N975    1.366   .     A
C936   H960    1.080   .     S
C937   N976    1.367   .     A
C937   H961    1.081   .     S
Cu939  N976    2.019   .     S
Cu939  O981    1.976   .     S
Cu939  O977    1.959   .     S
Cu939  Cu940   2.687   .     S
Cu939  O984    1.965   .     S
Cu939  O980    1.961   .     S
Cu940  O978    1.959   .     S
Cu940  O983    1.965   .     S
Cu940  O979    1.961   .     S
Cu940  O982    1.976   .     S
Cu940  N975    2.019   .     S
H944   C762    1.109   1_655 S
H964   C439    1.108   1_556 S
