data_str_m2_o2_o10_pcu_sym.73
_audit_creation_date              2020-01-03
_audit_creation_method            'Materials Studio'
_symmetry_space_group_name_H-M    'P1'
_symmetry_Int_Tables_number       1
_symmetry_cell_setting            triclinic
loop_
_symmetry_equiv_pos_as_xyz
  x,y,z
_cell_length_a                    26.4451
_cell_length_b                    30.2333
_cell_length_c                    27.6649
_cell_angle_alpha                 90.2657
_cell_angle_beta                  97.6012
_cell_angle_gamma                 89.9654
loop_
_atom_site_label
_atom_site_type_symbol
_atom_site_fract_x
_atom_site_fract_y
_atom_site_fract_z
_atom_site_U_iso_or_equiv
_atom_site_adp_type
_atom_site_occupancy
C1     C     0.16715   0.16490   0.24992   0.00000  Uiso   1.00
C2     C     0.18788   0.28484   0.44941   0.00000  Uiso   1.00
C3     C     0.16630   0.25046   0.02729   0.00000  Uiso   1.00
C4     C     0.16637   0.24965   0.47274   0.00000  Uiso   1.00
C5     C     0.06813   0.25054   0.23782   0.00000  Uiso   1.00
C6     C     0.26519   0.24947   0.26216   0.00000  Uiso   1.00
C7     C     0.01368   0.25607   0.23196   0.00000  Uiso   1.00
C8     C     0.31960   0.24381   0.26793   0.00000  Uiso   1.00
C9     C     0.13890   0.04844   0.28343   0.00000  Uiso   1.00
C10    C     0.13332   0.45178   0.21611   0.00000  Uiso   1.00
C11    C     0.14118   0.09429   0.28295   0.00000  Uiso   1.00
C12    C     0.16777   0.33498   0.25026   0.00000  Uiso   1.00
C13    C     0.13563   0.40558   0.21590   0.00000  Uiso   1.00
C14    C     0.16726   0.11653   0.24959   0.00000  Uiso   1.00
C15    C     0.16923   0.38315   0.25074   0.00000  Uiso   1.00
C16    C     0.19276   0.09286   0.21611   0.00000  Uiso   1.00
C17    C     0.20229   0.40698   0.28609   0.00000  Uiso   1.00
C18    C     0.19169   0.04612   0.21678   0.00000  Uiso   1.00
C19    C     0.19952   0.45320   0.28673   0.00000  Uiso   1.00
C20    C     0.16462   0.02407   0.25029   0.00000  Uiso   1.00
C21    C     0.16534   0.47543   0.25164   0.00000  Uiso   1.00
C22    C     0.32528   0.27958   0.18828   0.00000  Uiso   1.00
C23    C     0.13716   0.28136   0.05038   0.00000  Uiso   1.00
C24    C     0.00772   0.21984   0.31133   0.00000  Uiso   1.00
C25    C     0.21922   0.02051   0.18427   0.00000  Uiso   1.00
C26    C     0.23335   0.47780   0.32258   0.00000  Uiso   1.00
C27    C     0.10549   0.31358   0.02247   0.00000  Uiso   1.00
C28    C     0.12145   0.17723   0.46424   0.00000  Uiso   1.00
C29    C     0.14504   0.21427   0.44330   0.00000  Uiso   1.00
C30    C     0.13785   0.28027   0.10146   0.00000  Uiso   1.00
C31    C     0.14554   0.21535   0.39237   0.00000  Uiso   1.00
C32    C     0.19538   0.22010   0.10786   0.00000  Uiso   1.00
C33    C     0.18794   0.28428   0.39853   0.00000  Uiso   1.00
C34    C     0.19550   0.21964   0.05699   0.00000  Uiso   1.00
Cu35   Cu    0.16667   0.25000   0.29821   0.00000  Uiso   1.00
Cu36   Cu    0.16667   0.25001   0.20178   0.00000  Uiso   1.00
H37    H     0.12138   0.11280   0.30838   0.00000  Uiso   1.00
H38    H     0.08060   0.45311   0.15991   0.00000  Uiso   1.00
H39    H     0.23352   0.09661   0.16166   0.00000  Uiso   1.00
H40    H     0.24634   0.35699   0.30722   0.00000  Uiso   1.00
H41    H     0.11053   0.38697   0.18904   0.00000  Uiso   1.00
H42    H     0.11510   0.30367   0.11904   0.00000  Uiso   1.00
H43    H     0.12875   0.18833   0.37005   0.00000  Uiso   1.00
H44    H     0.21840   0.19640   0.13018   0.00000  Uiso   1.00
H45    H     0.20520   0.31147   0.38145   0.00000  Uiso   1.00
H46    H     0.21852   0.19543   0.04089   0.00000  Uiso   1.00
H47    H     0.20488   0.31256   0.47056   0.00000  Uiso   1.00
H48    H     0.10900   0.49686   0.31157   0.00000  Uiso   1.00
N49    N     0.16667   0.25001   0.12934   0.00000  Uiso   1.00
N50    N     0.16667   0.24999   0.37065   0.00000  Uiso   1.00
N51    N     0.30816   0.29830   0.15350   0.00000  Uiso   1.00
N52    N     0.02430   0.20065   0.34593   0.00000  Uiso   1.00
N53    N     0.24117   0.49999   0.15839   0.00000  Uiso   1.00
N54    N     0.26037   0.49750   0.35121   0.00000  Uiso   1.00
N55    N     0.08008   0.33940   0.00005   0.00000  Uiso   1.00
N56    N     0.10252   0.14752   0.48104   0.00000  Uiso   1.00
O57    O     0.16667   0.18573   0.29071   0.00000  Uiso   1.00
O58    O     0.10019   0.47460   0.18223   0.00000  Uiso   1.00
O59    O     0.21937   0.11654   0.18489   0.00000  Uiso   1.00
O60    O     0.23827   0.38658   0.31957   0.00000  Uiso   1.00
O61    O     0.16666   0.31428   0.20928   0.00000  Uiso   1.00
O62    O     0.16667   0.18573   0.20928   0.00000  Uiso   1.00
O63    O     0.16666   0.31427   0.29072   0.00000  Uiso   1.00
O64    O     0.09161   0.25000   0.28132   0.00000  Uiso   1.00
O65    O     0.24172   0.25001   0.21868   0.00000  Uiso   1.00
O66    O     0.09161   0.25000   0.19988   0.00000  Uiso   1.00
O67    O     0.24172   0.25000   0.30011   0.00000  Uiso   1.00
O68    O     0.11131   0.02919   0.31689   0.00000  Uiso   1.00
C69    C     0.50048   0.16490   0.24992   0.00000  Uiso   1.00
C70    C     0.52122   0.28484   0.44941   0.00000  Uiso   1.00
C71    C     0.49963   0.25046   0.02729   0.00000  Uiso   1.00
C72    C     0.49970   0.24965   0.47274   0.00000  Uiso   1.00
C73    C     0.40146   0.25054   0.23782   0.00000  Uiso   1.00
C74    C     0.59853   0.24947   0.26216   0.00000  Uiso   1.00
C75    C     0.34702   0.25607   0.23196   0.00000  Uiso   1.00
C76    C     0.65293   0.24381   0.26793   0.00000  Uiso   1.00
C77    C     0.47223   0.04844   0.28343   0.00000  Uiso   1.00
C78    C     0.46665   0.45178   0.21611   0.00000  Uiso   1.00
C79    C     0.47451   0.09429   0.28295   0.00000  Uiso   1.00
C80    C     0.50111   0.33498   0.25026   0.00000  Uiso   1.00
C81    C     0.46897   0.40558   0.21590   0.00000  Uiso   1.00
C82    C     0.50060   0.11653   0.24959   0.00000  Uiso   1.00
C83    C     0.50257   0.38315   0.25074   0.00000  Uiso   1.00
C84    C     0.52609   0.09286   0.21611   0.00000  Uiso   1.00
C85    C     0.53562   0.40698   0.28609   0.00000  Uiso   1.00
C86    C     0.52502   0.04612   0.21678   0.00000  Uiso   1.00
C87    C     0.53285   0.45320   0.28673   0.00000  Uiso   1.00
C88    C     0.49796   0.02407   0.25029   0.00000  Uiso   1.00
C89    C     0.49867   0.47543   0.25164   0.00000  Uiso   1.00
C90    C     0.65861   0.27958   0.18828   0.00000  Uiso   1.00
C91    C     0.47049   0.28136   0.05038   0.00000  Uiso   1.00
C92    C     0.34105   0.21984   0.31133   0.00000  Uiso   1.00
C93    C     0.55255   0.02051   0.18427   0.00000  Uiso   1.00
C94    C     0.56668   0.47780   0.32258   0.00000  Uiso   1.00
C95    C     0.43882   0.31358   0.02247   0.00000  Uiso   1.00
C96    C     0.45478   0.17723   0.46424   0.00000  Uiso   1.00
C97    C     0.47837   0.21427   0.44330   0.00000  Uiso   1.00
C98    C     0.47118   0.28027   0.10146   0.00000  Uiso   1.00
C99    C     0.47887   0.21535   0.39237   0.00000  Uiso   1.00
C100   C     0.52872   0.22010   0.10786   0.00000  Uiso   1.00
C101   C     0.52127   0.28428   0.39853   0.00000  Uiso   1.00
C102   C     0.52883   0.21964   0.05699   0.00000  Uiso   1.00
Cu103  Cu    0.50000   0.25000   0.29821   0.00000  Uiso   1.00
Cu104  Cu    0.50000   0.25001   0.20178   0.00000  Uiso   1.00
H105   H     0.45471   0.11280   0.30838   0.00000  Uiso   1.00
H106   H     0.41393   0.45311   0.15991   0.00000  Uiso   1.00
H107   H     0.56685   0.09661   0.16166   0.00000  Uiso   1.00
H108   H     0.57967   0.35699   0.30722   0.00000  Uiso   1.00
H109   H     0.44386   0.38697   0.18904   0.00000  Uiso   1.00
H110   H     0.44843   0.30367   0.11904   0.00000  Uiso   1.00
H111   H     0.46209   0.18833   0.37005   0.00000  Uiso   1.00
H112   H     0.55173   0.19640   0.13018   0.00000  Uiso   1.00
H113   H     0.53853   0.31147   0.38145   0.00000  Uiso   1.00
H114   H     0.55186   0.19543   0.04089   0.00000  Uiso   1.00
H115   H     0.53821   0.31256   0.47056   0.00000  Uiso   1.00
H116   H     0.44233   0.49686   0.31157   0.00000  Uiso   1.00
N117   N     0.50000   0.25001   0.12934   0.00000  Uiso   1.00
N118   N     0.50000   0.24999   0.37065   0.00000  Uiso   1.00
N119   N     0.64149   0.29830   0.15350   0.00000  Uiso   1.00
N120   N     0.35764   0.20065   0.34593   0.00000  Uiso   1.00
N121   N     0.57450   0.49999   0.15839   0.00000  Uiso   1.00
N122   N     0.59371   0.49750   0.35121   0.00000  Uiso   1.00
N123   N     0.41342   0.33940   0.00005   0.00000  Uiso   1.00
N124   N     0.43585   0.14752   0.48104   0.00000  Uiso   1.00
O125   O     0.50000   0.18573   0.29071   0.00000  Uiso   1.00
O126   O     0.43353   0.47460   0.18223   0.00000  Uiso   1.00
O127   O     0.55270   0.11654   0.18489   0.00000  Uiso   1.00
O128   O     0.57160   0.38658   0.31957   0.00000  Uiso   1.00
O129   O     0.50000   0.31428   0.20928   0.00000  Uiso   1.00
O130   O     0.50000   0.18573   0.20928   0.00000  Uiso   1.00
O131   O     0.50000   0.31427   0.29072   0.00000  Uiso   1.00
O132   O     0.42495   0.25000   0.28132   0.00000  Uiso   1.00
O133   O     0.57505   0.25001   0.21868   0.00000  Uiso   1.00
O134   O     0.42495   0.25000   0.19988   0.00000  Uiso   1.00
O135   O     0.57505   0.25000   0.30011   0.00000  Uiso   1.00
O136   O     0.44464   0.02919   0.31689   0.00000  Uiso   1.00
C137   C     0.83381   0.16490   0.24992   0.00000  Uiso   1.00
C138   C     0.85455   0.28484   0.44941   0.00000  Uiso   1.00
C139   C     0.83297   0.25046   0.02729   0.00000  Uiso   1.00
C140   C     0.83303   0.24965   0.47274   0.00000  Uiso   1.00
C141   C     0.73479   0.25054   0.23782   0.00000  Uiso   1.00
C142   C     0.93186   0.24947   0.26216   0.00000  Uiso   1.00
C143   C     0.68035   0.25607   0.23196   0.00000  Uiso   1.00
C144   C     0.98626   0.24381   0.26793   0.00000  Uiso   1.00
C145   C     0.80557   0.04844   0.28343   0.00000  Uiso   1.00
C146   C     0.79999   0.45178   0.21611   0.00000  Uiso   1.00
C147   C     0.80784   0.09429   0.28295   0.00000  Uiso   1.00
C148   C     0.83444   0.33498   0.25026   0.00000  Uiso   1.00
C149   C     0.80230   0.40558   0.21590   0.00000  Uiso   1.00
C150   C     0.83393   0.11653   0.24959   0.00000  Uiso   1.00
C151   C     0.83590   0.38315   0.25074   0.00000  Uiso   1.00
C152   C     0.85942   0.09286   0.21611   0.00000  Uiso   1.00
C153   C     0.86895   0.40698   0.28609   0.00000  Uiso   1.00
C154   C     0.85836   0.04612   0.21678   0.00000  Uiso   1.00
C155   C     0.86619   0.45320   0.28673   0.00000  Uiso   1.00
C156   C     0.83129   0.02407   0.25029   0.00000  Uiso   1.00
C157   C     0.83200   0.47543   0.25164   0.00000  Uiso   1.00
C158   C     0.99195   0.27958   0.18828   0.00000  Uiso   1.00
C159   C     0.80383   0.28136   0.05038   0.00000  Uiso   1.00
C160   C     0.67438   0.21984   0.31133   0.00000  Uiso   1.00
C161   C     0.88589   0.02051   0.18427   0.00000  Uiso   1.00
C162   C     0.90002   0.47780   0.32258   0.00000  Uiso   1.00
C163   C     0.77215   0.31358   0.02247   0.00000  Uiso   1.00
C164   C     0.78811   0.17723   0.46424   0.00000  Uiso   1.00
C165   C     0.81170   0.21427   0.44330   0.00000  Uiso   1.00
C166   C     0.80452   0.28027   0.10146   0.00000  Uiso   1.00
C167   C     0.81221   0.21535   0.39237   0.00000  Uiso   1.00
C168   C     0.86205   0.22010   0.10786   0.00000  Uiso   1.00
C169   C     0.85461   0.28428   0.39853   0.00000  Uiso   1.00
C170   C     0.86217   0.21964   0.05699   0.00000  Uiso   1.00
Cu171  Cu    0.83333   0.25000   0.29821   0.00000  Uiso   1.00
Cu172  Cu    0.83333   0.25001   0.20178   0.00000  Uiso   1.00
H173   H     0.78804   0.11280   0.30838   0.00000  Uiso   1.00
H174   H     0.74726   0.45311   0.15991   0.00000  Uiso   1.00
H175   H     0.90018   0.09661   0.16166   0.00000  Uiso   1.00
H176   H     0.91300   0.35699   0.30722   0.00000  Uiso   1.00
H177   H     0.77720   0.38697   0.18904   0.00000  Uiso   1.00
H178   H     0.78177   0.30367   0.11904   0.00000  Uiso   1.00
H179   H     0.79542   0.18833   0.37005   0.00000  Uiso   1.00
H180   H     0.88506   0.19640   0.13018   0.00000  Uiso   1.00
H181   H     0.87186   0.31147   0.38145   0.00000  Uiso   1.00
H182   H     0.88519   0.19543   0.04089   0.00000  Uiso   1.00
H183   H     0.87155   0.31256   0.47056   0.00000  Uiso   1.00
H184   H     0.77566   0.49686   0.31157   0.00000  Uiso   1.00
N185   N     0.83333   0.25001   0.12934   0.00000  Uiso   1.00
N186   N     0.83333   0.24999   0.37065   0.00000  Uiso   1.00
N187   N     0.97483   0.29830   0.15350   0.00000  Uiso   1.00
N188   N     0.69097   0.20065   0.34593   0.00000  Uiso   1.00
N189   N     0.90783   0.49999   0.15839   0.00000  Uiso   1.00
N190   N     0.92704   0.49750   0.35121   0.00000  Uiso   1.00
N191   N     0.74675   0.33940   0.00005   0.00000  Uiso   1.00
N192   N     0.76919   0.14752   0.48104   0.00000  Uiso   1.00
O193   O     0.83334   0.18573   0.29071   0.00000  Uiso   1.00
O194   O     0.76686   0.47460   0.18223   0.00000  Uiso   1.00
O195   O     0.88603   0.11654   0.18489   0.00000  Uiso   1.00
O196   O     0.90494   0.38658   0.31957   0.00000  Uiso   1.00
O197   O     0.83333   0.31428   0.20928   0.00000  Uiso   1.00
O198   O     0.83334   0.18573   0.20928   0.00000  Uiso   1.00
O199   O     0.83333   0.31427   0.29072   0.00000  Uiso   1.00
O200   O     0.75828   0.25000   0.28132   0.00000  Uiso   1.00
O201   O     0.90839   0.25001   0.21868   0.00000  Uiso   1.00
O202   O     0.75828   0.25000   0.19988   0.00000  Uiso   1.00
O203   O     0.90839   0.25000   0.30011   0.00000  Uiso   1.00
O204   O     0.77797   0.02919   0.31689   0.00000  Uiso   1.00
C205   C     0.16715   0.66490   0.24992   0.00000  Uiso   1.00
C206   C     0.18788   0.78484   0.44941   0.00000  Uiso   1.00
C207   C     0.16630   0.75046   0.02729   0.00000  Uiso   1.00
C208   C     0.16637   0.74965   0.47274   0.00000  Uiso   1.00
C209   C     0.06813   0.75054   0.23782   0.00000  Uiso   1.00
C210   C     0.26519   0.74947   0.26216   0.00000  Uiso   1.00
C211   C     0.01368   0.75607   0.23196   0.00000  Uiso   1.00
C212   C     0.31960   0.74381   0.26793   0.00000  Uiso   1.00
C213   C     0.13890   0.54844   0.28343   0.00000  Uiso   1.00
C214   C     0.13332   0.95178   0.21611   0.00000  Uiso   1.00
C215   C     0.14118   0.59429   0.28295   0.00000  Uiso   1.00
C216   C     0.16777   0.83498   0.25026   0.00000  Uiso   1.00
C217   C     0.13563   0.90558   0.21590   0.00000  Uiso   1.00
C218   C     0.16726   0.61653   0.24959   0.00000  Uiso   1.00
C219   C     0.16923   0.88315   0.25074   0.00000  Uiso   1.00
C220   C     0.19276   0.59286   0.21611   0.00000  Uiso   1.00
C221   C     0.20229   0.90698   0.28609   0.00000  Uiso   1.00
C222   C     0.19169   0.54612   0.21678   0.00000  Uiso   1.00
C223   C     0.19952   0.95320   0.28673   0.00000  Uiso   1.00
C224   C     0.16462   0.52407   0.25029   0.00000  Uiso   1.00
C225   C     0.16534   0.97543   0.25164   0.00000  Uiso   1.00
C226   C     0.32528   0.77958   0.18828   0.00000  Uiso   1.00
C227   C     0.13716   0.78136   0.05038   0.00000  Uiso   1.00
C228   C     0.00772   0.71984   0.31133   0.00000  Uiso   1.00
C229   C     0.21922   0.52051   0.18427   0.00000  Uiso   1.00
C230   C     0.23335   0.97780   0.32258   0.00000  Uiso   1.00
C231   C     0.10549   0.81358   0.02247   0.00000  Uiso   1.00
C232   C     0.12145   0.67723   0.46424   0.00000  Uiso   1.00
C233   C     0.14504   0.71427   0.44330   0.00000  Uiso   1.00
C234   C     0.13785   0.78027   0.10146   0.00000  Uiso   1.00
C235   C     0.14554   0.71535   0.39237   0.00000  Uiso   1.00
C236   C     0.19538   0.72010   0.10786   0.00000  Uiso   1.00
C237   C     0.18794   0.78428   0.39853   0.00000  Uiso   1.00
C238   C     0.19550   0.71964   0.05699   0.00000  Uiso   1.00
Cu239  Cu    0.16667   0.75000   0.29821   0.00000  Uiso   1.00
Cu240  Cu    0.16667   0.75001   0.20178   0.00000  Uiso   1.00
H241   H     0.12138   0.61280   0.30838   0.00000  Uiso   1.00
H242   H     0.08060   0.95311   0.15991   0.00000  Uiso   1.00
H243   H     0.23352   0.59661   0.16166   0.00000  Uiso   1.00
H244   H     0.24634   0.85699   0.30722   0.00000  Uiso   1.00
H245   H     0.11053   0.88697   0.18904   0.00000  Uiso   1.00
H246   H     0.11510   0.80367   0.11904   0.00000  Uiso   1.00
H247   H     0.12875   0.68833   0.37005   0.00000  Uiso   1.00
H248   H     0.21840   0.69640   0.13018   0.00000  Uiso   1.00
H249   H     0.20520   0.81147   0.38145   0.00000  Uiso   1.00
H250   H     0.21852   0.69543   0.04089   0.00000  Uiso   1.00
H251   H     0.20488   0.81256   0.47056   0.00000  Uiso   1.00
H252   H     0.10900   0.99686   0.31157   0.00000  Uiso   1.00
N253   N     0.16667   0.75001   0.12934   0.00000  Uiso   1.00
N254   N     0.16667   0.74999   0.37065   0.00000  Uiso   1.00
N255   N     0.30816   0.79830   0.15350   0.00000  Uiso   1.00
N256   N     0.02430   0.70065   0.34593   0.00000  Uiso   1.00
N257   N     0.24117   0.99999   0.15839   0.00000  Uiso   1.00
N258   N     0.26037   0.99750   0.35121   0.00000  Uiso   1.00
N259   N     0.08008   0.83940   0.00005   0.00000  Uiso   1.00
N260   N     0.10252   0.64752   0.48104   0.00000  Uiso   1.00
O261   O     0.16667   0.68573   0.29071   0.00000  Uiso   1.00
O262   O     0.10019   0.97460   0.18223   0.00000  Uiso   1.00
O263   O     0.21937   0.61654   0.18489   0.00000  Uiso   1.00
O264   O     0.23827   0.88658   0.31957   0.00000  Uiso   1.00
O265   O     0.16666   0.81428   0.20928   0.00000  Uiso   1.00
O266   O     0.16667   0.68573   0.20928   0.00000  Uiso   1.00
O267   O     0.16666   0.81427   0.29072   0.00000  Uiso   1.00
O268   O     0.09161   0.75000   0.28132   0.00000  Uiso   1.00
O269   O     0.24172   0.75001   0.21868   0.00000  Uiso   1.00
O270   O     0.09161   0.75000   0.19988   0.00000  Uiso   1.00
O271   O     0.24172   0.75000   0.30011   0.00000  Uiso   1.00
O272   O     0.11131   0.52919   0.31689   0.00000  Uiso   1.00
C273   C     0.50048   0.66490   0.24992   0.00000  Uiso   1.00
C274   C     0.52122   0.78484   0.44941   0.00000  Uiso   1.00
C275   C     0.49963   0.75046   0.02729   0.00000  Uiso   1.00
C276   C     0.49970   0.74965   0.47274   0.00000  Uiso   1.00
C277   C     0.40146   0.75054   0.23782   0.00000  Uiso   1.00
C278   C     0.59853   0.74947   0.26216   0.00000  Uiso   1.00
C279   C     0.34702   0.75607   0.23196   0.00000  Uiso   1.00
C280   C     0.65293   0.74381   0.26793   0.00000  Uiso   1.00
C281   C     0.47223   0.54844   0.28343   0.00000  Uiso   1.00
C282   C     0.46665   0.95178   0.21611   0.00000  Uiso   1.00
C283   C     0.47451   0.59429   0.28295   0.00000  Uiso   1.00
C284   C     0.50111   0.83498   0.25026   0.00000  Uiso   1.00
C285   C     0.46897   0.90558   0.21590   0.00000  Uiso   1.00
C286   C     0.50060   0.61653   0.24959   0.00000  Uiso   1.00
C287   C     0.50257   0.88315   0.25074   0.00000  Uiso   1.00
C288   C     0.52609   0.59286   0.21611   0.00000  Uiso   1.00
C289   C     0.53562   0.90698   0.28609   0.00000  Uiso   1.00
C290   C     0.52502   0.54612   0.21678   0.00000  Uiso   1.00
C291   C     0.53285   0.95320   0.28673   0.00000  Uiso   1.00
C292   C     0.49796   0.52407   0.25029   0.00000  Uiso   1.00
C293   C     0.49867   0.97543   0.25164   0.00000  Uiso   1.00
C294   C     0.65861   0.77958   0.18828   0.00000  Uiso   1.00
C295   C     0.47049   0.78136   0.05038   0.00000  Uiso   1.00
C296   C     0.34105   0.71984   0.31133   0.00000  Uiso   1.00
C297   C     0.55255   0.52051   0.18427   0.00000  Uiso   1.00
C298   C     0.56668   0.97780   0.32258   0.00000  Uiso   1.00
C299   C     0.43882   0.81358   0.02247   0.00000  Uiso   1.00
C300   C     0.45478   0.67723   0.46424   0.00000  Uiso   1.00
C301   C     0.47837   0.71427   0.44330   0.00000  Uiso   1.00
C302   C     0.47118   0.78027   0.10146   0.00000  Uiso   1.00
C303   C     0.47887   0.71535   0.39237   0.00000  Uiso   1.00
C304   C     0.52872   0.72010   0.10786   0.00000  Uiso   1.00
C305   C     0.52127   0.78428   0.39853   0.00000  Uiso   1.00
C306   C     0.52883   0.71964   0.05699   0.00000  Uiso   1.00
Cu307  Cu    0.50000   0.75000   0.29821   0.00000  Uiso   1.00
Cu308  Cu    0.50000   0.75001   0.20178   0.00000  Uiso   1.00
H309   H     0.45471   0.61280   0.30838   0.00000  Uiso   1.00
H310   H     0.41393   0.95311   0.15991   0.00000  Uiso   1.00
H311   H     0.56685   0.59661   0.16166   0.00000  Uiso   1.00
H312   H     0.57967   0.85699   0.30722   0.00000  Uiso   1.00
H313   H     0.44386   0.88697   0.18904   0.00000  Uiso   1.00
H314   H     0.44843   0.80367   0.11904   0.00000  Uiso   1.00
H315   H     0.46209   0.68833   0.37005   0.00000  Uiso   1.00
H316   H     0.55173   0.69640   0.13018   0.00000  Uiso   1.00
H317   H     0.53853   0.81147   0.38145   0.00000  Uiso   1.00
H318   H     0.55186   0.69543   0.04089   0.00000  Uiso   1.00
H319   H     0.53821   0.81256   0.47056   0.00000  Uiso   1.00
H320   H     0.44233   0.99686   0.31157   0.00000  Uiso   1.00
N321   N     0.50000   0.75001   0.12934   0.00000  Uiso   1.00
N322   N     0.50000   0.74999   0.37065   0.00000  Uiso   1.00
N323   N     0.64149   0.79830   0.15350   0.00000  Uiso   1.00
N324   N     0.35764   0.70065   0.34593   0.00000  Uiso   1.00
N325   N     0.57450   0.99999   0.15839   0.00000  Uiso   1.00
N326   N     0.59371   0.99750   0.35121   0.00000  Uiso   1.00
N327   N     0.41342   0.83940   0.00005   0.00000  Uiso   1.00
N328   N     0.43585   0.64752   0.48104   0.00000  Uiso   1.00
O329   O     0.50000   0.68573   0.29071   0.00000  Uiso   1.00
O330   O     0.43353   0.97460   0.18223   0.00000  Uiso   1.00
O331   O     0.55270   0.61654   0.18489   0.00000  Uiso   1.00
O332   O     0.57160   0.88658   0.31957   0.00000  Uiso   1.00
O333   O     0.50000   0.81428   0.20928   0.00000  Uiso   1.00
O334   O     0.50000   0.68573   0.20928   0.00000  Uiso   1.00
O335   O     0.50000   0.81427   0.29072   0.00000  Uiso   1.00
O336   O     0.42495   0.75000   0.28132   0.00000  Uiso   1.00
O337   O     0.57505   0.75001   0.21868   0.00000  Uiso   1.00
O338   O     0.42495   0.75000   0.19988   0.00000  Uiso   1.00
O339   O     0.57505   0.75000   0.30011   0.00000  Uiso   1.00
O340   O     0.44464   0.52919   0.31689   0.00000  Uiso   1.00
C341   C     0.83381   0.66490   0.24992   0.00000  Uiso   1.00
C342   C     0.85455   0.78484   0.44941   0.00000  Uiso   1.00
C343   C     0.83297   0.75046   0.02729   0.00000  Uiso   1.00
C344   C     0.83303   0.74965   0.47274   0.00000  Uiso   1.00
C345   C     0.73479   0.75054   0.23782   0.00000  Uiso   1.00
C346   C     0.93186   0.74947   0.26216   0.00000  Uiso   1.00
C347   C     0.68035   0.75607   0.23196   0.00000  Uiso   1.00
C348   C     0.98626   0.74381   0.26793   0.00000  Uiso   1.00
C349   C     0.80557   0.54844   0.28343   0.00000  Uiso   1.00
C350   C     0.79999   0.95178   0.21611   0.00000  Uiso   1.00
C351   C     0.80784   0.59429   0.28295   0.00000  Uiso   1.00
C352   C     0.83444   0.83498   0.25026   0.00000  Uiso   1.00
C353   C     0.80230   0.90558   0.21590   0.00000  Uiso   1.00
C354   C     0.83393   0.61653   0.24959   0.00000  Uiso   1.00
C355   C     0.83590   0.88315   0.25074   0.00000  Uiso   1.00
C356   C     0.85942   0.59286   0.21611   0.00000  Uiso   1.00
C357   C     0.86895   0.90698   0.28609   0.00000  Uiso   1.00
C358   C     0.85836   0.54612   0.21678   0.00000  Uiso   1.00
C359   C     0.86619   0.95320   0.28673   0.00000  Uiso   1.00
C360   C     0.83129   0.52407   0.25029   0.00000  Uiso   1.00
C361   C     0.83200   0.97543   0.25164   0.00000  Uiso   1.00
C362   C     0.99195   0.77958   0.18828   0.00000  Uiso   1.00
C363   C     0.80383   0.78136   0.05038   0.00000  Uiso   1.00
C364   C     0.67438   0.71984   0.31133   0.00000  Uiso   1.00
C365   C     0.88589   0.52051   0.18427   0.00000  Uiso   1.00
C366   C     0.90002   0.97780   0.32258   0.00000  Uiso   1.00
C367   C     0.77215   0.81358   0.02247   0.00000  Uiso   1.00
C368   C     0.78811   0.67723   0.46424   0.00000  Uiso   1.00
C369   C     0.81170   0.71427   0.44330   0.00000  Uiso   1.00
C370   C     0.80452   0.78027   0.10146   0.00000  Uiso   1.00
C371   C     0.81221   0.71535   0.39237   0.00000  Uiso   1.00
C372   C     0.86205   0.72010   0.10786   0.00000  Uiso   1.00
C373   C     0.85461   0.78428   0.39853   0.00000  Uiso   1.00
C374   C     0.86217   0.71964   0.05699   0.00000  Uiso   1.00
Cu375  Cu    0.83333   0.75000   0.29821   0.00000  Uiso   1.00
Cu376  Cu    0.83333   0.75001   0.20178   0.00000  Uiso   1.00
H377   H     0.78804   0.61280   0.30838   0.00000  Uiso   1.00
H378   H     0.74726   0.95311   0.15991   0.00000  Uiso   1.00
H379   H     0.90018   0.59661   0.16166   0.00000  Uiso   1.00
H380   H     0.91300   0.85699   0.30722   0.00000  Uiso   1.00
H381   H     0.77720   0.88697   0.18904   0.00000  Uiso   1.00
H382   H     0.78177   0.80367   0.11904   0.00000  Uiso   1.00
H383   H     0.79542   0.68833   0.37005   0.00000  Uiso   1.00
H384   H     0.88506   0.69640   0.13018   0.00000  Uiso   1.00
H385   H     0.87186   0.81147   0.38145   0.00000  Uiso   1.00
H386   H     0.88519   0.69543   0.04089   0.00000  Uiso   1.00
H387   H     0.87155   0.81256   0.47056   0.00000  Uiso   1.00
H388   H     0.77566   0.99686   0.31157   0.00000  Uiso   1.00
N389   N     0.83333   0.75001   0.12934   0.00000  Uiso   1.00
N390   N     0.83333   0.74999   0.37065   0.00000  Uiso   1.00
N391   N     0.97483   0.79830   0.15350   0.00000  Uiso   1.00
N392   N     0.69097   0.70065   0.34593   0.00000  Uiso   1.00
N393   N     0.90783   0.99999   0.15839   0.00000  Uiso   1.00
N394   N     0.92704   0.99750   0.35121   0.00000  Uiso   1.00
N395   N     0.74675   0.83940   0.00005   0.00000  Uiso   1.00
N396   N     0.76919   0.64752   0.48104   0.00000  Uiso   1.00
O397   O     0.83334   0.68573   0.29071   0.00000  Uiso   1.00
O398   O     0.76686   0.97460   0.18223   0.00000  Uiso   1.00
O399   O     0.88603   0.61654   0.18489   0.00000  Uiso   1.00
O400   O     0.90494   0.88658   0.31957   0.00000  Uiso   1.00
O401   O     0.83333   0.81428   0.20928   0.00000  Uiso   1.00
O402   O     0.83334   0.68573   0.20928   0.00000  Uiso   1.00
O403   O     0.83333   0.81427   0.29072   0.00000  Uiso   1.00
O404   O     0.75828   0.75000   0.28132   0.00000  Uiso   1.00
O405   O     0.90839   0.75001   0.21868   0.00000  Uiso   1.00
O406   O     0.75828   0.75000   0.19988   0.00000  Uiso   1.00
O407   O     0.90839   0.75000   0.30011   0.00000  Uiso   1.00
O408   O     0.77797   0.52919   0.31689   0.00000  Uiso   1.00
C409   C     0.16715   0.16490   0.74992   0.00000  Uiso   1.00
C410   C     0.18788   0.28484   0.94941   0.00000  Uiso   1.00
C411   C     0.16630   0.25046   0.52729   0.00000  Uiso   1.00
C412   C     0.16637   0.24965   0.97274   0.00000  Uiso   1.00
C413   C     0.06813   0.25054   0.73782   0.00000  Uiso   1.00
C414   C     0.26519   0.24947   0.76216   0.00000  Uiso   1.00
C415   C     0.01368   0.25607   0.73196   0.00000  Uiso   1.00
C416   C     0.31960   0.24381   0.76793   0.00000  Uiso   1.00
C417   C     0.13890   0.04844   0.78343   0.00000  Uiso   1.00
C418   C     0.13332   0.45178   0.71611   0.00000  Uiso   1.00
C419   C     0.14118   0.09429   0.78295   0.00000  Uiso   1.00
C420   C     0.16777   0.33498   0.75026   0.00000  Uiso   1.00
C421   C     0.13563   0.40558   0.71590   0.00000  Uiso   1.00
C422   C     0.16726   0.11653   0.74959   0.00000  Uiso   1.00
C423   C     0.16923   0.38315   0.75074   0.00000  Uiso   1.00
C424   C     0.19276   0.09286   0.71611   0.00000  Uiso   1.00
C425   C     0.20229   0.40698   0.78609   0.00000  Uiso   1.00
C426   C     0.19169   0.04612   0.71678   0.00000  Uiso   1.00
C427   C     0.19952   0.45320   0.78673   0.00000  Uiso   1.00
C428   C     0.16462   0.02407   0.75029   0.00000  Uiso   1.00
C429   C     0.16534   0.47543   0.75164   0.00000  Uiso   1.00
C430   C     0.32528   0.27958   0.68828   0.00000  Uiso   1.00
C431   C     0.13716   0.28136   0.55038   0.00000  Uiso   1.00
C432   C     0.00772   0.21984   0.81133   0.00000  Uiso   1.00
C433   C     0.21922   0.02051   0.68427   0.00000  Uiso   1.00
C434   C     0.23335   0.47780   0.82258   0.00000  Uiso   1.00
C435   C     0.10549   0.31358   0.52247   0.00000  Uiso   1.00
C436   C     0.12145   0.17723   0.96424   0.00000  Uiso   1.00
C437   C     0.14504   0.21427   0.94330   0.00000  Uiso   1.00
C438   C     0.13785   0.28027   0.60146   0.00000  Uiso   1.00
C439   C     0.14554   0.21535   0.89237   0.00000  Uiso   1.00
C440   C     0.19538   0.22010   0.60786   0.00000  Uiso   1.00
C441   C     0.18794   0.28428   0.89853   0.00000  Uiso   1.00
C442   C     0.19550   0.21964   0.55699   0.00000  Uiso   1.00
Cu443  Cu    0.16667   0.25000   0.79821   0.00000  Uiso   1.00
Cu444  Cu    0.16667   0.25001   0.70178   0.00000  Uiso   1.00
H445   H     0.12138   0.11280   0.80838   0.00000  Uiso   1.00
H446   H     0.08060   0.45311   0.65991   0.00000  Uiso   1.00
H447   H     0.23352   0.09661   0.66166   0.00000  Uiso   1.00
H448   H     0.24634   0.35699   0.80722   0.00000  Uiso   1.00
H449   H     0.11053   0.38697   0.68904   0.00000  Uiso   1.00
H450   H     0.11510   0.30367   0.61904   0.00000  Uiso   1.00
H451   H     0.12875   0.18833   0.87005   0.00000  Uiso   1.00
H452   H     0.21840   0.19640   0.63018   0.00000  Uiso   1.00
H453   H     0.20520   0.31147   0.88145   0.00000  Uiso   1.00
H454   H     0.21852   0.19543   0.54089   0.00000  Uiso   1.00
H455   H     0.20488   0.31256   0.97056   0.00000  Uiso   1.00
H456   H     0.10900   0.49686   0.81157   0.00000  Uiso   1.00
N457   N     0.16667   0.25001   0.62934   0.00000  Uiso   1.00
N458   N     0.16667   0.24999   0.87065   0.00000  Uiso   1.00
N459   N     0.30816   0.29830   0.65350   0.00000  Uiso   1.00
N460   N     0.02430   0.20065   0.84593   0.00000  Uiso   1.00
N461   N     0.24117   0.49999   0.65839   0.00000  Uiso   1.00
N462   N     0.26037   0.49750   0.85121   0.00000  Uiso   1.00
N463   N     0.08008   0.33940   0.50005   0.00000  Uiso   1.00
N464   N     0.10252   0.14752   0.98104   0.00000  Uiso   1.00
O465   O     0.16667   0.18573   0.79071   0.00000  Uiso   1.00
O466   O     0.10019   0.47460   0.68223   0.00000  Uiso   1.00
O467   O     0.21937   0.11654   0.68489   0.00000  Uiso   1.00
O468   O     0.23827   0.38658   0.81957   0.00000  Uiso   1.00
O469   O     0.16666   0.31428   0.70928   0.00000  Uiso   1.00
O470   O     0.16667   0.18573   0.70928   0.00000  Uiso   1.00
O471   O     0.16666   0.31427   0.79072   0.00000  Uiso   1.00
O472   O     0.09161   0.25000   0.78132   0.00000  Uiso   1.00
O473   O     0.24172   0.25001   0.71868   0.00000  Uiso   1.00
O474   O     0.09161   0.25000   0.69988   0.00000  Uiso   1.00
O475   O     0.24172   0.25000   0.80011   0.00000  Uiso   1.00
O476   O     0.11131   0.02919   0.81689   0.00000  Uiso   1.00
C477   C     0.50048   0.16490   0.74992   0.00000  Uiso   1.00
C478   C     0.52122   0.28484   0.94941   0.00000  Uiso   1.00
C479   C     0.49963   0.25046   0.52729   0.00000  Uiso   1.00
C480   C     0.49970   0.24965   0.97274   0.00000  Uiso   1.00
C481   C     0.40146   0.25054   0.73782   0.00000  Uiso   1.00
C482   C     0.59853   0.24947   0.76216   0.00000  Uiso   1.00
C483   C     0.34702   0.25607   0.73196   0.00000  Uiso   1.00
C484   C     0.65293   0.24381   0.76793   0.00000  Uiso   1.00
C485   C     0.47223   0.04844   0.78343   0.00000  Uiso   1.00
C486   C     0.46665   0.45178   0.71611   0.00000  Uiso   1.00
C487   C     0.47451   0.09429   0.78295   0.00000  Uiso   1.00
C488   C     0.50111   0.33498   0.75026   0.00000  Uiso   1.00
C489   C     0.46897   0.40558   0.71590   0.00000  Uiso   1.00
C490   C     0.50060   0.11653   0.74959   0.00000  Uiso   1.00
C491   C     0.50257   0.38315   0.75074   0.00000  Uiso   1.00
C492   C     0.52609   0.09286   0.71611   0.00000  Uiso   1.00
C493   C     0.53562   0.40698   0.78609   0.00000  Uiso   1.00
C494   C     0.52502   0.04612   0.71678   0.00000  Uiso   1.00
C495   C     0.53285   0.45320   0.78673   0.00000  Uiso   1.00
C496   C     0.49796   0.02407   0.75029   0.00000  Uiso   1.00
C497   C     0.49867   0.47543   0.75164   0.00000  Uiso   1.00
C498   C     0.65861   0.27958   0.68828   0.00000  Uiso   1.00
C499   C     0.47049   0.28136   0.55038   0.00000  Uiso   1.00
C500   C     0.34105   0.21984   0.81133   0.00000  Uiso   1.00
C501   C     0.55255   0.02051   0.68427   0.00000  Uiso   1.00
C502   C     0.56668   0.47780   0.82258   0.00000  Uiso   1.00
C503   C     0.43882   0.31358   0.52247   0.00000  Uiso   1.00
C504   C     0.45478   0.17723   0.96424   0.00000  Uiso   1.00
C505   C     0.47837   0.21427   0.94330   0.00000  Uiso   1.00
C506   C     0.47118   0.28027   0.60146   0.00000  Uiso   1.00
C507   C     0.47887   0.21535   0.89237   0.00000  Uiso   1.00
C508   C     0.52872   0.22010   0.60786   0.00000  Uiso   1.00
C509   C     0.52127   0.28428   0.89853   0.00000  Uiso   1.00
C510   C     0.52883   0.21964   0.55699   0.00000  Uiso   1.00
Cu511  Cu    0.50000   0.25000   0.79821   0.00000  Uiso   1.00
Cu512  Cu    0.50000   0.25001   0.70178   0.00000  Uiso   1.00
H513   H     0.45471   0.11280   0.80838   0.00000  Uiso   1.00
H514   H     0.41393   0.45311   0.65991   0.00000  Uiso   1.00
H515   H     0.56685   0.09661   0.66166   0.00000  Uiso   1.00
H516   H     0.57967   0.35699   0.80722   0.00000  Uiso   1.00
H517   H     0.44386   0.38697   0.68904   0.00000  Uiso   1.00
H518   H     0.44843   0.30367   0.61904   0.00000  Uiso   1.00
H519   H     0.46209   0.18833   0.87005   0.00000  Uiso   1.00
H520   H     0.55173   0.19640   0.63018   0.00000  Uiso   1.00
H521   H     0.53853   0.31147   0.88145   0.00000  Uiso   1.00
H522   H     0.55186   0.19543   0.54089   0.00000  Uiso   1.00
H523   H     0.53821   0.31256   0.97056   0.00000  Uiso   1.00
H524   H     0.44233   0.49686   0.81157   0.00000  Uiso   1.00
N525   N     0.50000   0.25001   0.62934   0.00000  Uiso   1.00
N526   N     0.50000   0.24999   0.87065   0.00000  Uiso   1.00
N527   N     0.64149   0.29830   0.65350   0.00000  Uiso   1.00
N528   N     0.35764   0.20065   0.84593   0.00000  Uiso   1.00
N529   N     0.57450   0.49999   0.65839   0.00000  Uiso   1.00
N530   N     0.59371   0.49750   0.85121   0.00000  Uiso   1.00
N531   N     0.41342   0.33940   0.50005   0.00000  Uiso   1.00
N532   N     0.43585   0.14752   0.98104   0.00000  Uiso   1.00
O533   O     0.50000   0.18573   0.79071   0.00000  Uiso   1.00
O534   O     0.43353   0.47460   0.68223   0.00000  Uiso   1.00
O535   O     0.55270   0.11654   0.68489   0.00000  Uiso   1.00
O536   O     0.57160   0.38658   0.81957   0.00000  Uiso   1.00
O537   O     0.50000   0.31428   0.70928   0.00000  Uiso   1.00
O538   O     0.50000   0.18573   0.70928   0.00000  Uiso   1.00
O539   O     0.50000   0.31427   0.79072   0.00000  Uiso   1.00
O540   O     0.42495   0.25000   0.78132   0.00000  Uiso   1.00
O541   O     0.57505   0.25001   0.71868   0.00000  Uiso   1.00
O542   O     0.42495   0.25000   0.69988   0.00000  Uiso   1.00
O543   O     0.57505   0.25000   0.80011   0.00000  Uiso   1.00
O544   O     0.44464   0.02919   0.81689   0.00000  Uiso   1.00
C545   C     0.83381   0.16490   0.74992   0.00000  Uiso   1.00
C546   C     0.85455   0.28484   0.94941   0.00000  Uiso   1.00
C547   C     0.83297   0.25046   0.52729   0.00000  Uiso   1.00
C548   C     0.83303   0.24965   0.97274   0.00000  Uiso   1.00
C549   C     0.73479   0.25054   0.73782   0.00000  Uiso   1.00
C550   C     0.93186   0.24947   0.76216   0.00000  Uiso   1.00
C551   C     0.68035   0.25607   0.73196   0.00000  Uiso   1.00
C552   C     0.98626   0.24381   0.76793   0.00000  Uiso   1.00
C553   C     0.80557   0.04844   0.78343   0.00000  Uiso   1.00
C554   C     0.79999   0.45178   0.71611   0.00000  Uiso   1.00
C555   C     0.80784   0.09429   0.78295   0.00000  Uiso   1.00
C556   C     0.83444   0.33498   0.75026   0.00000  Uiso   1.00
C557   C     0.80230   0.40558   0.71590   0.00000  Uiso   1.00
C558   C     0.83393   0.11653   0.74959   0.00000  Uiso   1.00
C559   C     0.83590   0.38315   0.75074   0.00000  Uiso   1.00
C560   C     0.85942   0.09286   0.71611   0.00000  Uiso   1.00
C561   C     0.86895   0.40698   0.78609   0.00000  Uiso   1.00
C562   C     0.85836   0.04612   0.71678   0.00000  Uiso   1.00
C563   C     0.86619   0.45320   0.78673   0.00000  Uiso   1.00
C564   C     0.83129   0.02407   0.75029   0.00000  Uiso   1.00
C565   C     0.83200   0.47543   0.75164   0.00000  Uiso   1.00
C566   C     0.99195   0.27958   0.68828   0.00000  Uiso   1.00
C567   C     0.80383   0.28136   0.55038   0.00000  Uiso   1.00
C568   C     0.67438   0.21984   0.81133   0.00000  Uiso   1.00
C569   C     0.88589   0.02051   0.68427   0.00000  Uiso   1.00
C570   C     0.90002   0.47780   0.82258   0.00000  Uiso   1.00
C571   C     0.77215   0.31358   0.52247   0.00000  Uiso   1.00
C572   C     0.78811   0.17723   0.96424   0.00000  Uiso   1.00
C573   C     0.81170   0.21427   0.94330   0.00000  Uiso   1.00
C574   C     0.80452   0.28027   0.60146   0.00000  Uiso   1.00
C575   C     0.81221   0.21535   0.89237   0.00000  Uiso   1.00
C576   C     0.86205   0.22010   0.60786   0.00000  Uiso   1.00
C577   C     0.85461   0.28428   0.89853   0.00000  Uiso   1.00
C578   C     0.86217   0.21964   0.55699   0.00000  Uiso   1.00
Cu579  Cu    0.83333   0.25000   0.79821   0.00000  Uiso   1.00
Cu580  Cu    0.83333   0.25001   0.70178   0.00000  Uiso   1.00
H581   H     0.78804   0.11280   0.80838   0.00000  Uiso   1.00
H582   H     0.74726   0.45311   0.65991   0.00000  Uiso   1.00
H583   H     0.90018   0.09661   0.66166   0.00000  Uiso   1.00
H584   H     0.91300   0.35699   0.80722   0.00000  Uiso   1.00
H585   H     0.77720   0.38697   0.68904   0.00000  Uiso   1.00
H586   H     0.78177   0.30367   0.61904   0.00000  Uiso   1.00
H587   H     0.79542   0.18833   0.87005   0.00000  Uiso   1.00
H588   H     0.88506   0.19640   0.63018   0.00000  Uiso   1.00
H589   H     0.87186   0.31147   0.88145   0.00000  Uiso   1.00
H590   H     0.88519   0.19543   0.54089   0.00000  Uiso   1.00
H591   H     0.87155   0.31256   0.97056   0.00000  Uiso   1.00
H592   H     0.77566   0.49686   0.81157   0.00000  Uiso   1.00
N593   N     0.83333   0.25001   0.62934   0.00000  Uiso   1.00
N594   N     0.83333   0.24999   0.87065   0.00000  Uiso   1.00
N595   N     0.97483   0.29830   0.65350   0.00000  Uiso   1.00
N596   N     0.69097   0.20065   0.84593   0.00000  Uiso   1.00
N597   N     0.90783   0.49999   0.65839   0.00000  Uiso   1.00
N598   N     0.92704   0.49750   0.85121   0.00000  Uiso   1.00
N599   N     0.74675   0.33940   0.50005   0.00000  Uiso   1.00
N600   N     0.76919   0.14752   0.98104   0.00000  Uiso   1.00
O601   O     0.83334   0.18573   0.79071   0.00000  Uiso   1.00
O602   O     0.76686   0.47460   0.68223   0.00000  Uiso   1.00
O603   O     0.88603   0.11654   0.68489   0.00000  Uiso   1.00
O604   O     0.90494   0.38658   0.81957   0.00000  Uiso   1.00
O605   O     0.83333   0.31428   0.70928   0.00000  Uiso   1.00
O606   O     0.83334   0.18573   0.70928   0.00000  Uiso   1.00
O607   O     0.83333   0.31427   0.79072   0.00000  Uiso   1.00
O608   O     0.75828   0.25000   0.78132   0.00000  Uiso   1.00
O609   O     0.90839   0.25001   0.71868   0.00000  Uiso   1.00
O610   O     0.75828   0.25000   0.69988   0.00000  Uiso   1.00
O611   O     0.90839   0.25000   0.80011   0.00000  Uiso   1.00
O612   O     0.77797   0.02919   0.81689   0.00000  Uiso   1.00
C613   C     0.16715   0.66490   0.74992   0.00000  Uiso   1.00
C614   C     0.18788   0.78484   0.94941   0.00000  Uiso   1.00
C615   C     0.16630   0.75046   0.52729   0.00000  Uiso   1.00
C616   C     0.16637   0.74965   0.97274   0.00000  Uiso   1.00
C617   C     0.06813   0.75054   0.73782   0.00000  Uiso   1.00
C618   C     0.26519   0.74947   0.76216   0.00000  Uiso   1.00
C619   C     0.01368   0.75607   0.73196   0.00000  Uiso   1.00
C620   C     0.31960   0.74381   0.76793   0.00000  Uiso   1.00
C621   C     0.13890   0.54844   0.78343   0.00000  Uiso   1.00
C622   C     0.13332   0.95178   0.71611   0.00000  Uiso   1.00
C623   C     0.14118   0.59429   0.78295   0.00000  Uiso   1.00
C624   C     0.16777   0.83498   0.75026   0.00000  Uiso   1.00
C625   C     0.13563   0.90558   0.71590   0.00000  Uiso   1.00
C626   C     0.16726   0.61653   0.74959   0.00000  Uiso   1.00
C627   C     0.16923   0.88315   0.75074   0.00000  Uiso   1.00
C628   C     0.19276   0.59286   0.71611   0.00000  Uiso   1.00
C629   C     0.20229   0.90698   0.78609   0.00000  Uiso   1.00
C630   C     0.19169   0.54612   0.71678   0.00000  Uiso   1.00
C631   C     0.19952   0.95320   0.78673   0.00000  Uiso   1.00
C632   C     0.16462   0.52407   0.75029   0.00000  Uiso   1.00
C633   C     0.16534   0.97543   0.75164   0.00000  Uiso   1.00
C634   C     0.32528   0.77958   0.68828   0.00000  Uiso   1.00
C635   C     0.13716   0.78136   0.55038   0.00000  Uiso   1.00
C636   C     0.00772   0.71984   0.81133   0.00000  Uiso   1.00
C637   C     0.21922   0.52051   0.68427   0.00000  Uiso   1.00
C638   C     0.23335   0.97780   0.82258   0.00000  Uiso   1.00
C639   C     0.10549   0.81358   0.52247   0.00000  Uiso   1.00
C640   C     0.12145   0.67723   0.96424   0.00000  Uiso   1.00
C641   C     0.14504   0.71427   0.94330   0.00000  Uiso   1.00
C642   C     0.13785   0.78027   0.60146   0.00000  Uiso   1.00
C643   C     0.14554   0.71535   0.89237   0.00000  Uiso   1.00
C644   C     0.19538   0.72010   0.60786   0.00000  Uiso   1.00
C645   C     0.18794   0.78428   0.89853   0.00000  Uiso   1.00
C646   C     0.19550   0.71964   0.55699   0.00000  Uiso   1.00
Cu647  Cu    0.16667   0.75000   0.79821   0.00000  Uiso   1.00
Cu648  Cu    0.16667   0.75001   0.70178   0.00000  Uiso   1.00
H649   H     0.12138   0.61280   0.80838   0.00000  Uiso   1.00
H650   H     0.08060   0.95311   0.65991   0.00000  Uiso   1.00
H651   H     0.23352   0.59661   0.66166   0.00000  Uiso   1.00
H652   H     0.24634   0.85699   0.80722   0.00000  Uiso   1.00
H653   H     0.11053   0.88697   0.68904   0.00000  Uiso   1.00
H654   H     0.11510   0.80367   0.61904   0.00000  Uiso   1.00
H655   H     0.12875   0.68833   0.87005   0.00000  Uiso   1.00
H656   H     0.21840   0.69640   0.63018   0.00000  Uiso   1.00
H657   H     0.20520   0.81147   0.88145   0.00000  Uiso   1.00
H658   H     0.21852   0.69543   0.54089   0.00000  Uiso   1.00
H659   H     0.20488   0.81256   0.97056   0.00000  Uiso   1.00
H660   H     0.10900   0.99686   0.81157   0.00000  Uiso   1.00
N661   N     0.16667   0.75001   0.62934   0.00000  Uiso   1.00
N662   N     0.16667   0.74999   0.87065   0.00000  Uiso   1.00
N663   N     0.30816   0.79830   0.65350   0.00000  Uiso   1.00
N664   N     0.02430   0.70065   0.84593   0.00000  Uiso   1.00
N665   N     0.24117   0.99999   0.65839   0.00000  Uiso   1.00
N666   N     0.26037   0.99750   0.85121   0.00000  Uiso   1.00
N667   N     0.08008   0.83940   0.50005   0.00000  Uiso   1.00
N668   N     0.10252   0.64752   0.98104   0.00000  Uiso   1.00
O669   O     0.16667   0.68573   0.79071   0.00000  Uiso   1.00
O670   O     0.10019   0.97460   0.68223   0.00000  Uiso   1.00
O671   O     0.21937   0.61654   0.68489   0.00000  Uiso   1.00
O672   O     0.23827   0.88658   0.81957   0.00000  Uiso   1.00
O673   O     0.16666   0.81428   0.70928   0.00000  Uiso   1.00
O674   O     0.16667   0.68573   0.70928   0.00000  Uiso   1.00
O675   O     0.16666   0.81427   0.79072   0.00000  Uiso   1.00
O676   O     0.09161   0.75000   0.78132   0.00000  Uiso   1.00
O677   O     0.24172   0.75001   0.71868   0.00000  Uiso   1.00
O678   O     0.09161   0.75000   0.69988   0.00000  Uiso   1.00
O679   O     0.24172   0.75000   0.80011   0.00000  Uiso   1.00
O680   O     0.11131   0.52919   0.81689   0.00000  Uiso   1.00
C681   C     0.50048   0.66490   0.74992   0.00000  Uiso   1.00
C682   C     0.52122   0.78484   0.94941   0.00000  Uiso   1.00
C683   C     0.49963   0.75046   0.52729   0.00000  Uiso   1.00
C684   C     0.49970   0.74965   0.97274   0.00000  Uiso   1.00
C685   C     0.40146   0.75054   0.73782   0.00000  Uiso   1.00
C686   C     0.59853   0.74947   0.76216   0.00000  Uiso   1.00
C687   C     0.34702   0.75607   0.73196   0.00000  Uiso   1.00
C688   C     0.65293   0.74381   0.76793   0.00000  Uiso   1.00
C689   C     0.47223   0.54844   0.78343   0.00000  Uiso   1.00
C690   C     0.46665   0.95178   0.71611   0.00000  Uiso   1.00
C691   C     0.47451   0.59429   0.78295   0.00000  Uiso   1.00
C692   C     0.50111   0.83498   0.75026   0.00000  Uiso   1.00
C693   C     0.46897   0.90558   0.71590   0.00000  Uiso   1.00
C694   C     0.50060   0.61653   0.74959   0.00000  Uiso   1.00
C695   C     0.50257   0.88315   0.75074   0.00000  Uiso   1.00
C696   C     0.52609   0.59286   0.71611   0.00000  Uiso   1.00
C697   C     0.53562   0.90698   0.78609   0.00000  Uiso   1.00
C698   C     0.52502   0.54612   0.71678   0.00000  Uiso   1.00
C699   C     0.53285   0.95320   0.78673   0.00000  Uiso   1.00
C700   C     0.49796   0.52407   0.75029   0.00000  Uiso   1.00
C701   C     0.49867   0.97543   0.75164   0.00000  Uiso   1.00
C702   C     0.65861   0.77958   0.68828   0.00000  Uiso   1.00
C703   C     0.47049   0.78136   0.55038   0.00000  Uiso   1.00
C704   C     0.34105   0.71984   0.81133   0.00000  Uiso   1.00
C705   C     0.55255   0.52051   0.68427   0.00000  Uiso   1.00
C706   C     0.56668   0.97780   0.82258   0.00000  Uiso   1.00
C707   C     0.43882   0.81358   0.52247   0.00000  Uiso   1.00
C708   C     0.45478   0.67723   0.96424   0.00000  Uiso   1.00
C709   C     0.47837   0.71427   0.94330   0.00000  Uiso   1.00
C710   C     0.47118   0.78027   0.60146   0.00000  Uiso   1.00
C711   C     0.47887   0.71535   0.89237   0.00000  Uiso   1.00
C712   C     0.52872   0.72010   0.60786   0.00000  Uiso   1.00
C713   C     0.52127   0.78428   0.89853   0.00000  Uiso   1.00
C714   C     0.52883   0.71964   0.55699   0.00000  Uiso   1.00
Cu715  Cu    0.50000   0.75000   0.79821   0.00000  Uiso   1.00
Cu716  Cu    0.50000   0.75001   0.70178   0.00000  Uiso   1.00
H717   H     0.45471   0.61280   0.80838   0.00000  Uiso   1.00
H718   H     0.41393   0.95311   0.65991   0.00000  Uiso   1.00
H719   H     0.56685   0.59661   0.66166   0.00000  Uiso   1.00
H720   H     0.57967   0.85699   0.80722   0.00000  Uiso   1.00
H721   H     0.44386   0.88697   0.68904   0.00000  Uiso   1.00
H722   H     0.44843   0.80367   0.61904   0.00000  Uiso   1.00
H723   H     0.46209   0.68833   0.87005   0.00000  Uiso   1.00
H724   H     0.55173   0.69640   0.63018   0.00000  Uiso   1.00
H725   H     0.53853   0.81147   0.88145   0.00000  Uiso   1.00
H726   H     0.55186   0.69543   0.54089   0.00000  Uiso   1.00
H727   H     0.53821   0.81256   0.97056   0.00000  Uiso   1.00
H728   H     0.44233   0.99686   0.81157   0.00000  Uiso   1.00
N729   N     0.50000   0.75001   0.62934   0.00000  Uiso   1.00
N730   N     0.50000   0.74999   0.87065   0.00000  Uiso   1.00
N731   N     0.64149   0.79830   0.65350   0.00000  Uiso   1.00
N732   N     0.35764   0.70065   0.84593   0.00000  Uiso   1.00
N733   N     0.57450   0.99999   0.65839   0.00000  Uiso   1.00
N734   N     0.59371   0.99750   0.85121   0.00000  Uiso   1.00
N735   N     0.41342   0.83940   0.50005   0.00000  Uiso   1.00
N736   N     0.43585   0.64752   0.98104   0.00000  Uiso   1.00
O737   O     0.50000   0.68573   0.79071   0.00000  Uiso   1.00
O738   O     0.43353   0.97460   0.68223   0.00000  Uiso   1.00
O739   O     0.55270   0.61654   0.68489   0.00000  Uiso   1.00
O740   O     0.57160   0.88658   0.81957   0.00000  Uiso   1.00
O741   O     0.50000   0.81428   0.70928   0.00000  Uiso   1.00
O742   O     0.50000   0.68573   0.70928   0.00000  Uiso   1.00
O743   O     0.50000   0.81427   0.79072   0.00000  Uiso   1.00
O744   O     0.42495   0.75000   0.78132   0.00000  Uiso   1.00
O745   O     0.57505   0.75001   0.71868   0.00000  Uiso   1.00
O746   O     0.42495   0.75000   0.69988   0.00000  Uiso   1.00
O747   O     0.57505   0.75000   0.80011   0.00000  Uiso   1.00
O748   O     0.44464   0.52919   0.81689   0.00000  Uiso   1.00
C749   C     0.83381   0.66490   0.74992   0.00000  Uiso   1.00
C750   C     0.85455   0.78484   0.94941   0.00000  Uiso   1.00
C751   C     0.83297   0.75046   0.52729   0.00000  Uiso   1.00
C752   C     0.83303   0.74965   0.97274   0.00000  Uiso   1.00
C753   C     0.73479   0.75054   0.73782   0.00000  Uiso   1.00
C754   C     0.93186   0.74947   0.76216   0.00000  Uiso   1.00
C755   C     0.68035   0.75607   0.73196   0.00000  Uiso   1.00
C756   C     0.98626   0.74381   0.76793   0.00000  Uiso   1.00
C757   C     0.80557   0.54844   0.78343   0.00000  Uiso   1.00
C758   C     0.79999   0.95178   0.71611   0.00000  Uiso   1.00
C759   C     0.80784   0.59429   0.78295   0.00000  Uiso   1.00
C760   C     0.83444   0.83498   0.75026   0.00000  Uiso   1.00
C761   C     0.80230   0.90558   0.71590   0.00000  Uiso   1.00
C762   C     0.83393   0.61653   0.74959   0.00000  Uiso   1.00
C763   C     0.83590   0.88315   0.75074   0.00000  Uiso   1.00
C764   C     0.85942   0.59286   0.71611   0.00000  Uiso   1.00
C765   C     0.86895   0.90698   0.78609   0.00000  Uiso   1.00
C766   C     0.85836   0.54612   0.71678   0.00000  Uiso   1.00
C767   C     0.86619   0.95320   0.78673   0.00000  Uiso   1.00
C768   C     0.83129   0.52407   0.75029   0.00000  Uiso   1.00
C769   C     0.83200   0.97543   0.75164   0.00000  Uiso   1.00
C770   C     0.99195   0.77958   0.68828   0.00000  Uiso   1.00
C771   C     0.80383   0.78136   0.55038   0.00000  Uiso   1.00
C772   C     0.67438   0.71984   0.81133   0.00000  Uiso   1.00
C773   C     0.88589   0.52051   0.68427   0.00000  Uiso   1.00
C774   C     0.90002   0.97780   0.82258   0.00000  Uiso   1.00
C775   C     0.77215   0.81358   0.52247   0.00000  Uiso   1.00
C776   C     0.78811   0.67723   0.96424   0.00000  Uiso   1.00
C777   C     0.81170   0.71427   0.94330   0.00000  Uiso   1.00
C778   C     0.80452   0.78027   0.60146   0.00000  Uiso   1.00
C779   C     0.81221   0.71535   0.89237   0.00000  Uiso   1.00
C780   C     0.86205   0.72010   0.60786   0.00000  Uiso   1.00
C781   C     0.85461   0.78428   0.89853   0.00000  Uiso   1.00
C782   C     0.86217   0.71964   0.55699   0.00000  Uiso   1.00
Cu783  Cu    0.83333   0.75000   0.79821   0.00000  Uiso   1.00
Cu784  Cu    0.83333   0.75001   0.70178   0.00000  Uiso   1.00
H785   H     0.78804   0.61280   0.80838   0.00000  Uiso   1.00
H786   H     0.74726   0.95311   0.65991   0.00000  Uiso   1.00
H787   H     0.90018   0.59661   0.66166   0.00000  Uiso   1.00
H788   H     0.91300   0.85699   0.80722   0.00000  Uiso   1.00
H789   H     0.77720   0.88697   0.68904   0.00000  Uiso   1.00
H790   H     0.78177   0.80367   0.61904   0.00000  Uiso   1.00
H791   H     0.79542   0.68833   0.87005   0.00000  Uiso   1.00
H792   H     0.88506   0.69640   0.63018   0.00000  Uiso   1.00
H793   H     0.87186   0.81147   0.88145   0.00000  Uiso   1.00
H794   H     0.88519   0.69543   0.54089   0.00000  Uiso   1.00
H795   H     0.87155   0.81256   0.97056   0.00000  Uiso   1.00
H796   H     0.77566   0.99686   0.81157   0.00000  Uiso   1.00
N797   N     0.83333   0.75001   0.62934   0.00000  Uiso   1.00
N798   N     0.83333   0.74999   0.87065   0.00000  Uiso   1.00
N799   N     0.97483   0.79830   0.65350   0.00000  Uiso   1.00
N800   N     0.69097   0.70065   0.84593   0.00000  Uiso   1.00
N801   N     0.90783   0.99999   0.65839   0.00000  Uiso   1.00
N802   N     0.92704   0.99750   0.85121   0.00000  Uiso   1.00
N803   N     0.74675   0.83940   0.50005   0.00000  Uiso   1.00
N804   N     0.76919   0.64752   0.98104   0.00000  Uiso   1.00
O805   O     0.83334   0.68573   0.79071   0.00000  Uiso   1.00
O806   O     0.76686   0.97460   0.68223   0.00000  Uiso   1.00
O807   O     0.88603   0.61654   0.68489   0.00000  Uiso   1.00
O808   O     0.90494   0.88658   0.81957   0.00000  Uiso   1.00
O809   O     0.83333   0.81428   0.70928   0.00000  Uiso   1.00
O810   O     0.83334   0.68573   0.70928   0.00000  Uiso   1.00
O811   O     0.83333   0.81427   0.79072   0.00000  Uiso   1.00
O812   O     0.75828   0.75000   0.78132   0.00000  Uiso   1.00
O813   O     0.90839   0.75001   0.71868   0.00000  Uiso   1.00
O814   O     0.75828   0.75000   0.69988   0.00000  Uiso   1.00
O815   O     0.90839   0.75000   0.80011   0.00000  Uiso   1.00
O816   O     0.77797   0.52919   0.81689   0.00000  Uiso   1.00
loop_
_geom_bond_atom_site_label_1
_geom_bond_atom_site_label_2
_geom_bond_distance
_geom_bond_site_symmetry_2
_ccdc_geom_bond_type
C1     O62     1.290   .     A
C1     O57     1.291   .     A
C1     C14     1.462   .     S
C2     C4      1.406   .     A
C2     H47     1.083   .     S
C2     C33     1.408   .     A
C3     C23     1.414   .     A
C3     C34     1.406   .     A
C3     C412    1.510   1_554 S
C4     C29     1.413   .     A
C4     C411    1.510   .     S
C5     C7      1.437   .     S
C5     O64     1.279   .     A
C5     O66     1.288   .     A
C6     O67     1.289   .     A
C6     C8      1.437   .     S
C6     O65     1.279   .     A
C7     C144    1.360   1_455 S
C7     C158    1.456   1_455 S
C8     C75     1.360   .     S
C8     C92     1.455   .     S
C9     C20     1.416   .     A
C9     O68     1.383   .     S
C9     C11     1.388   .     A
C10    C21     1.403   .     A
C10    O58     1.382   .     S
C10    C13     1.398   .     A
C11    C14     1.398   .     A
C11    H37     1.084   .     S
C12    C15     1.457   .     S
C12    O63     1.289   .     A
C12    O61     1.289   .     A
C13    H41     1.084   .     S
C13    C15     1.399   .     A
C14    C16     1.408   .     A
C15    C17     1.417   .     A
C16    C18     1.414   .     A
C16    O59     1.386   .     S
C17    O60     1.384   .     S
C17    C19     1.400   .     A
C18    C25     1.451   .     S
C18    C20     1.413   .     A
C19    C21     1.409   .     A
C19    C26     1.448   .     S
C20    C225    1.471   1_545 S
C21    C224    1.471   .     S
C22    N51     1.158   .     T
C22    C75     1.456   .     S
C23    C27     1.443   .     S
C23    C30     1.412   .     A
C24    N52     1.157   .     T
C24    C144    1.455   1_455 S
C25    N257    1.157   1_545 S
C26    N54     1.157   .     T
C27    N55     1.157   .     T
C28    N56     1.157   .     T
C28    C29     1.443   .     S
C29    C31     1.411   .     A
C30    N49     1.365   .     A
C30    H42     1.083   .     S
C31    H43     1.081   .     S
C31    N50     1.366   .     A
C32    H44     1.081   .     S
C32    N49     1.364   .     A
C32    C34     1.408   .     A
C33    H45     1.081   .     S
C33    N50     1.365   .     A
C34    H46     1.083   .     S
Cu35   O64     1.978   .     S
Cu35   Cu36    2.668   .     S
Cu35   O67     1.979   .     S
Cu35   O57     1.953   .     S
Cu35   N50     2.004   .     S
Cu35   O63     1.955   .     S
Cu36   O65     1.978   .     S
Cu36   O66     1.979   .     S
Cu36   N49     2.004   .     S
Cu36   O61     1.953   .     S
Cu36   O62     1.955   .     S
H38    O58     0.992   .     S
H39    O59     0.988   .     S
H40    O60     0.989   .     S
H48    O272    0.988   .     S
N53    C229    1.157   .     S
O68    H252    0.988   1_545 S
C69    O130    1.290   .     A
C69    O125    1.291   .     A
C69    C82     1.462   .     S
C70    C72     1.406   .     A
C70    H115    1.083   .     S
C70    C101    1.408   .     A
C71    C91     1.414   .     A
C71    C102    1.406   .     A
C71    C480    1.510   1_554 S
C72    C97     1.413   .     A
C72    C479    1.510   .     S
C73    C75     1.437   .     S
C73    O132    1.279   .     A
C73    O134    1.288   .     A
C74    O135    1.289   .     A
C74    C76     1.437   .     S
C74    O133    1.279   .     A
C76    C143    1.360   .     S
C76    C160    1.455   .     S
C77    C88     1.416   .     A
C77    O136    1.383   .     S
C77    C79     1.388   .     A
C78    C89     1.403   .     A
C78    O126    1.382   .     S
C78    C81     1.398   .     A
C79    C82     1.398   .     A
C79    H105    1.084   .     S
C80    C83     1.457   .     S
C80    O131    1.289   .     A
C80    O129    1.289   .     A
C81    H109    1.084   .     S
C81    C83     1.399   .     A
C82    C84     1.408   .     A
C83    C85     1.417   .     A
C84    C86     1.414   .     A
C84    O127    1.386   .     S
C85    O128    1.384   .     S
C85    C87     1.400   .     A
C86    C93     1.451   .     S
C86    C88     1.413   .     A
C87    C89     1.409   .     A
C87    C94     1.448   .     S
C88    C293    1.471   1_545 S
C89    C292    1.471   .     S
C90    N119    1.158   .     T
C90    C143    1.456   .     S
C91    C95     1.443   .     S
C91    C98     1.412   .     A
C92    N120    1.157   .     T
C93    N325    1.157   1_545 S
C94    N122    1.157   .     T
C95    N123    1.157   .     T
C96    N124    1.157   .     T
C96    C97     1.443   .     S
C97    C99     1.411   .     A
C98    N117    1.365   .     A
C98    H110    1.083   .     S
C99    H111    1.081   .     S
C99    N118    1.366   .     A
C100   H112    1.081   .     S
C100   N117    1.364   .     A
C100   C102    1.408   .     A
C101   H113    1.081   .     S
C101   N118    1.365   .     A
C102   H114    1.083   .     S
Cu103  O132    1.978   .     S
Cu103  Cu104   2.668   .     S
Cu103  O135    1.979   .     S
Cu103  O125    1.953   .     S
Cu103  N118    2.004   .     S
Cu103  O131    1.955   .     S
Cu104  O133    1.978   .     S
Cu104  O134    1.979   .     S
Cu104  N117    2.004   .     S
Cu104  O129    1.953   .     S
Cu104  O130    1.955   .     S
H106   O126    0.992   .     S
H107   O127    0.988   .     S
H108   O128    0.989   .     S
H116   O340    0.988   .     S
N121   C297    1.157   .     S
O136   H320    0.988   1_545 S
C137   O198    1.290   .     A
C137   O193    1.291   .     A
C137   C150    1.462   .     S
C138   C140    1.406   .     A
C138   H183    1.083   .     S
C138   C169    1.408   .     A
C139   C159    1.414   .     A
C139   C170    1.406   .     A
C139   C548    1.510   1_554 S
C140   C165    1.413   .     A
C140   C547    1.510   .     S
C141   C143    1.437   .     S
C141   O200    1.279   .     A
C141   O202    1.288   .     A
C142   O203    1.289   .     A
C142   C144    1.437   .     S
C142   O201    1.279   .     A
C144   C7      1.360   1_655 S
C144   C24     1.455   1_655 S
C145   C156    1.416   .     A
C145   O204    1.383   .     S
C145   C147    1.388   .     A
C146   C157    1.403   .     A
C146   O194    1.382   .     S
C146   C149    1.398   .     A
C147   C150    1.398   .     A
C147   H173    1.084   .     S
C148   C151    1.457   .     S
C148   O199    1.289   .     A
C148   O197    1.289   .     A
C149   H177    1.084   .     S
C149   C151    1.399   .     A
C150   C152    1.408   .     A
C151   C153    1.417   .     A
C152   C154    1.414   .     A
C152   O195    1.386   .     S
C153   O196    1.384   .     S
C153   C155    1.400   .     A
C154   C161    1.451   .     S
C154   C156    1.413   .     A
C155   C157    1.409   .     A
C155   C162    1.448   .     S
C156   C361    1.471   1_545 S
C157   C360    1.471   .     S
C158   N187    1.158   .     T
C158   C7      1.456   1_655 S
C159   C163    1.443   .     S
C159   C166    1.412   .     A
C160   N188    1.157   .     T
C161   N393    1.157   1_545 S
C162   N190    1.157   .     T
C163   N191    1.157   .     T
C164   N192    1.157   .     T
C164   C165    1.443   .     S
C165   C167    1.411   .     A
C166   N185    1.365   .     A
C166   H178    1.083   .     S
C167   H179    1.081   .     S
C167   N186    1.366   .     A
C168   H180    1.081   .     S
C168   N185    1.364   .     A
C168   C170    1.408   .     A
C169   H181    1.081   .     S
C169   N186    1.365   .     A
C170   H182    1.083   .     S
Cu171  O200    1.978   .     S
Cu171  Cu172   2.668   .     S
Cu171  O203    1.979   .     S
Cu171  O193    1.953   .     S
Cu171  N186    2.004   .     S
Cu171  O199    1.955   .     S
Cu172  O201    1.978   .     S
Cu172  O202    1.979   .     S
Cu172  N185    2.004   .     S
Cu172  O197    1.953   .     S
Cu172  O198    1.955   .     S
H174   O194    0.992   .     S
H175   O195    0.988   .     S
H176   O196    0.989   .     S
H184   O408    0.988   .     S
N189   C365    1.157   .     S
O204   H388    0.988   1_545 S
C205   O266    1.290   .     A
C205   O261    1.291   .     A
C205   C218    1.462   .     S
C206   C208    1.406   .     A
C206   H251    1.083   .     S
C206   C237    1.408   .     A
C207   C227    1.414   .     A
C207   C238    1.406   .     A
C207   C616    1.510   1_554 S
C208   C233    1.413   .     A
C208   C615    1.510   .     S
C209   C211    1.437   .     S
C209   O268    1.279   .     A
C209   O270    1.288   .     A
C210   O271    1.289   .     A
C210   C212    1.437   .     S
C210   O269    1.279   .     A
C211   C348    1.360   1_455 S
C211   C362    1.456   1_455 S
C212   C279    1.360   .     S
C212   C296    1.455   .     S
C213   C224    1.416   .     A
C213   O272    1.383   .     S
C213   C215    1.388   .     A
C214   C225    1.403   .     A
C214   O262    1.382   .     S
C214   C217    1.398   .     A
C215   C218    1.398   .     A
C215   H241    1.084   .     S
C216   C219    1.457   .     S
C216   O267    1.289   .     A
C216   O265    1.289   .     A
C217   H245    1.084   .     S
C217   C219    1.399   .     A
C218   C220    1.408   .     A
C219   C221    1.417   .     A
C220   C222    1.414   .     A
C220   O263    1.386   .     S
C221   O264    1.384   .     S
C221   C223    1.400   .     A
C222   C229    1.451   .     S
C222   C224    1.413   .     A
C223   C225    1.409   .     A
C223   C230    1.448   .     S
C225   C20     1.471   1_565 S
C226   N255    1.158   .     T
C226   C279    1.456   .     S
C227   C231    1.443   .     S
C227   C234    1.412   .     A
C228   N256    1.157   .     T
C228   C348    1.455   1_455 S
C230   N258    1.157   .     T
C231   N259    1.157   .     T
C232   N260    1.157   .     T
C232   C233    1.443   .     S
C233   C235    1.411   .     A
C234   N253    1.365   .     A
C234   H246    1.083   .     S
C235   H247    1.081   .     S
C235   N254    1.366   .     A
C236   H248    1.081   .     S
C236   N253    1.364   .     A
C236   C238    1.408   .     A
C237   H249    1.081   .     S
C237   N254    1.365   .     A
C238   H250    1.083   .     S
Cu239  O268    1.978   .     S
Cu239  Cu240   2.668   .     S
Cu239  O271    1.979   .     S
Cu239  O261    1.953   .     S
Cu239  N254    2.004   .     S
Cu239  O267    1.955   .     S
Cu240  O269    1.978   .     S
Cu240  O270    1.979   .     S
Cu240  N253    2.004   .     S
Cu240  O265    1.953   .     S
Cu240  O266    1.955   .     S
H242   O262    0.992   .     S
H243   O263    0.988   .     S
H244   O264    0.989   .     S
H252   O68     0.988   1_565 S
N257   C25     1.157   1_565 S
C273   O334    1.290   .     A
C273   O329    1.291   .     A
C273   C286    1.462   .     S
C274   C276    1.406   .     A
C274   H319    1.083   .     S
C274   C305    1.408   .     A
C275   C295    1.414   .     A
C275   C306    1.406   .     A
C275   C684    1.510   1_554 S
C276   C301    1.413   .     A
C276   C683    1.510   .     S
C277   C279    1.437   .     S
C277   O336    1.279   .     A
C277   O338    1.288   .     A
C278   O339    1.289   .     A
C278   C280    1.437   .     S
C278   O337    1.279   .     A
C280   C347    1.360   .     S
C280   C364    1.455   .     S
C281   C292    1.416   .     A
C281   O340    1.383   .     S
C281   C283    1.388   .     A
C282   C293    1.403   .     A
C282   O330    1.382   .     S
C282   C285    1.398   .     A
C283   C286    1.398   .     A
C283   H309    1.084   .     S
C284   C287    1.457   .     S
C284   O335    1.289   .     A
C284   O333    1.289   .     A
C285   H313    1.084   .     S
C285   C287    1.399   .     A
C286   C288    1.408   .     A
C287   C289    1.417   .     A
C288   C290    1.414   .     A
C288   O331    1.386   .     S
C289   O332    1.384   .     S
C289   C291    1.400   .     A
C290   C297    1.451   .     S
C290   C292    1.413   .     A
C291   C293    1.409   .     A
C291   C298    1.448   .     S
C293   C88     1.471   1_565 S
C294   N323    1.158   .     T
C294   C347    1.456   .     S
C295   C299    1.443   .     S
C295   C302    1.412   .     A
C296   N324    1.157   .     T
C298   N326    1.157   .     T
C299   N327    1.157   .     T
C300   N328    1.157   .     T
C300   C301    1.443   .     S
C301   C303    1.411   .     A
C302   N321    1.365   .     A
C302   H314    1.083   .     S
C303   H315    1.081   .     S
C303   N322    1.366   .     A
C304   H316    1.081   .     S
C304   N321    1.364   .     A
C304   C306    1.408   .     A
C305   H317    1.081   .     S
C305   N322    1.365   .     A
C306   H318    1.083   .     S
Cu307  O336    1.978   .     S
Cu307  Cu308   2.668   .     S
Cu307  O339    1.979   .     S
Cu307  O329    1.953   .     S
Cu307  N322    2.004   .     S
Cu307  O335    1.955   .     S
Cu308  O337    1.978   .     S
Cu308  O338    1.979   .     S
Cu308  N321    2.004   .     S
Cu308  O333    1.953   .     S
Cu308  O334    1.955   .     S
H310   O330    0.992   .     S
H311   O331    0.988   .     S
H312   O332    0.989   .     S
H320   O136    0.988   1_565 S
N325   C93     1.157   1_565 S
C341   O402    1.290   .     A
C341   O397    1.291   .     A
C341   C354    1.462   .     S
C342   C344    1.406   .     A
C342   H387    1.083   .     S
C342   C373    1.408   .     A
C343   C363    1.414   .     A
C343   C374    1.406   .     A
C343   C752    1.510   1_554 S
C344   C369    1.413   .     A
C344   C751    1.510   .     S
C345   C347    1.437   .     S
C345   O404    1.279   .     A
C345   O406    1.288   .     A
C346   O407    1.289   .     A
C346   C348    1.437   .     S
C346   O405    1.279   .     A
C348   C211    1.360   1_655 S
C348   C228    1.455   1_655 S
C349   C360    1.416   .     A
C349   O408    1.383   .     S
C349   C351    1.388   .     A
C350   C361    1.403   .     A
C350   O398    1.382   .     S
C350   C353    1.398   .     A
C351   C354    1.398   .     A
C351   H377    1.084   .     S
C352   C355    1.457   .     S
C352   O403    1.289   .     A
C352   O401    1.289   .     A
C353   H381    1.084   .     S
C353   C355    1.399   .     A
C354   C356    1.408   .     A
C355   C357    1.417   .     A
C356   C358    1.414   .     A
C356   O399    1.386   .     S
C357   O400    1.384   .     S
C357   C359    1.400   .     A
C358   C365    1.451   .     S
C358   C360    1.413   .     A
C359   C361    1.409   .     A
C359   C366    1.448   .     S
C361   C156    1.471   1_565 S
C362   N391    1.158   .     T
C362   C211    1.456   1_655 S
C363   C367    1.443   .     S
C363   C370    1.412   .     A
C364   N392    1.157   .     T
C366   N394    1.157   .     T
C367   N395    1.157   .     T
C368   N396    1.157   .     T
C368   C369    1.443   .     S
C369   C371    1.411   .     A
C370   N389    1.365   .     A
C370   H382    1.083   .     S
C371   H383    1.081   .     S
C371   N390    1.366   .     A
C372   H384    1.081   .     S
C372   N389    1.364   .     A
C372   C374    1.408   .     A
C373   H385    1.081   .     S
C373   N390    1.365   .     A
C374   H386    1.083   .     S
Cu375  O404    1.978   .     S
Cu375  Cu376   2.668   .     S
Cu375  O407    1.979   .     S
Cu375  O397    1.953   .     S
Cu375  N390    2.004   .     S
Cu375  O403    1.955   .     S
Cu376  O405    1.978   .     S
Cu376  O406    1.979   .     S
Cu376  N389    2.004   .     S
Cu376  O401    1.953   .     S
Cu376  O402    1.955   .     S
H378   O398    0.992   .     S
H379   O399    0.988   .     S
H380   O400    0.989   .     S
H388   O204    0.988   1_565 S
N393   C161    1.157   1_565 S
C409   O470    1.290   .     A
C409   O465    1.291   .     A
C409   C422    1.462   .     S
C410   C412    1.406   .     A
C410   H455    1.083   .     S
C410   C441    1.408   .     A
C411   C431    1.414   .     A
C411   C442    1.406   .     A
C412   C437    1.413   .     A
C412   C3      1.510   1_556 S
C413   C415    1.437   .     S
C413   O472    1.279   .     A
C413   O474    1.288   .     A
C414   O475    1.289   .     A
C414   C416    1.437   .     S
C414   O473    1.279   .     A
C415   C552    1.360   1_455 S
C415   C566    1.456   1_455 S
C416   C483    1.360   .     S
C416   C500    1.455   .     S
C417   C428    1.416   .     A
C417   O476    1.383   .     S
C417   C419    1.388   .     A
C418   C429    1.403   .     A
C418   O466    1.382   .     S
C418   C421    1.398   .     A
C419   C422    1.398   .     A
C419   H445    1.084   .     S
C420   C423    1.457   .     S
C420   O471    1.289   .     A
C420   O469    1.289   .     A
C421   H449    1.084   .     S
C421   C423    1.399   .     A
C422   C424    1.408   .     A
C423   C425    1.417   .     A
C424   C426    1.414   .     A
C424   O467    1.386   .     S
C425   O468    1.384   .     S
C425   C427    1.400   .     A
C426   C433    1.451   .     S
C426   C428    1.413   .     A
C427   C429    1.409   .     A
C427   C434    1.448   .     S
C428   C633    1.471   1_545 S
C429   C632    1.471   .     S
C430   N459    1.158   .     T
C430   C483    1.456   .     S
C431   C435    1.443   .     S
C431   C438    1.412   .     A
C432   N460    1.157   .     T
C432   C552    1.455   1_455 S
C433   N665    1.157   1_545 S
C434   N462    1.157   .     T
C435   N463    1.157   .     T
C436   N464    1.157   .     T
C436   C437    1.443   .     S
C437   C439    1.411   .     A
C438   N457    1.365   .     A
C438   H450    1.083   .     S
C439   H451    1.081   .     S
C439   N458    1.366   .     A
C440   H452    1.081   .     S
C440   N457    1.364   .     A
C440   C442    1.408   .     A
C441   H453    1.081   .     S
C441   N458    1.365   .     A
C442   H454    1.083   .     S
Cu443  O472    1.978   .     S
Cu443  Cu444   2.668   .     S
Cu443  O475    1.979   .     S
Cu443  O465    1.953   .     S
Cu443  N458    2.004   .     S
Cu443  O471    1.955   .     S
Cu444  O473    1.978   .     S
Cu444  O474    1.979   .     S
Cu444  N457    2.004   .     S
Cu444  O469    1.953   .     S
Cu444  O470    1.955   .     S
H446   O466    0.992   .     S
H447   O467    0.988   .     S
H448   O468    0.989   .     S
H456   O680    0.988   .     S
N461   C637    1.157   .     S
O476   H660    0.988   1_545 S
C477   O538    1.290   .     A
C477   O533    1.291   .     A
C477   C490    1.462   .     S
C478   C480    1.406   .     A
C478   H523    1.083   .     S
C478   C509    1.408   .     A
C479   C499    1.414   .     A
C479   C510    1.406   .     A
C480   C505    1.413   .     A
C480   C71     1.510   1_556 S
C481   C483    1.437   .     S
C481   O540    1.279   .     A
C481   O542    1.288   .     A
C482   O543    1.289   .     A
C482   C484    1.437   .     S
C482   O541    1.279   .     A
C484   C551    1.360   .     S
C484   C568    1.455   .     S
C485   C496    1.416   .     A
C485   O544    1.383   .     S
C485   C487    1.388   .     A
C486   C497    1.403   .     A
C486   O534    1.382   .     S
C486   C489    1.398   .     A
C487   C490    1.398   .     A
C487   H513    1.084   .     S
C488   C491    1.457   .     S
C488   O539    1.289   .     A
C488   O537    1.289   .     A
C489   H517    1.084   .     S
C489   C491    1.399   .     A
C490   C492    1.408   .     A
C491   C493    1.417   .     A
C492   C494    1.414   .     A
C492   O535    1.386   .     S
C493   O536    1.384   .     S
C493   C495    1.400   .     A
C494   C501    1.451   .     S
C494   C496    1.413   .     A
C495   C497    1.409   .     A
C495   C502    1.448   .     S
C496   C701    1.471   1_545 S
C497   C700    1.471   .     S
C498   N527    1.158   .     T
C498   C551    1.456   .     S
C499   C503    1.443   .     S
C499   C506    1.412   .     A
C500   N528    1.157   .     T
C501   N733    1.157   1_545 S
C502   N530    1.157   .     T
C503   N531    1.157   .     T
C504   N532    1.157   .     T
C504   C505    1.443   .     S
C505   C507    1.411   .     A
C506   N525    1.365   .     A
C506   H518    1.083   .     S
C507   H519    1.081   .     S
C507   N526    1.366   .     A
C508   H520    1.081   .     S
C508   N525    1.364   .     A
C508   C510    1.408   .     A
C509   H521    1.081   .     S
C509   N526    1.365   .     A
C510   H522    1.083   .     S
Cu511  O540    1.978   .     S
Cu511  Cu512   2.668   .     S
Cu511  O543    1.979   .     S
Cu511  O533    1.953   .     S
Cu511  N526    2.004   .     S
Cu511  O539    1.955   .     S
Cu512  O541    1.978   .     S
Cu512  O542    1.979   .     S
Cu512  N525    2.004   .     S
Cu512  O537    1.953   .     S
Cu512  O538    1.955   .     S
H514   O534    0.992   .     S
H515   O535    0.988   .     S
H516   O536    0.989   .     S
H524   O748    0.988   .     S
N529   C705    1.157   .     S
O544   H728    0.988   1_545 S
C545   O606    1.290   .     A
C545   O601    1.291   .     A
C545   C558    1.462   .     S
C546   C548    1.406   .     A
C546   H591    1.083   .     S
C546   C577    1.408   .     A
C547   C567    1.414   .     A
C547   C578    1.406   .     A
C548   C573    1.413   .     A
C548   C139    1.510   1_556 S
C549   C551    1.437   .     S
C549   O608    1.279   .     A
C549   O610    1.288   .     A
C550   O611    1.289   .     A
C550   C552    1.437   .     S
C550   O609    1.279   .     A
C552   C415    1.360   1_655 S
C552   C432    1.455   1_655 S
C553   C564    1.416   .     A
C553   O612    1.383   .     S
C553   C555    1.388   .     A
C554   C565    1.403   .     A
C554   O602    1.382   .     S
C554   C557    1.398   .     A
C555   C558    1.398   .     A
C555   H581    1.084   .     S
C556   C559    1.457   .     S
C556   O607    1.289   .     A
C556   O605    1.289   .     A
C557   H585    1.084   .     S
C557   C559    1.399   .     A
C558   C560    1.408   .     A
C559   C561    1.417   .     A
C560   C562    1.414   .     A
C560   O603    1.386   .     S
C561   O604    1.384   .     S
C561   C563    1.400   .     A
C562   C569    1.451   .     S
C562   C564    1.413   .     A
C563   C565    1.409   .     A
C563   C570    1.448   .     S
C564   C769    1.471   1_545 S
C565   C768    1.471   .     S
C566   N595    1.158   .     T
C566   C415    1.456   1_655 S
C567   C571    1.443   .     S
C567   C574    1.412   .     A
C568   N596    1.157   .     T
C569   N801    1.157   1_545 S
C570   N598    1.157   .     T
C571   N599    1.157   .     T
C572   N600    1.157   .     T
C572   C573    1.443   .     S
C573   C575    1.411   .     A
C574   N593    1.365   .     A
C574   H586    1.083   .     S
C575   H587    1.081   .     S
C575   N594    1.366   .     A
C576   H588    1.081   .     S
C576   N593    1.364   .     A
C576   C578    1.408   .     A
C577   H589    1.081   .     S
C577   N594    1.365   .     A
C578   H590    1.083   .     S
Cu579  O608    1.978   .     S
Cu579  Cu580   2.668   .     S
Cu579  O611    1.979   .     S
Cu579  O601    1.953   .     S
Cu579  N594    2.004   .     S
Cu579  O607    1.955   .     S
Cu580  O609    1.978   .     S
Cu580  O610    1.979   .     S
Cu580  N593    2.004   .     S
Cu580  O605    1.953   .     S
Cu580  O606    1.955   .     S
H582   O602    0.992   .     S
H583   O603    0.988   .     S
H584   O604    0.989   .     S
H592   O816    0.988   .     S
N597   C773    1.157   .     S
O612   H796    0.988   1_545 S
C613   O674    1.290   .     A
C613   O669    1.291   .     A
C613   C626    1.462   .     S
C614   C616    1.406   .     A
C614   H659    1.083   .     S
C614   C645    1.408   .     A
C615   C635    1.414   .     A
C615   C646    1.406   .     A
C616   C641    1.413   .     A
C616   C207    1.510   1_556 S
C617   C619    1.437   .     S
C617   O676    1.279   .     A
C617   O678    1.288   .     A
C618   O679    1.289   .     A
C618   C620    1.437   .     S
C618   O677    1.279   .     A
C619   C756    1.360   1_455 S
C619   C770    1.456   1_455 S
C620   C687    1.360   .     S
C620   C704    1.455   .     S
C621   C632    1.416   .     A
C621   O680    1.383   .     S
C621   C623    1.388   .     A
C622   C633    1.403   .     A
C622   O670    1.382   .     S
C622   C625    1.398   .     A
C623   C626    1.398   .     A
C623   H649    1.084   .     S
C624   C627    1.457   .     S
C624   O675    1.289   .     A
C624   O673    1.289   .     A
C625   H653    1.084   .     S
C625   C627    1.399   .     A
C626   C628    1.408   .     A
C627   C629    1.417   .     A
C628   C630    1.414   .     A
C628   O671    1.386   .     S
C629   O672    1.384   .     S
C629   C631    1.400   .     A
C630   C637    1.451   .     S
C630   C632    1.413   .     A
C631   C633    1.409   .     A
C631   C638    1.448   .     S
C633   C428    1.471   1_565 S
C634   N663    1.158   .     T
C634   C687    1.456   .     S
C635   C639    1.443   .     S
C635   C642    1.412   .     A
C636   N664    1.157   .     T
C636   C756    1.455   1_455 S
C638   N666    1.157   .     T
C639   N667    1.157   .     T
C640   N668    1.157   .     T
C640   C641    1.443   .     S
C641   C643    1.411   .     A
C642   N661    1.365   .     A
C642   H654    1.083   .     S
C643   H655    1.081   .     S
C643   N662    1.366   .     A
C644   H656    1.081   .     S
C644   N661    1.364   .     A
C644   C646    1.408   .     A
C645   H657    1.081   .     S
C645   N662    1.365   .     A
C646   H658    1.083   .     S
Cu647  O676    1.978   .     S
Cu647  Cu648   2.668   .     S
Cu647  O679    1.979   .     S
Cu647  O669    1.953   .     S
Cu647  N662    2.004   .     S
Cu647  O675    1.955   .     S
Cu648  O677    1.978   .     S
Cu648  O678    1.979   .     S
Cu648  N661    2.004   .     S
Cu648  O673    1.953   .     S
Cu648  O674    1.955   .     S
H650   O670    0.992   .     S
H651   O671    0.988   .     S
H652   O672    0.989   .     S
H660   O476    0.988   1_565 S
N665   C433    1.157   1_565 S
C681   O742    1.290   .     A
C681   O737    1.291   .     A
C681   C694    1.462   .     S
C682   C684    1.406   .     A
C682   H727    1.083   .     S
C682   C713    1.408   .     A
C683   C703    1.414   .     A
C683   C714    1.406   .     A
C684   C709    1.413   .     A
C684   C275    1.510   1_556 S
C685   C687    1.437   .     S
C685   O744    1.279   .     A
C685   O746    1.288   .     A
C686   O747    1.289   .     A
C686   C688    1.437   .     S
C686   O745    1.279   .     A
C688   C755    1.360   .     S
C688   C772    1.455   .     S
C689   C700    1.416   .     A
C689   O748    1.383   .     S
C689   C691    1.388   .     A
C690   C701    1.403   .     A
C690   O738    1.382   .     S
C690   C693    1.398   .     A
C691   C694    1.398   .     A
C691   H717    1.084   .     S
C692   C695    1.457   .     S
C692   O743    1.289   .     A
C692   O741    1.289   .     A
C693   H721    1.084   .     S
C693   C695    1.399   .     A
C694   C696    1.408   .     A
C695   C697    1.417   .     A
C696   C698    1.414   .     A
C696   O739    1.386   .     S
C697   O740    1.384   .     S
C697   C699    1.400   .     A
C698   C705    1.451   .     S
C698   C700    1.413   .     A
C699   C701    1.409   .     A
C699   C706    1.448   .     S
C701   C496    1.471   1_565 S
C702   N731    1.158   .     T
C702   C755    1.456   .     S
C703   C707    1.443   .     S
C703   C710    1.412   .     A
C704   N732    1.157   .     T
C706   N734    1.157   .     T
C707   N735    1.157   .     T
C708   N736    1.157   .     T
C708   C709    1.443   .     S
C709   C711    1.411   .     A
C710   N729    1.365   .     A
C710   H722    1.083   .     S
C711   H723    1.081   .     S
C711   N730    1.366   .     A
C712   H724    1.081   .     S
C712   N729    1.364   .     A
C712   C714    1.408   .     A
C713   H725    1.081   .     S
C713   N730    1.365   .     A
C714   H726    1.083   .     S
Cu715  O744    1.978   .     S
Cu715  Cu716   2.668   .     S
Cu715  O747    1.979   .     S
Cu715  O737    1.953   .     S
Cu715  N730    2.004   .     S
Cu715  O743    1.955   .     S
Cu716  O745    1.978   .     S
Cu716  O746    1.979   .     S
Cu716  N729    2.004   .     S
Cu716  O741    1.953   .     S
Cu716  O742    1.955   .     S
H718   O738    0.992   .     S
H719   O739    0.988   .     S
H720   O740    0.989   .     S
H728   O544    0.988   1_565 S
N733   C501    1.157   1_565 S
C749   O810    1.290   .     A
C749   O805    1.291   .     A
C749   C762    1.462   .     S
C750   C752    1.406   .     A
C750   H795    1.083   .     S
C750   C781    1.408   .     A
C751   C771    1.414   .     A
C751   C782    1.406   .     A
C752   C777    1.413   .     A
C752   C343    1.510   1_556 S
C753   C755    1.437   .     S
C753   O812    1.279   .     A
C753   O814    1.288   .     A
C754   O815    1.289   .     A
C754   C756    1.437   .     S
C754   O813    1.279   .     A
C756   C619    1.360   1_655 S
C756   C636    1.455   1_655 S
C757   C768    1.416   .     A
C757   O816    1.383   .     S
C757   C759    1.388   .     A
C758   C769    1.403   .     A
C758   O806    1.382   .     S
C758   C761    1.398   .     A
C759   C762    1.398   .     A
C759   H785    1.084   .     S
C760   C763    1.457   .     S
C760   O811    1.289   .     A
C760   O809    1.289   .     A
C761   H789    1.084   .     S
C761   C763    1.399   .     A
C762   C764    1.408   .     A
C763   C765    1.417   .     A
C764   C766    1.414   .     A
C764   O807    1.386   .     S
C765   O808    1.384   .     S
C765   C767    1.400   .     A
C766   C773    1.451   .     S
C766   C768    1.413   .     A
C767   C769    1.409   .     A
C767   C774    1.448   .     S
C769   C564    1.471   1_565 S
C770   N799    1.158   .     T
C770   C619    1.456   1_655 S
C771   C775    1.443   .     S
C771   C778    1.412   .     A
C772   N800    1.157   .     T
C774   N802    1.157   .     T
C775   N803    1.157   .     T
C776   N804    1.157   .     T
C776   C777    1.443   .     S
C777   C779    1.411   .     A
C778   N797    1.365   .     A
C778   H790    1.083   .     S
C779   H791    1.081   .     S
C779   N798    1.366   .     A
C780   H792    1.081   .     S
C780   N797    1.364   .     A
C780   C782    1.408   .     A
C781   H793    1.081   .     S
C781   N798    1.365   .     A
C782   H794    1.083   .     S
Cu783  O812    1.978   .     S
Cu783  Cu784   2.668   .     S
Cu783  O815    1.979   .     S
Cu783  O805    1.953   .     S
Cu783  N798    2.004   .     S
Cu783  O811    1.955   .     S
Cu784  O813    1.978   .     S
Cu784  O814    1.979   .     S
Cu784  N797    2.004   .     S
Cu784  O809    1.953   .     S
Cu784  O810    1.955   .     S
H786   O806    0.992   .     S
H787   O807    0.988   .     S
H788   O808    0.989   .     S
H796   O612    0.988   1_565 S
N801   C569    1.157   1_565 S
