data_str_m2_o1_o18_pcu_sym.129
_audit_creation_date              2020-01-03
_audit_creation_method            'Materials Studio'
_symmetry_space_group_name_H-M    'P1'
_symmetry_Int_Tables_number       1
_symmetry_cell_setting            triclinic
loop_
_symmetry_equiv_pos_as_xyz
  x,y,z
_cell_length_a                    28.5666
_cell_length_b                    32.4618
_cell_length_c                    30.7650
_cell_angle_alpha                 89.2444
_cell_angle_beta                  74.3995
_cell_angle_gamma                 89.7245
loop_
_atom_site_label
_atom_site_type_symbol
_atom_site_fract_x
_atom_site_fract_y
_atom_site_fract_z
_atom_site_U_iso_or_equiv
_atom_site_adp_type
_atom_site_occupancy
C1     C     0.00008   0.08736   0.25042   0.00000  Uiso   1.00
C2     C     0.00005   0.24591   0.24941   0.00000  Uiso   1.00
C3     C     0.19365   0.16090   0.04827   0.00000  Uiso   1.00
C4     C     0.14112   0.18437   0.45293   0.00000  Uiso   1.00
C5     C     0.24165   0.15228   0.02611   0.00000  Uiso   1.00
C6     C     0.09300   0.19234   0.47535   0.00000  Uiso   1.00
C7     C     0.30114   0.02216   0.23163   0.00000  Uiso   1.00
C8     C     0.03297   0.31089   0.26733   0.00000  Uiso   1.00
C9     C     0.30175   0.31283   0.22934   0.00000  Uiso   1.00
C10    C     0.03505   0.02045   0.26666   0.00000  Uiso   1.00
C11    C     0.00018   0.29047   0.24869   0.00000  Uiso   1.00
C12    C     0.00080   0.04269   0.25012   0.00000  Uiso   1.00
C13    C     0.18335   0.14151   0.27939   0.00000  Uiso   1.00
C14    C     0.14974   0.19280   0.22186   0.00000  Uiso   1.00
C15    C     0.13347   0.14137   0.27856   0.00000  Uiso   1.00
C16    C     0.19980   0.19190   0.22136   0.00000  Uiso   1.00
C17    C     0.30612   0.16724   0.33615   0.00000  Uiso   1.00
C18    C     0.02724   0.16657   0.16383   0.00000  Uiso   1.00
C19    C     0.29139   0.16664   0.38559   0.00000  Uiso   1.00
C20    C     0.04215   0.16956   0.11447   0.00000  Uiso   1.00
C21    C     0.30511   0.14275   0.45618   0.00000  Uiso   1.00
C22    C     0.02863   0.19758   0.04537   0.00000  Uiso   1.00
C23    C     0.32068   0.14674   0.40925   0.00000  Uiso   1.00
C24    C     0.01245   0.19031   0.09182   0.00000  Uiso   1.00
C25    C     0.24715   0.18470   0.40915   0.00000  Uiso   1.00
C26    C     0.08780   0.15445   0.09025   0.00000  Uiso   1.00
C27    C     0.22641   0.17256   0.45471   0.00000  Uiso   1.00
C28    C     0.10837   0.16961   0.04583   0.00000  Uiso   1.00
C29    C     0.25784   0.15557   0.47912   0.00000  Uiso   1.00
C30    C     0.07658   0.18691   0.02208   0.00000  Uiso   1.00
C31    C     0.17582   0.17592   0.47681   0.00000  Uiso   1.00
C32    C     0.15905   0.16798   0.02397   0.00000  Uiso   1.00
Cu33   Cu    0.04689   0.16667   0.25000   0.00000  Uiso   1.00
Cu34   Cu    0.28645   0.16666   0.25000   0.00000  Uiso   1.00
H35    H     0.26611   0.14320   0.04602   0.00000  Uiso   1.00
H36    H     0.06845   0.20199   0.45575   0.00000  Uiso   1.00
H37    H     0.30982   0.20065   0.11003   0.00000  Uiso   1.00
H38    H     0.02265   0.13472   0.39142   0.00000  Uiso   1.00
H39    H     0.18379   0.16121   0.08460   0.00000  Uiso   1.00
H40    H     0.15072   0.18560   0.41675   0.00000  Uiso   1.00
H41    H     0.27575   0.03921   0.21766   0.00000  Uiso   1.00
H42    H     0.05651   0.29343   0.28309   0.00000  Uiso   1.00
H43    H     0.10751   0.12090   0.30037   0.00000  Uiso   1.00
H44    H     0.22577   0.21116   0.19787   0.00000  Uiso   1.00
N45    N     0.11736   0.16668   0.24999   0.00000  Uiso   1.00
N46    N     0.21597   0.16666   0.25001   0.00000  Uiso   1.00
O47    O     0.03958   0.10655   0.25000   0.00000  Uiso   1.00
O48    O     0.29375   0.22678   0.25000   0.00000  Uiso   1.00
O49    O     0.29372   0.10654   0.25001   0.00000  Uiso   1.00
O50    O     0.03961   0.22679   0.25000   0.00000  Uiso   1.00
O51    O     0.01852   0.16668   0.31492   0.00000  Uiso   1.00
O52    O     0.31481   0.16666   0.18509   0.00000  Uiso   1.00
O53    O     0.27267   0.16667   0.31492   0.00000  Uiso   1.00
O54    O     0.06067   0.16667   0.18508   0.00000  Uiso   1.00
S55    S     0.10828   0.10706   0.10930   0.00000  Uiso   1.00
O56    O     0.13668   0.11515   0.14297   0.00000  Uiso   1.00
O57    O     0.06498   0.08091   0.13167   0.00000  Uiso   1.00
O58    O     0.14324   0.08097   0.06546   0.00000  Uiso   1.00
H59    H     0.15502   0.05663   0.07919   0.00000  Uiso   1.00
S60    S     0.23008   0.23199   0.38697   0.00000  Uiso   1.00
O61    O     0.20023   0.25818   0.42429   0.00000  Uiso   1.00
O62    O     0.27529   0.25534   0.36331   0.00000  Uiso   1.00
O63    O     0.19813   0.22257   0.34950   0.00000  Uiso   1.00
H64    H     0.19681   0.24928   0.33394   0.00000  Uiso   1.00
O65    O     0.00289   0.12656   0.47957   0.00000  Uiso   1.00
C66    C     0.00234   0.08326   0.47698   0.00000  Uiso   1.00
H67    H     0.01777   0.07279   0.44172   0.00000  Uiso   1.00
H68    H     0.29832   0.07077   0.49096   0.00000  Uiso   1.00
H69    H     0.02544   0.07035   0.49763   0.00000  Uiso   1.00
O70    O     0.33066   0.21483   0.02284   0.00000  Uiso   1.00
C71    C     0.33176   0.25800   0.02672   0.00000  Uiso   1.00
H72    H     0.03569   0.27039   0.01197   0.00000  Uiso   1.00
H73    H     0.31778   0.26760   0.06245   0.00000  Uiso   1.00
H74    H     0.30771   0.27185   0.00753   0.00000  Uiso   1.00
O75    O     0.27051   0.29329   0.20893   0.00000  Uiso   1.00
C76    C     0.29457   0.28887   0.16276   0.00000  Uiso   1.00
H77    H     0.27019   0.27248   0.14622   0.00000  Uiso   1.00
H78    H     0.32824   0.27003   0.15785   0.00000  Uiso   1.00
H79    H     0.30317   0.31940   0.14562   0.00000  Uiso   1.00
O80    O     0.06701   0.04090   0.28584   0.00000  Uiso   1.00
C81    C     0.11539   0.02932   0.26438   0.00000  Uiso   1.00
H82    H     0.14034   0.05243   0.27204   0.00000  Uiso   1.00
H83    H     0.12269   0.02844   0.22693   0.00000  Uiso   1.00
H84    H     0.12444   0.33263   0.27783   0.00000  Uiso   1.00
O85    O     0.20120   0.11466   0.30675   0.00000  Uiso   1.00
C86    C     0.16813   0.10855   0.34959   0.00000  Uiso   1.00
H87    H     0.18893   0.09917   0.37381   0.00000  Uiso   1.00
H88    H     0.14772   0.13702   0.36283   0.00000  Uiso   1.00
H89    H     0.14263   0.08316   0.34835   0.00000  Uiso   1.00
O90    O     0.13343   0.21773   0.19207   0.00000  Uiso   1.00
C91    C     0.14562   0.25928   0.19644   0.00000  Uiso   1.00
H92    H     0.18319   0.26574   0.17589   0.00000  Uiso   1.00
H93    H     0.14110   0.26806   0.23223   0.00000  Uiso   1.00
H94    H     0.12085   0.27917   0.18310   0.00000  Uiso   1.00
C95    C     0.33341   0.08736   0.25042   0.00000  Uiso   1.00
C96    C     0.33338   0.24591   0.24941   0.00000  Uiso   1.00
C97    C     0.52698   0.16090   0.04827   0.00000  Uiso   1.00
C98    C     0.47445   0.18437   0.45293   0.00000  Uiso   1.00
C99    C     0.57499   0.15228   0.02611   0.00000  Uiso   1.00
C100   C     0.42633   0.19234   0.47535   0.00000  Uiso   1.00
C101   C     0.63448   0.02216   0.23163   0.00000  Uiso   1.00
C102   C     0.36631   0.31089   0.26733   0.00000  Uiso   1.00
C103   C     0.63509   0.31283   0.22934   0.00000  Uiso   1.00
C104   C     0.36838   0.02045   0.26666   0.00000  Uiso   1.00
C105   C     0.33351   0.29047   0.24869   0.00000  Uiso   1.00
C106   C     0.33414   0.04269   0.25012   0.00000  Uiso   1.00
C107   C     0.51669   0.14151   0.27939   0.00000  Uiso   1.00
C108   C     0.48308   0.19280   0.22186   0.00000  Uiso   1.00
C109   C     0.46680   0.14137   0.27856   0.00000  Uiso   1.00
C110   C     0.53313   0.19190   0.22136   0.00000  Uiso   1.00
C111   C     0.63946   0.16724   0.33615   0.00000  Uiso   1.00
C112   C     0.36057   0.16657   0.16383   0.00000  Uiso   1.00
C113   C     0.62473   0.16664   0.38559   0.00000  Uiso   1.00
C114   C     0.37548   0.16956   0.11447   0.00000  Uiso   1.00
C115   C     0.63844   0.14275   0.45618   0.00000  Uiso   1.00
C116   C     0.36196   0.19758   0.04537   0.00000  Uiso   1.00
C117   C     0.65401   0.14674   0.40925   0.00000  Uiso   1.00
C118   C     0.34579   0.19031   0.09182   0.00000  Uiso   1.00
C119   C     0.58049   0.18470   0.40915   0.00000  Uiso   1.00
C120   C     0.42113   0.15445   0.09025   0.00000  Uiso   1.00
C121   C     0.55974   0.17256   0.45471   0.00000  Uiso   1.00
C122   C     0.44170   0.16961   0.04583   0.00000  Uiso   1.00
C123   C     0.59117   0.15557   0.47912   0.00000  Uiso   1.00
C124   C     0.40991   0.18691   0.02208   0.00000  Uiso   1.00
C125   C     0.50915   0.17592   0.47681   0.00000  Uiso   1.00
C126   C     0.49239   0.16798   0.02397   0.00000  Uiso   1.00
Cu127  Cu    0.38022   0.16667   0.25000   0.00000  Uiso   1.00
Cu128  Cu    0.61978   0.16666   0.25000   0.00000  Uiso   1.00
H129   H     0.59945   0.14320   0.04602   0.00000  Uiso   1.00
H130   H     0.40178   0.20199   0.45575   0.00000  Uiso   1.00
H131   H     0.64316   0.20065   0.11003   0.00000  Uiso   1.00
H132   H     0.35598   0.13472   0.39142   0.00000  Uiso   1.00
H133   H     0.51713   0.16121   0.08460   0.00000  Uiso   1.00
H134   H     0.48406   0.18560   0.41675   0.00000  Uiso   1.00
H135   H     0.60908   0.03921   0.21766   0.00000  Uiso   1.00
H136   H     0.38984   0.29343   0.28309   0.00000  Uiso   1.00
H137   H     0.44084   0.12090   0.30037   0.00000  Uiso   1.00
H138   H     0.55910   0.21116   0.19787   0.00000  Uiso   1.00
N139   N     0.45069   0.16668   0.24999   0.00000  Uiso   1.00
N140   N     0.54931   0.16666   0.25001   0.00000  Uiso   1.00
O141   O     0.37291   0.10655   0.25000   0.00000  Uiso   1.00
O142   O     0.62709   0.22678   0.25000   0.00000  Uiso   1.00
O143   O     0.62706   0.10654   0.25001   0.00000  Uiso   1.00
O144   O     0.37294   0.22679   0.25000   0.00000  Uiso   1.00
O145   O     0.35186   0.16668   0.31492   0.00000  Uiso   1.00
O146   O     0.64814   0.16666   0.18509   0.00000  Uiso   1.00
O147   O     0.60600   0.16667   0.31492   0.00000  Uiso   1.00
O148   O     0.39400   0.16667   0.18508   0.00000  Uiso   1.00
S149   S     0.44162   0.10706   0.10930   0.00000  Uiso   1.00
O150   O     0.47002   0.11515   0.14297   0.00000  Uiso   1.00
O151   O     0.39831   0.08091   0.13167   0.00000  Uiso   1.00
O152   O     0.47658   0.08097   0.06546   0.00000  Uiso   1.00
H153   H     0.48835   0.05663   0.07919   0.00000  Uiso   1.00
S154   S     0.56341   0.23199   0.38697   0.00000  Uiso   1.00
O155   O     0.53356   0.25818   0.42429   0.00000  Uiso   1.00
O156   O     0.60862   0.25534   0.36331   0.00000  Uiso   1.00
O157   O     0.53146   0.22257   0.34950   0.00000  Uiso   1.00
H158   H     0.53014   0.24928   0.33394   0.00000  Uiso   1.00
O159   O     0.33622   0.12656   0.47957   0.00000  Uiso   1.00
C160   C     0.33567   0.08326   0.47698   0.00000  Uiso   1.00
H161   H     0.35111   0.07279   0.44172   0.00000  Uiso   1.00
H162   H     0.63165   0.07077   0.49096   0.00000  Uiso   1.00
H163   H     0.35877   0.07035   0.49763   0.00000  Uiso   1.00
O164   O     0.66399   0.21483   0.02284   0.00000  Uiso   1.00
C165   C     0.66509   0.25800   0.02672   0.00000  Uiso   1.00
H166   H     0.36902   0.27039   0.01197   0.00000  Uiso   1.00
H167   H     0.65112   0.26760   0.06245   0.00000  Uiso   1.00
H168   H     0.64104   0.27185   0.00753   0.00000  Uiso   1.00
O169   O     0.60385   0.29329   0.20893   0.00000  Uiso   1.00
C170   C     0.62790   0.28887   0.16276   0.00000  Uiso   1.00
H171   H     0.60353   0.27248   0.14622   0.00000  Uiso   1.00
H172   H     0.66157   0.27003   0.15785   0.00000  Uiso   1.00
H173   H     0.63650   0.31940   0.14562   0.00000  Uiso   1.00
O174   O     0.40034   0.04090   0.28584   0.00000  Uiso   1.00
C175   C     0.44873   0.02932   0.26438   0.00000  Uiso   1.00
H176   H     0.47367   0.05243   0.27204   0.00000  Uiso   1.00
H177   H     0.45603   0.02844   0.22693   0.00000  Uiso   1.00
H178   H     0.45777   0.33263   0.27783   0.00000  Uiso   1.00
O179   O     0.53453   0.11466   0.30675   0.00000  Uiso   1.00
C180   C     0.50146   0.10855   0.34959   0.00000  Uiso   1.00
H181   H     0.52226   0.09917   0.37381   0.00000  Uiso   1.00
H182   H     0.48106   0.13702   0.36283   0.00000  Uiso   1.00
H183   H     0.47596   0.08316   0.34835   0.00000  Uiso   1.00
O184   O     0.46676   0.21773   0.19207   0.00000  Uiso   1.00
C185   C     0.47896   0.25928   0.19644   0.00000  Uiso   1.00
H186   H     0.51652   0.26574   0.17589   0.00000  Uiso   1.00
H187   H     0.47444   0.26806   0.23223   0.00000  Uiso   1.00
H188   H     0.45418   0.27917   0.18310   0.00000  Uiso   1.00
C189   C     0.66675   0.08736   0.25042   0.00000  Uiso   1.00
C190   C     0.66672   0.24591   0.24941   0.00000  Uiso   1.00
C191   C     0.86032   0.16090   0.04827   0.00000  Uiso   1.00
C192   C     0.80779   0.18437   0.45293   0.00000  Uiso   1.00
C193   C     0.90832   0.15228   0.02611   0.00000  Uiso   1.00
C194   C     0.75967   0.19234   0.47535   0.00000  Uiso   1.00
C195   C     0.96781   0.02216   0.23163   0.00000  Uiso   1.00
C196   C     0.69964   0.31089   0.26733   0.00000  Uiso   1.00
C197   C     0.96842   0.31283   0.22934   0.00000  Uiso   1.00
C198   C     0.70171   0.02045   0.26666   0.00000  Uiso   1.00
C199   C     0.66684   0.29047   0.24869   0.00000  Uiso   1.00
C200   C     0.66747   0.04269   0.25012   0.00000  Uiso   1.00
C201   C     0.85002   0.14151   0.27939   0.00000  Uiso   1.00
C202   C     0.81641   0.19280   0.22186   0.00000  Uiso   1.00
C203   C     0.80013   0.14137   0.27856   0.00000  Uiso   1.00
C204   C     0.86647   0.19190   0.22136   0.00000  Uiso   1.00
C205   C     0.97279   0.16724   0.33615   0.00000  Uiso   1.00
C206   C     0.69390   0.16657   0.16383   0.00000  Uiso   1.00
C207   C     0.95806   0.16664   0.38559   0.00000  Uiso   1.00
C208   C     0.70881   0.16956   0.11447   0.00000  Uiso   1.00
C209   C     0.97177   0.14275   0.45618   0.00000  Uiso   1.00
C210   C     0.69530   0.19758   0.04537   0.00000  Uiso   1.00
C211   C     0.98735   0.14674   0.40925   0.00000  Uiso   1.00
C212   C     0.67912   0.19031   0.09182   0.00000  Uiso   1.00
C213   C     0.91382   0.18470   0.40915   0.00000  Uiso   1.00
C214   C     0.75446   0.15445   0.09025   0.00000  Uiso   1.00
C215   C     0.89308   0.17256   0.45471   0.00000  Uiso   1.00
C216   C     0.77504   0.16961   0.04583   0.00000  Uiso   1.00
C217   C     0.92450   0.15557   0.47912   0.00000  Uiso   1.00
C218   C     0.74325   0.18691   0.02208   0.00000  Uiso   1.00
C219   C     0.84249   0.17592   0.47681   0.00000  Uiso   1.00
C220   C     0.82572   0.16798   0.02397   0.00000  Uiso   1.00
Cu221  Cu    0.71355   0.16667   0.25000   0.00000  Uiso   1.00
Cu222  Cu    0.95311   0.16666   0.25000   0.00000  Uiso   1.00
H223   H     0.93278   0.14320   0.04602   0.00000  Uiso   1.00
H224   H     0.73512   0.20199   0.45575   0.00000  Uiso   1.00
H225   H     0.97649   0.20065   0.11003   0.00000  Uiso   1.00
H226   H     0.68931   0.13472   0.39142   0.00000  Uiso   1.00
H227   H     0.85046   0.16121   0.08460   0.00000  Uiso   1.00
H228   H     0.81739   0.18560   0.41675   0.00000  Uiso   1.00
H229   H     0.94241   0.03921   0.21766   0.00000  Uiso   1.00
H230   H     0.72318   0.29343   0.28309   0.00000  Uiso   1.00
H231   H     0.77418   0.12090   0.30037   0.00000  Uiso   1.00
H232   H     0.89244   0.21116   0.19787   0.00000  Uiso   1.00
N233   N     0.78403   0.16668   0.24999   0.00000  Uiso   1.00
N234   N     0.88264   0.16666   0.25001   0.00000  Uiso   1.00
O235   O     0.70625   0.10655   0.25000   0.00000  Uiso   1.00
O236   O     0.96042   0.22678   0.25000   0.00000  Uiso   1.00
O237   O     0.96039   0.10654   0.25001   0.00000  Uiso   1.00
O238   O     0.70628   0.22679   0.25000   0.00000  Uiso   1.00
O239   O     0.68519   0.16668   0.31492   0.00000  Uiso   1.00
O240   O     0.98148   0.16666   0.18509   0.00000  Uiso   1.00
O241   O     0.93933   0.16667   0.31492   0.00000  Uiso   1.00
O242   O     0.72733   0.16667   0.18508   0.00000  Uiso   1.00
S243   S     0.77495   0.10706   0.10930   0.00000  Uiso   1.00
O244   O     0.80335   0.11515   0.14297   0.00000  Uiso   1.00
O245   O     0.73165   0.08091   0.13167   0.00000  Uiso   1.00
O246   O     0.80991   0.08097   0.06546   0.00000  Uiso   1.00
H247   H     0.82168   0.05663   0.07919   0.00000  Uiso   1.00
S248   S     0.89674   0.23199   0.38697   0.00000  Uiso   1.00
O249   O     0.86689   0.25818   0.42429   0.00000  Uiso   1.00
O250   O     0.94196   0.25534   0.36331   0.00000  Uiso   1.00
O251   O     0.86479   0.22257   0.34950   0.00000  Uiso   1.00
H252   H     0.86347   0.24928   0.33394   0.00000  Uiso   1.00
O253   O     0.66956   0.12656   0.47957   0.00000  Uiso   1.00
C254   C     0.66900   0.08326   0.47698   0.00000  Uiso   1.00
H255   H     0.68444   0.07279   0.44172   0.00000  Uiso   1.00
H256   H     0.96498   0.07077   0.49096   0.00000  Uiso   1.00
H257   H     0.69211   0.07035   0.49763   0.00000  Uiso   1.00
O258   O     0.99732   0.21483   0.02284   0.00000  Uiso   1.00
C259   C     0.99843   0.25800   0.02672   0.00000  Uiso   1.00
H260   H     0.70235   0.27039   0.01197   0.00000  Uiso   1.00
H261   H     0.98445   0.26760   0.06245   0.00000  Uiso   1.00
H262   H     0.97437   0.27185   0.00753   0.00000  Uiso   1.00
O263   O     0.93718   0.29329   0.20893   0.00000  Uiso   1.00
C264   C     0.96123   0.28887   0.16276   0.00000  Uiso   1.00
H265   H     0.93686   0.27248   0.14622   0.00000  Uiso   1.00
H266   H     0.99490   0.27003   0.15785   0.00000  Uiso   1.00
H267   H     0.96983   0.31940   0.14562   0.00000  Uiso   1.00
O268   O     0.73367   0.04090   0.28584   0.00000  Uiso   1.00
C269   C     0.78206   0.02932   0.26438   0.00000  Uiso   1.00
H270   H     0.80700   0.05243   0.27204   0.00000  Uiso   1.00
H271   H     0.78936   0.02844   0.22693   0.00000  Uiso   1.00
H272   H     0.79111   0.33263   0.27783   0.00000  Uiso   1.00
O273   O     0.86786   0.11466   0.30675   0.00000  Uiso   1.00
C274   C     0.83480   0.10855   0.34959   0.00000  Uiso   1.00
H275   H     0.85559   0.09917   0.37381   0.00000  Uiso   1.00
H276   H     0.81439   0.13702   0.36283   0.00000  Uiso   1.00
H277   H     0.80930   0.08316   0.34835   0.00000  Uiso   1.00
O278   O     0.80009   0.21773   0.19207   0.00000  Uiso   1.00
C279   C     0.81229   0.25928   0.19644   0.00000  Uiso   1.00
H280   H     0.84986   0.26574   0.17589   0.00000  Uiso   1.00
H281   H     0.80777   0.26806   0.23223   0.00000  Uiso   1.00
H282   H     0.78751   0.27917   0.18310   0.00000  Uiso   1.00
C283   C     0.00008   0.42069   0.25042   0.00000  Uiso   1.00
C284   C     0.00005   0.57924   0.24941   0.00000  Uiso   1.00
C285   C     0.19365   0.49424   0.04827   0.00000  Uiso   1.00
C286   C     0.14112   0.51770   0.45293   0.00000  Uiso   1.00
C287   C     0.24165   0.48561   0.02611   0.00000  Uiso   1.00
C288   C     0.09300   0.52568   0.47535   0.00000  Uiso   1.00
C289   C     0.30114   0.35549   0.23163   0.00000  Uiso   1.00
C290   C     0.03297   0.64422   0.26733   0.00000  Uiso   1.00
C291   C     0.30175   0.64617   0.22934   0.00000  Uiso   1.00
C292   C     0.03505   0.35378   0.26666   0.00000  Uiso   1.00
C293   C     0.00018   0.62380   0.24869   0.00000  Uiso   1.00
C294   C     0.00080   0.37602   0.25012   0.00000  Uiso   1.00
C295   C     0.18335   0.47484   0.27939   0.00000  Uiso   1.00
C296   C     0.14974   0.52613   0.22186   0.00000  Uiso   1.00
C297   C     0.13347   0.47470   0.27856   0.00000  Uiso   1.00
C298   C     0.19980   0.52523   0.22136   0.00000  Uiso   1.00
C299   C     0.30612   0.50057   0.33615   0.00000  Uiso   1.00
C300   C     0.02724   0.49990   0.16383   0.00000  Uiso   1.00
C301   C     0.29139   0.49998   0.38559   0.00000  Uiso   1.00
C302   C     0.04215   0.50289   0.11447   0.00000  Uiso   1.00
C303   C     0.30511   0.47609   0.45618   0.00000  Uiso   1.00
C304   C     0.02863   0.53091   0.04537   0.00000  Uiso   1.00
C305   C     0.32068   0.48007   0.40925   0.00000  Uiso   1.00
C306   C     0.01245   0.52365   0.09182   0.00000  Uiso   1.00
C307   C     0.24715   0.51803   0.40915   0.00000  Uiso   1.00
C308   C     0.08780   0.48778   0.09025   0.00000  Uiso   1.00
C309   C     0.22641   0.50589   0.45471   0.00000  Uiso   1.00
C310   C     0.10837   0.50294   0.04583   0.00000  Uiso   1.00
C311   C     0.25784   0.48890   0.47912   0.00000  Uiso   1.00
C312   C     0.07658   0.52024   0.02208   0.00000  Uiso   1.00
C313   C     0.17582   0.50926   0.47681   0.00000  Uiso   1.00
C314   C     0.15905   0.50131   0.02397   0.00000  Uiso   1.00
Cu315  Cu    0.04689   0.50001   0.25000   0.00000  Uiso   1.00
Cu316  Cu    0.28645   0.49999   0.25000   0.00000  Uiso   1.00
H317   H     0.26611   0.47653   0.04602   0.00000  Uiso   1.00
H318   H     0.06845   0.53533   0.45575   0.00000  Uiso   1.00
H319   H     0.30982   0.53398   0.11003   0.00000  Uiso   1.00
H320   H     0.02265   0.46805   0.39142   0.00000  Uiso   1.00
H321   H     0.18379   0.49454   0.08460   0.00000  Uiso   1.00
H322   H     0.15072   0.51894   0.41675   0.00000  Uiso   1.00
H323   H     0.27575   0.37254   0.21766   0.00000  Uiso   1.00
H324   H     0.05651   0.62677   0.28309   0.00000  Uiso   1.00
H325   H     0.10751   0.45424   0.30037   0.00000  Uiso   1.00
H326   H     0.22577   0.54449   0.19787   0.00000  Uiso   1.00
N327   N     0.11736   0.50001   0.24999   0.00000  Uiso   1.00
N328   N     0.21597   0.49999   0.25001   0.00000  Uiso   1.00
O329   O     0.03958   0.43989   0.25000   0.00000  Uiso   1.00
O330   O     0.29375   0.56011   0.25000   0.00000  Uiso   1.00
O331   O     0.29372   0.43988   0.25001   0.00000  Uiso   1.00
O332   O     0.03961   0.56012   0.25000   0.00000  Uiso   1.00
O333   O     0.01852   0.50001   0.31492   0.00000  Uiso   1.00
O334   O     0.31481   0.49999   0.18509   0.00000  Uiso   1.00
O335   O     0.27267   0.50000   0.31492   0.00000  Uiso   1.00
O336   O     0.06067   0.50000   0.18508   0.00000  Uiso   1.00
S337   S     0.10828   0.44039   0.10930   0.00000  Uiso   1.00
O338   O     0.13668   0.44849   0.14297   0.00000  Uiso   1.00
O339   O     0.06498   0.41424   0.13167   0.00000  Uiso   1.00
O340   O     0.14324   0.41431   0.06546   0.00000  Uiso   1.00
H341   H     0.15502   0.38996   0.07919   0.00000  Uiso   1.00
S342   S     0.23008   0.56532   0.38697   0.00000  Uiso   1.00
O343   O     0.20023   0.59151   0.42429   0.00000  Uiso   1.00
O344   O     0.27529   0.58867   0.36331   0.00000  Uiso   1.00
O345   O     0.19813   0.55590   0.34950   0.00000  Uiso   1.00
H346   H     0.19681   0.58262   0.33394   0.00000  Uiso   1.00
O347   O     0.00289   0.45990   0.47957   0.00000  Uiso   1.00
C348   C     0.00234   0.41659   0.47698   0.00000  Uiso   1.00
H349   H     0.01777   0.40612   0.44172   0.00000  Uiso   1.00
H350   H     0.29832   0.40411   0.49096   0.00000  Uiso   1.00
H351   H     0.02544   0.40368   0.49763   0.00000  Uiso   1.00
O352   O     0.33066   0.54816   0.02284   0.00000  Uiso   1.00
C353   C     0.33176   0.59134   0.02672   0.00000  Uiso   1.00
H354   H     0.03569   0.60372   0.01197   0.00000  Uiso   1.00
H355   H     0.31778   0.60094   0.06245   0.00000  Uiso   1.00
H356   H     0.30771   0.60518   0.00753   0.00000  Uiso   1.00
O357   O     0.27051   0.62663   0.20893   0.00000  Uiso   1.00
C358   C     0.29457   0.62220   0.16276   0.00000  Uiso   1.00
H359   H     0.27019   0.60581   0.14622   0.00000  Uiso   1.00
H360   H     0.32824   0.60336   0.15785   0.00000  Uiso   1.00
H361   H     0.30317   0.65273   0.14562   0.00000  Uiso   1.00
O362   O     0.06701   0.37423   0.28584   0.00000  Uiso   1.00
C363   C     0.11539   0.36265   0.26438   0.00000  Uiso   1.00
H364   H     0.14034   0.38577   0.27204   0.00000  Uiso   1.00
H365   H     0.12269   0.36177   0.22693   0.00000  Uiso   1.00
H366   H     0.12444   0.66597   0.27783   0.00000  Uiso   1.00
O367   O     0.20120   0.44799   0.30675   0.00000  Uiso   1.00
C368   C     0.16813   0.44188   0.34959   0.00000  Uiso   1.00
H369   H     0.18893   0.43251   0.37381   0.00000  Uiso   1.00
H370   H     0.14772   0.47036   0.36283   0.00000  Uiso   1.00
H371   H     0.14263   0.41649   0.34835   0.00000  Uiso   1.00
O372   O     0.13343   0.55107   0.19207   0.00000  Uiso   1.00
C373   C     0.14562   0.59262   0.19644   0.00000  Uiso   1.00
H374   H     0.18319   0.59908   0.17589   0.00000  Uiso   1.00
H375   H     0.14110   0.60139   0.23223   0.00000  Uiso   1.00
H376   H     0.12085   0.61251   0.18310   0.00000  Uiso   1.00
C377   C     0.33341   0.42069   0.25042   0.00000  Uiso   1.00
C378   C     0.33338   0.57924   0.24941   0.00000  Uiso   1.00
C379   C     0.52698   0.49424   0.04827   0.00000  Uiso   1.00
C380   C     0.47445   0.51770   0.45293   0.00000  Uiso   1.00
C381   C     0.57499   0.48561   0.02611   0.00000  Uiso   1.00
C382   C     0.42633   0.52568   0.47535   0.00000  Uiso   1.00
C383   C     0.63448   0.35549   0.23163   0.00000  Uiso   1.00
C384   C     0.36631   0.64422   0.26733   0.00000  Uiso   1.00
C385   C     0.63509   0.64617   0.22934   0.00000  Uiso   1.00
C386   C     0.36838   0.35378   0.26666   0.00000  Uiso   1.00
C387   C     0.33351   0.62380   0.24869   0.00000  Uiso   1.00
C388   C     0.33414   0.37602   0.25012   0.00000  Uiso   1.00
C389   C     0.51669   0.47484   0.27939   0.00000  Uiso   1.00
C390   C     0.48308   0.52613   0.22186   0.00000  Uiso   1.00
C391   C     0.46680   0.47470   0.27856   0.00000  Uiso   1.00
C392   C     0.53313   0.52523   0.22136   0.00000  Uiso   1.00
C393   C     0.63946   0.50057   0.33615   0.00000  Uiso   1.00
C394   C     0.36057   0.49990   0.16383   0.00000  Uiso   1.00
C395   C     0.62473   0.49998   0.38559   0.00000  Uiso   1.00
C396   C     0.37548   0.50289   0.11447   0.00000  Uiso   1.00
C397   C     0.63844   0.47609   0.45618   0.00000  Uiso   1.00
C398   C     0.36196   0.53091   0.04537   0.00000  Uiso   1.00
C399   C     0.65401   0.48007   0.40925   0.00000  Uiso   1.00
C400   C     0.34579   0.52365   0.09182   0.00000  Uiso   1.00
C401   C     0.58049   0.51803   0.40915   0.00000  Uiso   1.00
C402   C     0.42113   0.48778   0.09025   0.00000  Uiso   1.00
C403   C     0.55974   0.50589   0.45471   0.00000  Uiso   1.00
C404   C     0.44170   0.50294   0.04583   0.00000  Uiso   1.00
C405   C     0.59117   0.48890   0.47912   0.00000  Uiso   1.00
C406   C     0.40991   0.52024   0.02208   0.00000  Uiso   1.00
C407   C     0.50915   0.50926   0.47681   0.00000  Uiso   1.00
C408   C     0.49239   0.50131   0.02397   0.00000  Uiso   1.00
Cu409  Cu    0.38022   0.50001   0.25000   0.00000  Uiso   1.00
Cu410  Cu    0.61978   0.49999   0.25000   0.00000  Uiso   1.00
H411   H     0.59945   0.47653   0.04602   0.00000  Uiso   1.00
H412   H     0.40178   0.53533   0.45575   0.00000  Uiso   1.00
H413   H     0.64316   0.53398   0.11003   0.00000  Uiso   1.00
H414   H     0.35598   0.46805   0.39142   0.00000  Uiso   1.00
H415   H     0.51713   0.49454   0.08460   0.00000  Uiso   1.00
H416   H     0.48406   0.51894   0.41675   0.00000  Uiso   1.00
H417   H     0.60908   0.37254   0.21766   0.00000  Uiso   1.00
H418   H     0.38984   0.62677   0.28309   0.00000  Uiso   1.00
H419   H     0.44084   0.45424   0.30037   0.00000  Uiso   1.00
H420   H     0.55910   0.54449   0.19787   0.00000  Uiso   1.00
N421   N     0.45069   0.50001   0.24999   0.00000  Uiso   1.00
N422   N     0.54931   0.49999   0.25001   0.00000  Uiso   1.00
O423   O     0.37291   0.43989   0.25000   0.00000  Uiso   1.00
O424   O     0.62709   0.56011   0.25000   0.00000  Uiso   1.00
O425   O     0.62706   0.43988   0.25001   0.00000  Uiso   1.00
O426   O     0.37294   0.56012   0.25000   0.00000  Uiso   1.00
O427   O     0.35186   0.50001   0.31492   0.00000  Uiso   1.00
O428   O     0.64814   0.49999   0.18509   0.00000  Uiso   1.00
O429   O     0.60600   0.50000   0.31492   0.00000  Uiso   1.00
O430   O     0.39400   0.50000   0.18508   0.00000  Uiso   1.00
S431   S     0.44162   0.44039   0.10930   0.00000  Uiso   1.00
O432   O     0.47002   0.44849   0.14297   0.00000  Uiso   1.00
O433   O     0.39831   0.41424   0.13167   0.00000  Uiso   1.00
O434   O     0.47658   0.41431   0.06546   0.00000  Uiso   1.00
H435   H     0.48835   0.38996   0.07919   0.00000  Uiso   1.00
S436   S     0.56341   0.56532   0.38697   0.00000  Uiso   1.00
O437   O     0.53356   0.59151   0.42429   0.00000  Uiso   1.00
O438   O     0.60862   0.58867   0.36331   0.00000  Uiso   1.00
O439   O     0.53146   0.55590   0.34950   0.00000  Uiso   1.00
H440   H     0.53014   0.58262   0.33394   0.00000  Uiso   1.00
O441   O     0.33622   0.45990   0.47957   0.00000  Uiso   1.00
C442   C     0.33567   0.41659   0.47698   0.00000  Uiso   1.00
H443   H     0.35111   0.40612   0.44172   0.00000  Uiso   1.00
H444   H     0.63165   0.40411   0.49096   0.00000  Uiso   1.00
H445   H     0.35877   0.40368   0.49763   0.00000  Uiso   1.00
O446   O     0.66399   0.54816   0.02284   0.00000  Uiso   1.00
C447   C     0.66509   0.59134   0.02672   0.00000  Uiso   1.00
H448   H     0.36902   0.60372   0.01197   0.00000  Uiso   1.00
H449   H     0.65112   0.60094   0.06245   0.00000  Uiso   1.00
H450   H     0.64104   0.60518   0.00753   0.00000  Uiso   1.00
O451   O     0.60385   0.62663   0.20893   0.00000  Uiso   1.00
C452   C     0.62790   0.62220   0.16276   0.00000  Uiso   1.00
H453   H     0.60353   0.60581   0.14622   0.00000  Uiso   1.00
H454   H     0.66157   0.60336   0.15785   0.00000  Uiso   1.00
H455   H     0.63650   0.65273   0.14562   0.00000  Uiso   1.00
O456   O     0.40034   0.37423   0.28584   0.00000  Uiso   1.00
C457   C     0.44873   0.36265   0.26438   0.00000  Uiso   1.00
H458   H     0.47367   0.38577   0.27204   0.00000  Uiso   1.00
H459   H     0.45603   0.36177   0.22693   0.00000  Uiso   1.00
H460   H     0.45777   0.66597   0.27783   0.00000  Uiso   1.00
O461   O     0.53453   0.44799   0.30675   0.00000  Uiso   1.00
C462   C     0.50146   0.44188   0.34959   0.00000  Uiso   1.00
H463   H     0.52226   0.43251   0.37381   0.00000  Uiso   1.00
H464   H     0.48106   0.47036   0.36283   0.00000  Uiso   1.00
H465   H     0.47596   0.41649   0.34835   0.00000  Uiso   1.00
O466   O     0.46676   0.55107   0.19207   0.00000  Uiso   1.00
C467   C     0.47896   0.59262   0.19644   0.00000  Uiso   1.00
H468   H     0.51652   0.59908   0.17589   0.00000  Uiso   1.00
H469   H     0.47444   0.60139   0.23223   0.00000  Uiso   1.00
H470   H     0.45418   0.61251   0.18310   0.00000  Uiso   1.00
C471   C     0.66675   0.42069   0.25042   0.00000  Uiso   1.00
C472   C     0.66672   0.57924   0.24941   0.00000  Uiso   1.00
C473   C     0.86032   0.49424   0.04827   0.00000  Uiso   1.00
C474   C     0.80779   0.51770   0.45293   0.00000  Uiso   1.00
C475   C     0.90832   0.48561   0.02611   0.00000  Uiso   1.00
C476   C     0.75967   0.52568   0.47535   0.00000  Uiso   1.00
C477   C     0.96781   0.35549   0.23163   0.00000  Uiso   1.00
C478   C     0.69964   0.64422   0.26733   0.00000  Uiso   1.00
C479   C     0.96842   0.64617   0.22934   0.00000  Uiso   1.00
C480   C     0.70171   0.35378   0.26666   0.00000  Uiso   1.00
C481   C     0.66684   0.62380   0.24869   0.00000  Uiso   1.00
C482   C     0.66747   0.37602   0.25012   0.00000  Uiso   1.00
C483   C     0.85002   0.47484   0.27939   0.00000  Uiso   1.00
C484   C     0.81641   0.52613   0.22186   0.00000  Uiso   1.00
C485   C     0.80013   0.47470   0.27856   0.00000  Uiso   1.00
C486   C     0.86647   0.52523   0.22136   0.00000  Uiso   1.00
C487   C     0.97279   0.50057   0.33615   0.00000  Uiso   1.00
C488   C     0.69390   0.49990   0.16383   0.00000  Uiso   1.00
C489   C     0.95806   0.49998   0.38559   0.00000  Uiso   1.00
C490   C     0.70881   0.50289   0.11447   0.00000  Uiso   1.00
C491   C     0.97177   0.47609   0.45618   0.00000  Uiso   1.00
C492   C     0.69530   0.53091   0.04537   0.00000  Uiso   1.00
C493   C     0.98735   0.48007   0.40925   0.00000  Uiso   1.00
C494   C     0.67912   0.52365   0.09182   0.00000  Uiso   1.00
C495   C     0.91382   0.51803   0.40915   0.00000  Uiso   1.00
C496   C     0.75446   0.48778   0.09025   0.00000  Uiso   1.00
C497   C     0.89308   0.50589   0.45471   0.00000  Uiso   1.00
C498   C     0.77504   0.50294   0.04583   0.00000  Uiso   1.00
C499   C     0.92450   0.48890   0.47912   0.00000  Uiso   1.00
C500   C     0.74325   0.52024   0.02208   0.00000  Uiso   1.00
C501   C     0.84249   0.50926   0.47681   0.00000  Uiso   1.00
C502   C     0.82572   0.50131   0.02397   0.00000  Uiso   1.00
Cu503  Cu    0.71355   0.50001   0.25000   0.00000  Uiso   1.00
Cu504  Cu    0.95311   0.49999   0.25000   0.00000  Uiso   1.00
H505   H     0.93278   0.47653   0.04602   0.00000  Uiso   1.00
H506   H     0.73512   0.53533   0.45575   0.00000  Uiso   1.00
H507   H     0.97649   0.53398   0.11003   0.00000  Uiso   1.00
H508   H     0.68931   0.46805   0.39142   0.00000  Uiso   1.00
H509   H     0.85046   0.49454   0.08460   0.00000  Uiso   1.00
H510   H     0.81739   0.51894   0.41675   0.00000  Uiso   1.00
H511   H     0.94241   0.37254   0.21766   0.00000  Uiso   1.00
H512   H     0.72318   0.62677   0.28309   0.00000  Uiso   1.00
H513   H     0.77418   0.45424   0.30037   0.00000  Uiso   1.00
H514   H     0.89244   0.54449   0.19787   0.00000  Uiso   1.00
N515   N     0.78403   0.50001   0.24999   0.00000  Uiso   1.00
N516   N     0.88264   0.49999   0.25001   0.00000  Uiso   1.00
O517   O     0.70625   0.43989   0.25000   0.00000  Uiso   1.00
O518   O     0.96042   0.56011   0.25000   0.00000  Uiso   1.00
O519   O     0.96039   0.43988   0.25001   0.00000  Uiso   1.00
O520   O     0.70628   0.56012   0.25000   0.00000  Uiso   1.00
O521   O     0.68519   0.50001   0.31492   0.00000  Uiso   1.00
O522   O     0.98148   0.49999   0.18509   0.00000  Uiso   1.00
O523   O     0.93933   0.50000   0.31492   0.00000  Uiso   1.00
O524   O     0.72733   0.50000   0.18508   0.00000  Uiso   1.00
S525   S     0.77495   0.44039   0.10930   0.00000  Uiso   1.00
O526   O     0.80335   0.44849   0.14297   0.00000  Uiso   1.00
O527   O     0.73165   0.41424   0.13167   0.00000  Uiso   1.00
O528   O     0.80991   0.41431   0.06546   0.00000  Uiso   1.00
H529   H     0.82168   0.38996   0.07919   0.00000  Uiso   1.00
S530   S     0.89674   0.56532   0.38697   0.00000  Uiso   1.00
O531   O     0.86689   0.59151   0.42429   0.00000  Uiso   1.00
O532   O     0.94196   0.58867   0.36331   0.00000  Uiso   1.00
O533   O     0.86479   0.55590   0.34950   0.00000  Uiso   1.00
H534   H     0.86347   0.58262   0.33394   0.00000  Uiso   1.00
O535   O     0.66956   0.45990   0.47957   0.00000  Uiso   1.00
C536   C     0.66900   0.41659   0.47698   0.00000  Uiso   1.00
H537   H     0.68444   0.40612   0.44172   0.00000  Uiso   1.00
H538   H     0.96498   0.40411   0.49096   0.00000  Uiso   1.00
H539   H     0.69211   0.40368   0.49763   0.00000  Uiso   1.00
O540   O     0.99732   0.54816   0.02284   0.00000  Uiso   1.00
C541   C     0.99843   0.59134   0.02672   0.00000  Uiso   1.00
H542   H     0.70235   0.60372   0.01197   0.00000  Uiso   1.00
H543   H     0.98445   0.60094   0.06245   0.00000  Uiso   1.00
H544   H     0.97437   0.60518   0.00753   0.00000  Uiso   1.00
O545   O     0.93718   0.62663   0.20893   0.00000  Uiso   1.00
C546   C     0.96123   0.62220   0.16276   0.00000  Uiso   1.00
H547   H     0.93686   0.60581   0.14622   0.00000  Uiso   1.00
H548   H     0.99490   0.60336   0.15785   0.00000  Uiso   1.00
H549   H     0.96983   0.65273   0.14562   0.00000  Uiso   1.00
O550   O     0.73367   0.37423   0.28584   0.00000  Uiso   1.00
C551   C     0.78206   0.36265   0.26438   0.00000  Uiso   1.00
H552   H     0.80700   0.38577   0.27204   0.00000  Uiso   1.00
H553   H     0.78936   0.36177   0.22693   0.00000  Uiso   1.00
H554   H     0.79111   0.66597   0.27783   0.00000  Uiso   1.00
O555   O     0.86786   0.44799   0.30675   0.00000  Uiso   1.00
C556   C     0.83480   0.44188   0.34959   0.00000  Uiso   1.00
H557   H     0.85559   0.43251   0.37381   0.00000  Uiso   1.00
H558   H     0.81439   0.47036   0.36283   0.00000  Uiso   1.00
H559   H     0.80930   0.41649   0.34835   0.00000  Uiso   1.00
O560   O     0.80009   0.55107   0.19207   0.00000  Uiso   1.00
C561   C     0.81229   0.59262   0.19644   0.00000  Uiso   1.00
H562   H     0.84986   0.59908   0.17589   0.00000  Uiso   1.00
H563   H     0.80777   0.60139   0.23223   0.00000  Uiso   1.00
H564   H     0.78751   0.61251   0.18310   0.00000  Uiso   1.00
C565   C     0.00008   0.75403   0.25042   0.00000  Uiso   1.00
C566   C     0.00005   0.91257   0.24941   0.00000  Uiso   1.00
C567   C     0.19365   0.82757   0.04827   0.00000  Uiso   1.00
C568   C     0.14112   0.85104   0.45293   0.00000  Uiso   1.00
C569   C     0.24165   0.81894   0.02611   0.00000  Uiso   1.00
C570   C     0.09300   0.85901   0.47535   0.00000  Uiso   1.00
C571   C     0.30114   0.68883   0.23163   0.00000  Uiso   1.00
C572   C     0.03297   0.97755   0.26733   0.00000  Uiso   1.00
C573   C     0.30175   0.97950   0.22934   0.00000  Uiso   1.00
C574   C     0.03505   0.68711   0.26666   0.00000  Uiso   1.00
C575   C     0.00018   0.95714   0.24869   0.00000  Uiso   1.00
C576   C     0.00080   0.70935   0.25012   0.00000  Uiso   1.00
C577   C     0.18335   0.80817   0.27939   0.00000  Uiso   1.00
C578   C     0.14974   0.85946   0.22186   0.00000  Uiso   1.00
C579   C     0.13347   0.80803   0.27856   0.00000  Uiso   1.00
C580   C     0.19980   0.85856   0.22136   0.00000  Uiso   1.00
C581   C     0.30612   0.83391   0.33615   0.00000  Uiso   1.00
C582   C     0.02724   0.83324   0.16383   0.00000  Uiso   1.00
C583   C     0.29139   0.83331   0.38559   0.00000  Uiso   1.00
C584   C     0.04215   0.83622   0.11447   0.00000  Uiso   1.00
C585   C     0.30511   0.80942   0.45618   0.00000  Uiso   1.00
C586   C     0.02863   0.86424   0.04537   0.00000  Uiso   1.00
C587   C     0.32068   0.81340   0.40925   0.00000  Uiso   1.00
C588   C     0.01245   0.85698   0.09182   0.00000  Uiso   1.00
C589   C     0.24715   0.85136   0.40915   0.00000  Uiso   1.00
C590   C     0.08780   0.82111   0.09025   0.00000  Uiso   1.00
C591   C     0.22641   0.83923   0.45471   0.00000  Uiso   1.00
C592   C     0.10837   0.83628   0.04583   0.00000  Uiso   1.00
C593   C     0.25784   0.82224   0.47912   0.00000  Uiso   1.00
C594   C     0.07658   0.85358   0.02208   0.00000  Uiso   1.00
C595   C     0.17582   0.84259   0.47681   0.00000  Uiso   1.00
C596   C     0.15905   0.83464   0.02397   0.00000  Uiso   1.00
Cu597  Cu    0.04689   0.83334   0.25000   0.00000  Uiso   1.00
Cu598  Cu    0.28645   0.83333   0.25000   0.00000  Uiso   1.00
H599   H     0.26611   0.80986   0.04602   0.00000  Uiso   1.00
H600   H     0.06845   0.86866   0.45575   0.00000  Uiso   1.00
H601   H     0.30982   0.86732   0.11003   0.00000  Uiso   1.00
H602   H     0.02265   0.80138   0.39142   0.00000  Uiso   1.00
H603   H     0.18379   0.82788   0.08460   0.00000  Uiso   1.00
H604   H     0.15072   0.85227   0.41675   0.00000  Uiso   1.00
H605   H     0.27575   0.70587   0.21766   0.00000  Uiso   1.00
H606   H     0.05651   0.96010   0.28309   0.00000  Uiso   1.00
H607   H     0.10751   0.78757   0.30037   0.00000  Uiso   1.00
H608   H     0.22577   0.87783   0.19787   0.00000  Uiso   1.00
N609   N     0.11736   0.83334   0.24999   0.00000  Uiso   1.00
N610   N     0.21597   0.83332   0.25001   0.00000  Uiso   1.00
O611   O     0.03958   0.77322   0.25000   0.00000  Uiso   1.00
O612   O     0.29375   0.89345   0.25000   0.00000  Uiso   1.00
O613   O     0.29372   0.77321   0.25001   0.00000  Uiso   1.00
O614   O     0.03961   0.89346   0.25000   0.00000  Uiso   1.00
O615   O     0.01852   0.83334   0.31492   0.00000  Uiso   1.00
O616   O     0.31481   0.83332   0.18509   0.00000  Uiso   1.00
O617   O     0.27267   0.83333   0.31492   0.00000  Uiso   1.00
O618   O     0.06067   0.83333   0.18508   0.00000  Uiso   1.00
S619   S     0.10828   0.77373   0.10930   0.00000  Uiso   1.00
O620   O     0.13668   0.78182   0.14297   0.00000  Uiso   1.00
O621   O     0.06498   0.74758   0.13167   0.00000  Uiso   1.00
O622   O     0.14324   0.74764   0.06546   0.00000  Uiso   1.00
H623   H     0.15502   0.72329   0.07919   0.00000  Uiso   1.00
S624   S     0.23008   0.89865   0.38697   0.00000  Uiso   1.00
O625   O     0.20023   0.92485   0.42429   0.00000  Uiso   1.00
O626   O     0.27529   0.92201   0.36331   0.00000  Uiso   1.00
O627   O     0.19813   0.88924   0.34950   0.00000  Uiso   1.00
H628   H     0.19681   0.91595   0.33394   0.00000  Uiso   1.00
O629   O     0.00289   0.79323   0.47957   0.00000  Uiso   1.00
C630   C     0.00234   0.74993   0.47698   0.00000  Uiso   1.00
H631   H     0.01777   0.73945   0.44172   0.00000  Uiso   1.00
H632   H     0.29832   0.73744   0.49096   0.00000  Uiso   1.00
H633   H     0.02544   0.73702   0.49763   0.00000  Uiso   1.00
O634   O     0.33066   0.88150   0.02284   0.00000  Uiso   1.00
C635   C     0.33176   0.92467   0.02672   0.00000  Uiso   1.00
H636   H     0.03569   0.93706   0.01197   0.00000  Uiso   1.00
H637   H     0.31778   0.93427   0.06245   0.00000  Uiso   1.00
H638   H     0.30771   0.93851   0.00753   0.00000  Uiso   1.00
O639   O     0.27051   0.95996   0.20893   0.00000  Uiso   1.00
C640   C     0.29457   0.95553   0.16276   0.00000  Uiso   1.00
H641   H     0.27019   0.93914   0.14622   0.00000  Uiso   1.00
H642   H     0.32824   0.93670   0.15785   0.00000  Uiso   1.00
H643   H     0.30317   0.98606   0.14562   0.00000  Uiso   1.00
O644   O     0.06701   0.70757   0.28584   0.00000  Uiso   1.00
C645   C     0.11539   0.69599   0.26438   0.00000  Uiso   1.00
H646   H     0.14034   0.71910   0.27204   0.00000  Uiso   1.00
H647   H     0.12269   0.69510   0.22693   0.00000  Uiso   1.00
H648   H     0.12444   0.99930   0.27783   0.00000  Uiso   1.00
O649   O     0.20120   0.78133   0.30675   0.00000  Uiso   1.00
C650   C     0.16813   0.77521   0.34959   0.00000  Uiso   1.00
H651   H     0.18893   0.76584   0.37381   0.00000  Uiso   1.00
H652   H     0.14772   0.80369   0.36283   0.00000  Uiso   1.00
H653   H     0.14263   0.74982   0.34835   0.00000  Uiso   1.00
O654   O     0.13343   0.88440   0.19207   0.00000  Uiso   1.00
C655   C     0.14562   0.92595   0.19644   0.00000  Uiso   1.00
H656   H     0.18319   0.93241   0.17589   0.00000  Uiso   1.00
H657   H     0.14110   0.93473   0.23223   0.00000  Uiso   1.00
H658   H     0.12085   0.94584   0.18310   0.00000  Uiso   1.00
C659   C     0.33341   0.75403   0.25042   0.00000  Uiso   1.00
C660   C     0.33338   0.91257   0.24941   0.00000  Uiso   1.00
C661   C     0.52698   0.82757   0.04827   0.00000  Uiso   1.00
C662   C     0.47445   0.85104   0.45293   0.00000  Uiso   1.00
C663   C     0.57499   0.81894   0.02611   0.00000  Uiso   1.00
C664   C     0.42633   0.85901   0.47535   0.00000  Uiso   1.00
C665   C     0.63448   0.68883   0.23163   0.00000  Uiso   1.00
C666   C     0.36631   0.97755   0.26733   0.00000  Uiso   1.00
C667   C     0.63509   0.97950   0.22934   0.00000  Uiso   1.00
C668   C     0.36838   0.68711   0.26666   0.00000  Uiso   1.00
C669   C     0.33351   0.95714   0.24869   0.00000  Uiso   1.00
C670   C     0.33414   0.70935   0.25012   0.00000  Uiso   1.00
C671   C     0.51669   0.80817   0.27939   0.00000  Uiso   1.00
C672   C     0.48308   0.85946   0.22186   0.00000  Uiso   1.00
C673   C     0.46680   0.80803   0.27856   0.00000  Uiso   1.00
C674   C     0.53313   0.85856   0.22136   0.00000  Uiso   1.00
C675   C     0.63946   0.83391   0.33615   0.00000  Uiso   1.00
C676   C     0.36057   0.83324   0.16383   0.00000  Uiso   1.00
C677   C     0.62473   0.83331   0.38559   0.00000  Uiso   1.00
C678   C     0.37548   0.83622   0.11447   0.00000  Uiso   1.00
C679   C     0.63844   0.80942   0.45618   0.00000  Uiso   1.00
C680   C     0.36196   0.86424   0.04537   0.00000  Uiso   1.00
C681   C     0.65401   0.81340   0.40925   0.00000  Uiso   1.00
C682   C     0.34579   0.85698   0.09182   0.00000  Uiso   1.00
C683   C     0.58049   0.85136   0.40915   0.00000  Uiso   1.00
C684   C     0.42113   0.82111   0.09025   0.00000  Uiso   1.00
C685   C     0.55974   0.83923   0.45471   0.00000  Uiso   1.00
C686   C     0.44170   0.83628   0.04583   0.00000  Uiso   1.00
C687   C     0.59117   0.82224   0.47912   0.00000  Uiso   1.00
C688   C     0.40991   0.85358   0.02208   0.00000  Uiso   1.00
C689   C     0.50915   0.84259   0.47681   0.00000  Uiso   1.00
C690   C     0.49239   0.83464   0.02397   0.00000  Uiso   1.00
Cu691  Cu    0.38022   0.83334   0.25000   0.00000  Uiso   1.00
Cu692  Cu    0.61978   0.83333   0.25000   0.00000  Uiso   1.00
H693   H     0.59945   0.80986   0.04602   0.00000  Uiso   1.00
H694   H     0.40178   0.86866   0.45575   0.00000  Uiso   1.00
H695   H     0.64316   0.86732   0.11003   0.00000  Uiso   1.00
H696   H     0.35598   0.80138   0.39142   0.00000  Uiso   1.00
H697   H     0.51713   0.82788   0.08460   0.00000  Uiso   1.00
H698   H     0.48406   0.85227   0.41675   0.00000  Uiso   1.00
H699   H     0.60908   0.70587   0.21766   0.00000  Uiso   1.00
H700   H     0.38984   0.96010   0.28309   0.00000  Uiso   1.00
H701   H     0.44084   0.78757   0.30037   0.00000  Uiso   1.00
H702   H     0.55910   0.87783   0.19787   0.00000  Uiso   1.00
N703   N     0.45069   0.83334   0.24999   0.00000  Uiso   1.00
N704   N     0.54931   0.83332   0.25001   0.00000  Uiso   1.00
O705   O     0.37291   0.77322   0.25000   0.00000  Uiso   1.00
O706   O     0.62709   0.89345   0.25000   0.00000  Uiso   1.00
O707   O     0.62706   0.77321   0.25001   0.00000  Uiso   1.00
O708   O     0.37294   0.89346   0.25000   0.00000  Uiso   1.00
O709   O     0.35186   0.83334   0.31492   0.00000  Uiso   1.00
O710   O     0.64814   0.83332   0.18509   0.00000  Uiso   1.00
O711   O     0.60600   0.83333   0.31492   0.00000  Uiso   1.00
O712   O     0.39400   0.83333   0.18508   0.00000  Uiso   1.00
S713   S     0.44162   0.77373   0.10930   0.00000  Uiso   1.00
O714   O     0.47002   0.78182   0.14297   0.00000  Uiso   1.00
O715   O     0.39831   0.74758   0.13167   0.00000  Uiso   1.00
O716   O     0.47658   0.74764   0.06546   0.00000  Uiso   1.00
H717   H     0.48835   0.72329   0.07919   0.00000  Uiso   1.00
S718   S     0.56341   0.89865   0.38697   0.00000  Uiso   1.00
O719   O     0.53356   0.92485   0.42429   0.00000  Uiso   1.00
O720   O     0.60862   0.92201   0.36331   0.00000  Uiso   1.00
O721   O     0.53146   0.88924   0.34950   0.00000  Uiso   1.00
H722   H     0.53014   0.91595   0.33394   0.00000  Uiso   1.00
O723   O     0.33622   0.79323   0.47957   0.00000  Uiso   1.00
C724   C     0.33567   0.74993   0.47698   0.00000  Uiso   1.00
H725   H     0.35111   0.73945   0.44172   0.00000  Uiso   1.00
H726   H     0.63165   0.73744   0.49096   0.00000  Uiso   1.00
H727   H     0.35877   0.73702   0.49763   0.00000  Uiso   1.00
O728   O     0.66399   0.88150   0.02284   0.00000  Uiso   1.00
C729   C     0.66509   0.92467   0.02672   0.00000  Uiso   1.00
H730   H     0.36902   0.93706   0.01197   0.00000  Uiso   1.00
H731   H     0.65112   0.93427   0.06245   0.00000  Uiso   1.00
H732   H     0.64104   0.93851   0.00753   0.00000  Uiso   1.00
O733   O     0.60385   0.95996   0.20893   0.00000  Uiso   1.00
C734   C     0.62790   0.95553   0.16276   0.00000  Uiso   1.00
H735   H     0.60353   0.93914   0.14622   0.00000  Uiso   1.00
H736   H     0.66157   0.93670   0.15785   0.00000  Uiso   1.00
H737   H     0.63650   0.98606   0.14562   0.00000  Uiso   1.00
O738   O     0.40034   0.70757   0.28584   0.00000  Uiso   1.00
C739   C     0.44873   0.69599   0.26438   0.00000  Uiso   1.00
H740   H     0.47367   0.71910   0.27204   0.00000  Uiso   1.00
H741   H     0.45603   0.69510   0.22693   0.00000  Uiso   1.00
H742   H     0.45777   0.99930   0.27783   0.00000  Uiso   1.00
O743   O     0.53453   0.78133   0.30675   0.00000  Uiso   1.00
C744   C     0.50146   0.77521   0.34959   0.00000  Uiso   1.00
H745   H     0.52226   0.76584   0.37381   0.00000  Uiso   1.00
H746   H     0.48106   0.80369   0.36283   0.00000  Uiso   1.00
H747   H     0.47596   0.74982   0.34835   0.00000  Uiso   1.00
O748   O     0.46676   0.88440   0.19207   0.00000  Uiso   1.00
C749   C     0.47896   0.92595   0.19644   0.00000  Uiso   1.00
H750   H     0.51652   0.93241   0.17589   0.00000  Uiso   1.00
H751   H     0.47444   0.93473   0.23223   0.00000  Uiso   1.00
H752   H     0.45418   0.94584   0.18310   0.00000  Uiso   1.00
C753   C     0.66675   0.75403   0.25042   0.00000  Uiso   1.00
C754   C     0.66672   0.91257   0.24941   0.00000  Uiso   1.00
C755   C     0.86032   0.82757   0.04827   0.00000  Uiso   1.00
C756   C     0.80779   0.85104   0.45293   0.00000  Uiso   1.00
C757   C     0.90832   0.81894   0.02611   0.00000  Uiso   1.00
C758   C     0.75967   0.85901   0.47535   0.00000  Uiso   1.00
C759   C     0.96781   0.68883   0.23163   0.00000  Uiso   1.00
C760   C     0.69964   0.97755   0.26733   0.00000  Uiso   1.00
C761   C     0.96842   0.97950   0.22934   0.00000  Uiso   1.00
C762   C     0.70171   0.68711   0.26666   0.00000  Uiso   1.00
C763   C     0.66684   0.95714   0.24869   0.00000  Uiso   1.00
C764   C     0.66747   0.70935   0.25012   0.00000  Uiso   1.00
C765   C     0.85002   0.80817   0.27939   0.00000  Uiso   1.00
C766   C     0.81641   0.85946   0.22186   0.00000  Uiso   1.00
C767   C     0.80013   0.80803   0.27856   0.00000  Uiso   1.00
C768   C     0.86647   0.85856   0.22136   0.00000  Uiso   1.00
C769   C     0.97279   0.83391   0.33615   0.00000  Uiso   1.00
C770   C     0.69390   0.83324   0.16383   0.00000  Uiso   1.00
C771   C     0.95806   0.83331   0.38559   0.00000  Uiso   1.00
C772   C     0.70881   0.83622   0.11447   0.00000  Uiso   1.00
C773   C     0.97177   0.80942   0.45618   0.00000  Uiso   1.00
C774   C     0.69530   0.86424   0.04537   0.00000  Uiso   1.00
C775   C     0.98735   0.81340   0.40925   0.00000  Uiso   1.00
C776   C     0.67912   0.85698   0.09182   0.00000  Uiso   1.00
C777   C     0.91382   0.85136   0.40915   0.00000  Uiso   1.00
C778   C     0.75446   0.82111   0.09025   0.00000  Uiso   1.00
C779   C     0.89308   0.83923   0.45471   0.00000  Uiso   1.00
C780   C     0.77504   0.83628   0.04583   0.00000  Uiso   1.00
C781   C     0.92450   0.82224   0.47912   0.00000  Uiso   1.00
C782   C     0.74325   0.85358   0.02208   0.00000  Uiso   1.00
C783   C     0.84249   0.84259   0.47681   0.00000  Uiso   1.00
C784   C     0.82572   0.83464   0.02397   0.00000  Uiso   1.00
Cu785  Cu    0.71355   0.83334   0.25000   0.00000  Uiso   1.00
Cu786  Cu    0.95311   0.83333   0.25000   0.00000  Uiso   1.00
H787   H     0.93278   0.80986   0.04602   0.00000  Uiso   1.00
H788   H     0.73512   0.86866   0.45575   0.00000  Uiso   1.00
H789   H     0.97649   0.86732   0.11003   0.00000  Uiso   1.00
H790   H     0.68931   0.80138   0.39142   0.00000  Uiso   1.00
H791   H     0.85046   0.82788   0.08460   0.00000  Uiso   1.00
H792   H     0.81739   0.85227   0.41675   0.00000  Uiso   1.00
H793   H     0.94241   0.70587   0.21766   0.00000  Uiso   1.00
H794   H     0.72318   0.96010   0.28309   0.00000  Uiso   1.00
H795   H     0.77418   0.78757   0.30037   0.00000  Uiso   1.00
H796   H     0.89244   0.87783   0.19787   0.00000  Uiso   1.00
N797   N     0.78403   0.83334   0.24999   0.00000  Uiso   1.00
N798   N     0.88264   0.83332   0.25001   0.00000  Uiso   1.00
O799   O     0.70625   0.77322   0.25000   0.00000  Uiso   1.00
O800   O     0.96042   0.89345   0.25000   0.00000  Uiso   1.00
O801   O     0.96039   0.77321   0.25001   0.00000  Uiso   1.00
O802   O     0.70628   0.89346   0.25000   0.00000  Uiso   1.00
O803   O     0.68519   0.83334   0.31492   0.00000  Uiso   1.00
O804   O     0.98148   0.83332   0.18509   0.00000  Uiso   1.00
O805   O     0.93933   0.83333   0.31492   0.00000  Uiso   1.00
O806   O     0.72733   0.83333   0.18508   0.00000  Uiso   1.00
S807   S     0.77495   0.77373   0.10930   0.00000  Uiso   1.00
O808   O     0.80335   0.78182   0.14297   0.00000  Uiso   1.00
O809   O     0.73165   0.74758   0.13167   0.00000  Uiso   1.00
O810   O     0.80991   0.74764   0.06546   0.00000  Uiso   1.00
H811   H     0.82168   0.72329   0.07919   0.00000  Uiso   1.00
S812   S     0.89674   0.89865   0.38697   0.00000  Uiso   1.00
O813   O     0.86689   0.92485   0.42429   0.00000  Uiso   1.00
O814   O     0.94196   0.92201   0.36331   0.00000  Uiso   1.00
O815   O     0.86479   0.88924   0.34950   0.00000  Uiso   1.00
H816   H     0.86347   0.91595   0.33394   0.00000  Uiso   1.00
O817   O     0.66956   0.79323   0.47957   0.00000  Uiso   1.00
C818   C     0.66900   0.74993   0.47698   0.00000  Uiso   1.00
H819   H     0.68444   0.73945   0.44172   0.00000  Uiso   1.00
H820   H     0.96498   0.73744   0.49096   0.00000  Uiso   1.00
H821   H     0.69211   0.73702   0.49763   0.00000  Uiso   1.00
O822   O     0.99732   0.88150   0.02284   0.00000  Uiso   1.00
C823   C     0.99843   0.92467   0.02672   0.00000  Uiso   1.00
H824   H     0.70235   0.93706   0.01197   0.00000  Uiso   1.00
H825   H     0.98445   0.93427   0.06245   0.00000  Uiso   1.00
H826   H     0.97437   0.93851   0.00753   0.00000  Uiso   1.00
O827   O     0.93718   0.95996   0.20893   0.00000  Uiso   1.00
C828   C     0.96123   0.95553   0.16276   0.00000  Uiso   1.00
H829   H     0.93686   0.93914   0.14622   0.00000  Uiso   1.00
H830   H     0.99490   0.93670   0.15785   0.00000  Uiso   1.00
H831   H     0.96983   0.98606   0.14562   0.00000  Uiso   1.00
O832   O     0.73367   0.70757   0.28584   0.00000  Uiso   1.00
C833   C     0.78206   0.69599   0.26438   0.00000  Uiso   1.00
H834   H     0.80700   0.71910   0.27204   0.00000  Uiso   1.00
H835   H     0.78936   0.69510   0.22693   0.00000  Uiso   1.00
H836   H     0.79111   0.99930   0.27783   0.00000  Uiso   1.00
O837   O     0.86786   0.78133   0.30675   0.00000  Uiso   1.00
C838   C     0.83480   0.77521   0.34959   0.00000  Uiso   1.00
H839   H     0.85559   0.76584   0.37381   0.00000  Uiso   1.00
H840   H     0.81439   0.80369   0.36283   0.00000  Uiso   1.00
H841   H     0.80930   0.74982   0.34835   0.00000  Uiso   1.00
O842   O     0.80009   0.88440   0.19207   0.00000  Uiso   1.00
C843   C     0.81229   0.92595   0.19644   0.00000  Uiso   1.00
H844   H     0.84986   0.93241   0.17589   0.00000  Uiso   1.00
H845   H     0.80777   0.93473   0.23223   0.00000  Uiso   1.00
H846   H     0.78751   0.94584   0.18310   0.00000  Uiso   1.00
C847   C     0.00008   0.08736   0.75042   0.00000  Uiso   1.00
C848   C     0.00005   0.24591   0.74941   0.00000  Uiso   1.00
C849   C     0.19365   0.16090   0.54827   0.00000  Uiso   1.00
C850   C     0.14112   0.18437   0.95293   0.00000  Uiso   1.00
C851   C     0.24165   0.15228   0.52611   0.00000  Uiso   1.00
C852   C     0.09300   0.19234   0.97535   0.00000  Uiso   1.00
C853   C     0.30114   0.02216   0.73163   0.00000  Uiso   1.00
C854   C     0.03297   0.31089   0.76733   0.00000  Uiso   1.00
C855   C     0.30175   0.31283   0.72934   0.00000  Uiso   1.00
C856   C     0.03505   0.02045   0.76666   0.00000  Uiso   1.00
C857   C     0.00018   0.29047   0.74869   0.00000  Uiso   1.00
C858   C     0.00080   0.04269   0.75012   0.00000  Uiso   1.00
C859   C     0.18335   0.14151   0.77939   0.00000  Uiso   1.00
C860   C     0.14974   0.19280   0.72186   0.00000  Uiso   1.00
C861   C     0.13347   0.14137   0.77856   0.00000  Uiso   1.00
C862   C     0.19980   0.19190   0.72136   0.00000  Uiso   1.00
C863   C     0.30612   0.16724   0.83615   0.00000  Uiso   1.00
C864   C     0.02724   0.16657   0.66383   0.00000  Uiso   1.00
C865   C     0.29139   0.16664   0.88559   0.00000  Uiso   1.00
C866   C     0.04215   0.16956   0.61447   0.00000  Uiso   1.00
C867   C     0.30511   0.14275   0.95618   0.00000  Uiso   1.00
C868   C     0.02863   0.19758   0.54537   0.00000  Uiso   1.00
C869   C     0.32068   0.14674   0.90925   0.00000  Uiso   1.00
C870   C     0.01245   0.19031   0.59182   0.00000  Uiso   1.00
C871   C     0.24715   0.18470   0.90915   0.00000  Uiso   1.00
C872   C     0.08780   0.15445   0.59025   0.00000  Uiso   1.00
C873   C     0.22641   0.17256   0.95471   0.00000  Uiso   1.00
C874   C     0.10837   0.16961   0.54583   0.00000  Uiso   1.00
C875   C     0.25784   0.15557   0.97912   0.00000  Uiso   1.00
C876   C     0.07658   0.18691   0.52208   0.00000  Uiso   1.00
C877   C     0.17582   0.17592   0.97681   0.00000  Uiso   1.00
C878   C     0.15905   0.16798   0.52397   0.00000  Uiso   1.00
Cu879  Cu    0.04689   0.16667   0.75000   0.00000  Uiso   1.00
Cu880  Cu    0.28645   0.16666   0.75000   0.00000  Uiso   1.00
H881   H     0.26611   0.14320   0.54602   0.00000  Uiso   1.00
H882   H     0.06845   0.20199   0.95575   0.00000  Uiso   1.00
H883   H     0.30982   0.20065   0.61003   0.00000  Uiso   1.00
H884   H     0.02265   0.13472   0.89142   0.00000  Uiso   1.00
H885   H     0.18379   0.16121   0.58460   0.00000  Uiso   1.00
H886   H     0.15072   0.18560   0.91675   0.00000  Uiso   1.00
H887   H     0.27575   0.03921   0.71766   0.00000  Uiso   1.00
H888   H     0.05651   0.29343   0.78309   0.00000  Uiso   1.00
H889   H     0.10751   0.12090   0.80037   0.00000  Uiso   1.00
H890   H     0.22577   0.21116   0.69787   0.00000  Uiso   1.00
N891   N     0.11736   0.16668   0.74999   0.00000  Uiso   1.00
N892   N     0.21597   0.16666   0.75001   0.00000  Uiso   1.00
O893   O     0.03958   0.10655   0.75000   0.00000  Uiso   1.00
O894   O     0.29375   0.22678   0.75000   0.00000  Uiso   1.00
O895   O     0.29372   0.10654   0.75001   0.00000  Uiso   1.00
O896   O     0.03961   0.22679   0.75000   0.00000  Uiso   1.00
O897   O     0.01852   0.16668   0.81492   0.00000  Uiso   1.00
O898   O     0.31481   0.16666   0.68509   0.00000  Uiso   1.00
O899   O     0.27267   0.16667   0.81492   0.00000  Uiso   1.00
O900   O     0.06067   0.16667   0.68508   0.00000  Uiso   1.00
S901   S     0.10828   0.10706   0.60930   0.00000  Uiso   1.00
O902   O     0.13668   0.11515   0.64297   0.00000  Uiso   1.00
O903   O     0.06498   0.08091   0.63167   0.00000  Uiso   1.00
O904   O     0.14324   0.08097   0.56546   0.00000  Uiso   1.00
H905   H     0.15502   0.05663   0.57919   0.00000  Uiso   1.00
S906   S     0.23008   0.23199   0.88697   0.00000  Uiso   1.00
O907   O     0.20023   0.25818   0.92429   0.00000  Uiso   1.00
O908   O     0.27529   0.25534   0.86331   0.00000  Uiso   1.00
O909   O     0.19813   0.22257   0.84950   0.00000  Uiso   1.00
H910   H     0.19681   0.24928   0.83394   0.00000  Uiso   1.00
O911   O     0.00289   0.12656   0.97957   0.00000  Uiso   1.00
C912   C     0.00234   0.08326   0.97698   0.00000  Uiso   1.00
H913   H     0.01777   0.07279   0.94172   0.00000  Uiso   1.00
H914   H     0.29832   0.07077   0.99096   0.00000  Uiso   1.00
H915   H     0.02544   0.07035   0.99763   0.00000  Uiso   1.00
O916   O     0.33066   0.21483   0.52284   0.00000  Uiso   1.00
C917   C     0.33176   0.25800   0.52672   0.00000  Uiso   1.00
H918   H     0.03569   0.27039   0.51197   0.00000  Uiso   1.00
H919   H     0.31778   0.26760   0.56245   0.00000  Uiso   1.00
H920   H     0.30771   0.27185   0.50753   0.00000  Uiso   1.00
O921   O     0.27051   0.29329   0.70893   0.00000  Uiso   1.00
C922   C     0.29457   0.28887   0.66276   0.00000  Uiso   1.00
H923   H     0.27019   0.27248   0.64622   0.00000  Uiso   1.00
H924   H     0.32824   0.27003   0.65785   0.00000  Uiso   1.00
H925   H     0.30317   0.31940   0.64562   0.00000  Uiso   1.00
O926   O     0.06701   0.04090   0.78584   0.00000  Uiso   1.00
C927   C     0.11539   0.02932   0.76438   0.00000  Uiso   1.00
H928   H     0.14034   0.05243   0.77204   0.00000  Uiso   1.00
H929   H     0.12269   0.02844   0.72693   0.00000  Uiso   1.00
H930   H     0.12444   0.33263   0.77783   0.00000  Uiso   1.00
O931   O     0.20120   0.11466   0.80675   0.00000  Uiso   1.00
C932   C     0.16813   0.10855   0.84959   0.00000  Uiso   1.00
H933   H     0.18893   0.09917   0.87381   0.00000  Uiso   1.00
H934   H     0.14772   0.13702   0.86283   0.00000  Uiso   1.00
H935   H     0.14263   0.08316   0.84835   0.00000  Uiso   1.00
O936   O     0.13343   0.21773   0.69207   0.00000  Uiso   1.00
C937   C     0.14562   0.25928   0.69644   0.00000  Uiso   1.00
H938   H     0.18319   0.26574   0.67589   0.00000  Uiso   1.00
H939   H     0.14110   0.26806   0.73223   0.00000  Uiso   1.00
H940   H     0.12085   0.27917   0.68310   0.00000  Uiso   1.00
C941   C     0.33341   0.08736   0.75042   0.00000  Uiso   1.00
C942   C     0.33338   0.24591   0.74941   0.00000  Uiso   1.00
C943   C     0.52698   0.16090   0.54827   0.00000  Uiso   1.00
C944   C     0.47445   0.18437   0.95293   0.00000  Uiso   1.00
C945   C     0.57499   0.15228   0.52611   0.00000  Uiso   1.00
C946   C     0.42633   0.19234   0.97535   0.00000  Uiso   1.00
C947   C     0.63448   0.02216   0.73163   0.00000  Uiso   1.00
C948   C     0.36631   0.31089   0.76733   0.00000  Uiso   1.00
C949   C     0.63509   0.31283   0.72934   0.00000  Uiso   1.00
C950   C     0.36838   0.02045   0.76666   0.00000  Uiso   1.00
C951   C     0.33351   0.29047   0.74869   0.00000  Uiso   1.00
C952   C     0.33414   0.04269   0.75012   0.00000  Uiso   1.00
C953   C     0.51669   0.14151   0.77939   0.00000  Uiso   1.00
C954   C     0.48308   0.19280   0.72186   0.00000  Uiso   1.00
C955   C     0.46680   0.14137   0.77856   0.00000  Uiso   1.00
C956   C     0.53313   0.19190   0.72136   0.00000  Uiso   1.00
C957   C     0.63946   0.16724   0.83615   0.00000  Uiso   1.00
C958   C     0.36057   0.16657   0.66383   0.00000  Uiso   1.00
C959   C     0.62473   0.16664   0.88559   0.00000  Uiso   1.00
C960   C     0.37548   0.16956   0.61447   0.00000  Uiso   1.00
C961   C     0.63844   0.14275   0.95618   0.00000  Uiso   1.00
C962   C     0.36196   0.19758   0.54537   0.00000  Uiso   1.00
C963   C     0.65401   0.14674   0.90925   0.00000  Uiso   1.00
C964   C     0.34579   0.19031   0.59182   0.00000  Uiso   1.00
C965   C     0.58049   0.18470   0.90915   0.00000  Uiso   1.00
C966   C     0.42113   0.15445   0.59025   0.00000  Uiso   1.00
C967   C     0.55974   0.17256   0.95471   0.00000  Uiso   1.00
C968   C     0.44170   0.16961   0.54583   0.00000  Uiso   1.00
C969   C     0.59117   0.15557   0.97912   0.00000  Uiso   1.00
C970   C     0.40991   0.18691   0.52208   0.00000  Uiso   1.00
C971   C     0.50915   0.17592   0.97681   0.00000  Uiso   1.00
C972   C     0.49239   0.16798   0.52397   0.00000  Uiso   1.00
Cu973  Cu    0.38022   0.16667   0.75000   0.00000  Uiso   1.00
Cu974  Cu    0.61978   0.16666   0.75000   0.00000  Uiso   1.00
H975   H     0.59945   0.14320   0.54602   0.00000  Uiso   1.00
H976   H     0.40178   0.20199   0.95575   0.00000  Uiso   1.00
H977   H     0.64316   0.20065   0.61003   0.00000  Uiso   1.00
H978   H     0.35598   0.13472   0.89142   0.00000  Uiso   1.00
H979   H     0.51713   0.16121   0.58460   0.00000  Uiso   1.00
H980   H     0.48406   0.18560   0.91675   0.00000  Uiso   1.00
H981   H     0.60908   0.03921   0.71766   0.00000  Uiso   1.00
H982   H     0.38984   0.29343   0.78309   0.00000  Uiso   1.00
H983   H     0.44084   0.12090   0.80037   0.00000  Uiso   1.00
H984   H     0.55910   0.21116   0.69787   0.00000  Uiso   1.00
N985   N     0.45069   0.16668   0.74999   0.00000  Uiso   1.00
N986   N     0.54931   0.16666   0.75001   0.00000  Uiso   1.00
O987   O     0.37291   0.10655   0.75000   0.00000  Uiso   1.00
O988   O     0.62709   0.22678   0.75000   0.00000  Uiso   1.00
O989   O     0.62706   0.10654   0.75001   0.00000  Uiso   1.00
O990   O     0.37294   0.22679   0.75000   0.00000  Uiso   1.00
O991   O     0.35186   0.16668   0.81492   0.00000  Uiso   1.00
O992   O     0.64814   0.16666   0.68509   0.00000  Uiso   1.00
O993   O     0.60600   0.16667   0.81492   0.00000  Uiso   1.00
O994   O     0.39400   0.16667   0.68508   0.00000  Uiso   1.00
S995   S     0.44162   0.10706   0.60930   0.00000  Uiso   1.00
O996   O     0.47002   0.11515   0.64297   0.00000  Uiso   1.00
O997   O     0.39831   0.08091   0.63167   0.00000  Uiso   1.00
O998   O     0.47658   0.08097   0.56546   0.00000  Uiso   1.00
H999   H     0.48835   0.05663   0.57919   0.00000  Uiso   1.00
S1000  S     0.56341   0.23199   0.88697   0.00000  Uiso   1.00
O1001  O     0.53356   0.25818   0.92429   0.00000  Uiso   1.00
O1002  O     0.60862   0.25534   0.86331   0.00000  Uiso   1.00
O1003  O     0.53146   0.22257   0.84950   0.00000  Uiso   1.00
H1004  H     0.53014   0.24928   0.83394   0.00000  Uiso   1.00
O1005  O     0.33622   0.12656   0.97957   0.00000  Uiso   1.00
C1006  C     0.33567   0.08326   0.97698   0.00000  Uiso   1.00
H1007  H     0.35111   0.07279   0.94172   0.00000  Uiso   1.00
H1008  H     0.63165   0.07077   0.99096   0.00000  Uiso   1.00
H1009  H     0.35877   0.07035   0.99763   0.00000  Uiso   1.00
O1010  O     0.66399   0.21483   0.52284   0.00000  Uiso   1.00
C1011  C     0.66509   0.25800   0.52672   0.00000  Uiso   1.00
H1012  H     0.36902   0.27039   0.51197   0.00000  Uiso   1.00
H1013  H     0.65112   0.26760   0.56245   0.00000  Uiso   1.00
H1014  H     0.64104   0.27185   0.50753   0.00000  Uiso   1.00
O1015  O     0.60385   0.29329   0.70893   0.00000  Uiso   1.00
C1016  C     0.62790   0.28887   0.66276   0.00000  Uiso   1.00
H1017  H     0.60353   0.27248   0.64622   0.00000  Uiso   1.00
H1018  H     0.66157   0.27003   0.65785   0.00000  Uiso   1.00
H1019  H     0.63650   0.31940   0.64562   0.00000  Uiso   1.00
O1020  O     0.40034   0.04090   0.78584   0.00000  Uiso   1.00
C1021  C     0.44873   0.02932   0.76438   0.00000  Uiso   1.00
H1022  H     0.47367   0.05243   0.77204   0.00000  Uiso   1.00
H1023  H     0.45603   0.02844   0.72693   0.00000  Uiso   1.00
H1024  H     0.45777   0.33263   0.77783   0.00000  Uiso   1.00
O1025  O     0.53453   0.11466   0.80675   0.00000  Uiso   1.00
C1026  C     0.50146   0.10855   0.84959   0.00000  Uiso   1.00
H1027  H     0.52226   0.09917   0.87381   0.00000  Uiso   1.00
H1028  H     0.48106   0.13702   0.86283   0.00000  Uiso   1.00
H1029  H     0.47596   0.08316   0.84835   0.00000  Uiso   1.00
O1030  O     0.46676   0.21773   0.69207   0.00000  Uiso   1.00
C1031  C     0.47896   0.25928   0.69644   0.00000  Uiso   1.00
H1032  H     0.51652   0.26574   0.67589   0.00000  Uiso   1.00
H1033  H     0.47444   0.26806   0.73223   0.00000  Uiso   1.00
H1034  H     0.45418   0.27917   0.68310   0.00000  Uiso   1.00
C1035  C     0.66675   0.08736   0.75042   0.00000  Uiso   1.00
C1036  C     0.66672   0.24591   0.74941   0.00000  Uiso   1.00
C1037  C     0.86032   0.16090   0.54827   0.00000  Uiso   1.00
C1038  C     0.80779   0.18437   0.95293   0.00000  Uiso   1.00
C1039  C     0.90832   0.15228   0.52611   0.00000  Uiso   1.00
C1040  C     0.75967   0.19234   0.97535   0.00000  Uiso   1.00
C1041  C     0.96781   0.02216   0.73163   0.00000  Uiso   1.00
C1042  C     0.69964   0.31089   0.76733   0.00000  Uiso   1.00
C1043  C     0.96842   0.31283   0.72934   0.00000  Uiso   1.00
C1044  C     0.70171   0.02045   0.76666   0.00000  Uiso   1.00
C1045  C     0.66684   0.29047   0.74869   0.00000  Uiso   1.00
C1046  C     0.66747   0.04269   0.75012   0.00000  Uiso   1.00
C1047  C     0.85002   0.14151   0.77939   0.00000  Uiso   1.00
C1048  C     0.81641   0.19280   0.72186   0.00000  Uiso   1.00
C1049  C     0.80013   0.14137   0.77856   0.00000  Uiso   1.00
C1050  C     0.86647   0.19190   0.72136   0.00000  Uiso   1.00
C1051  C     0.97279   0.16724   0.83615   0.00000  Uiso   1.00
C1052  C     0.69390   0.16657   0.66383   0.00000  Uiso   1.00
C1053  C     0.95806   0.16664   0.88559   0.00000  Uiso   1.00
C1054  C     0.70881   0.16956   0.61447   0.00000  Uiso   1.00
C1055  C     0.97177   0.14275   0.95618   0.00000  Uiso   1.00
C1056  C     0.69530   0.19758   0.54537   0.00000  Uiso   1.00
C1057  C     0.98735   0.14674   0.90925   0.00000  Uiso   1.00
C1058  C     0.67912   0.19031   0.59182   0.00000  Uiso   1.00
C1059  C     0.91382   0.18470   0.90915   0.00000  Uiso   1.00
C1060  C     0.75446   0.15445   0.59025   0.00000  Uiso   1.00
C1061  C     0.89308   0.17256   0.95471   0.00000  Uiso   1.00
C1062  C     0.77504   0.16961   0.54583   0.00000  Uiso   1.00
C1063  C     0.92450   0.15557   0.97912   0.00000  Uiso   1.00
C1064  C     0.74325   0.18691   0.52208   0.00000  Uiso   1.00
C1065  C     0.84249   0.17592   0.97681   0.00000  Uiso   1.00
C1066  C     0.82572   0.16798   0.52397   0.00000  Uiso   1.00
Cu1067 Cu    0.71355   0.16667   0.75000   0.00000  Uiso   1.00
Cu1068 Cu    0.95311   0.16666   0.75000   0.00000  Uiso   1.00
H1069  H     0.93278   0.14320   0.54602   0.00000  Uiso   1.00
H1070  H     0.73512   0.20199   0.95575   0.00000  Uiso   1.00
H1071  H     0.97649   0.20065   0.61003   0.00000  Uiso   1.00
H1072  H     0.68931   0.13472   0.89142   0.00000  Uiso   1.00
H1073  H     0.85046   0.16121   0.58460   0.00000  Uiso   1.00
H1074  H     0.81739   0.18560   0.91675   0.00000  Uiso   1.00
H1075  H     0.94241   0.03921   0.71766   0.00000  Uiso   1.00
H1076  H     0.72318   0.29343   0.78309   0.00000  Uiso   1.00
H1077  H     0.77418   0.12090   0.80037   0.00000  Uiso   1.00
H1078  H     0.89244   0.21116   0.69787   0.00000  Uiso   1.00
N1079  N     0.78403   0.16668   0.74999   0.00000  Uiso   1.00
N1080  N     0.88264   0.16666   0.75001   0.00000  Uiso   1.00
O1081  O     0.70625   0.10655   0.75000   0.00000  Uiso   1.00
O1082  O     0.96042   0.22678   0.75000   0.00000  Uiso   1.00
O1083  O     0.96039   0.10654   0.75001   0.00000  Uiso   1.00
O1084  O     0.70628   0.22679   0.75000   0.00000  Uiso   1.00
O1085  O     0.68519   0.16668   0.81492   0.00000  Uiso   1.00
O1086  O     0.98148   0.16666   0.68509   0.00000  Uiso   1.00
O1087  O     0.93933   0.16667   0.81492   0.00000  Uiso   1.00
O1088  O     0.72733   0.16667   0.68508   0.00000  Uiso   1.00
S1089  S     0.77495   0.10706   0.60930   0.00000  Uiso   1.00
O1090  O     0.80335   0.11515   0.64297   0.00000  Uiso   1.00
O1091  O     0.73165   0.08091   0.63167   0.00000  Uiso   1.00
O1092  O     0.80991   0.08097   0.56546   0.00000  Uiso   1.00
H1093  H     0.82168   0.05663   0.57919   0.00000  Uiso   1.00
S1094  S     0.89674   0.23199   0.88697   0.00000  Uiso   1.00
O1095  O     0.86689   0.25818   0.92429   0.00000  Uiso   1.00
O1096  O     0.94196   0.25534   0.86331   0.00000  Uiso   1.00
O1097  O     0.86479   0.22257   0.84950   0.00000  Uiso   1.00
H1098  H     0.86347   0.24928   0.83394   0.00000  Uiso   1.00
O1099  O     0.66956   0.12656   0.97957   0.00000  Uiso   1.00
C1100  C     0.66900   0.08326   0.97698   0.00000  Uiso   1.00
H1101  H     0.68444   0.07279   0.94172   0.00000  Uiso   1.00
H1102  H     0.96498   0.07077   0.99096   0.00000  Uiso   1.00
H1103  H     0.69211   0.07035   0.99763   0.00000  Uiso   1.00
O1104  O     0.99732   0.21483   0.52284   0.00000  Uiso   1.00
C1105  C     0.99843   0.25800   0.52672   0.00000  Uiso   1.00
H1106  H     0.70235   0.27039   0.51197   0.00000  Uiso   1.00
H1107  H     0.98445   0.26760   0.56245   0.00000  Uiso   1.00
H1108  H     0.97437   0.27185   0.50753   0.00000  Uiso   1.00
O1109  O     0.93718   0.29329   0.70893   0.00000  Uiso   1.00
C1110  C     0.96123   0.28887   0.66276   0.00000  Uiso   1.00
H1111  H     0.93686   0.27248   0.64622   0.00000  Uiso   1.00
H1112  H     0.99490   0.27003   0.65785   0.00000  Uiso   1.00
H1113  H     0.96983   0.31940   0.64562   0.00000  Uiso   1.00
O1114  O     0.73367   0.04090   0.78584   0.00000  Uiso   1.00
C1115  C     0.78206   0.02932   0.76438   0.00000  Uiso   1.00
H1116  H     0.80700   0.05243   0.77204   0.00000  Uiso   1.00
H1117  H     0.78936   0.02844   0.72693   0.00000  Uiso   1.00
H1118  H     0.79111   0.33263   0.77783   0.00000  Uiso   1.00
O1119  O     0.86786   0.11466   0.80675   0.00000  Uiso   1.00
C1120  C     0.83480   0.10855   0.84959   0.00000  Uiso   1.00
H1121  H     0.85559   0.09917   0.87381   0.00000  Uiso   1.00
H1122  H     0.81439   0.13702   0.86283   0.00000  Uiso   1.00
H1123  H     0.80930   0.08316   0.84835   0.00000  Uiso   1.00
O1124  O     0.80009   0.21773   0.69207   0.00000  Uiso   1.00
C1125  C     0.81229   0.25928   0.69644   0.00000  Uiso   1.00
H1126  H     0.84986   0.26574   0.67589   0.00000  Uiso   1.00
H1127  H     0.80777   0.26806   0.73223   0.00000  Uiso   1.00
H1128  H     0.78751   0.27917   0.68310   0.00000  Uiso   1.00
C1129  C     0.00008   0.42069   0.75042   0.00000  Uiso   1.00
C1130  C     0.00005   0.57924   0.74941   0.00000  Uiso   1.00
C1131  C     0.19365   0.49424   0.54827   0.00000  Uiso   1.00
C1132  C     0.14112   0.51770   0.95293   0.00000  Uiso   1.00
C1133  C     0.24165   0.48561   0.52611   0.00000  Uiso   1.00
C1134  C     0.09300   0.52568   0.97535   0.00000  Uiso   1.00
C1135  C     0.30114   0.35549   0.73163   0.00000  Uiso   1.00
C1136  C     0.03297   0.64422   0.76733   0.00000  Uiso   1.00
C1137  C     0.30175   0.64617   0.72934   0.00000  Uiso   1.00
C1138  C     0.03505   0.35378   0.76666   0.00000  Uiso   1.00
C1139  C     0.00018   0.62380   0.74869   0.00000  Uiso   1.00
C1140  C     0.00080   0.37602   0.75012   0.00000  Uiso   1.00
C1141  C     0.18335   0.47484   0.77939   0.00000  Uiso   1.00
C1142  C     0.14974   0.52613   0.72186   0.00000  Uiso   1.00
C1143  C     0.13347   0.47470   0.77856   0.00000  Uiso   1.00
C1144  C     0.19980   0.52523   0.72136   0.00000  Uiso   1.00
C1145  C     0.30612   0.50057   0.83615   0.00000  Uiso   1.00
C1146  C     0.02724   0.49990   0.66383   0.00000  Uiso   1.00
C1147  C     0.29139   0.49998   0.88559   0.00000  Uiso   1.00
C1148  C     0.04215   0.50289   0.61447   0.00000  Uiso   1.00
C1149  C     0.30511   0.47609   0.95618   0.00000  Uiso   1.00
C1150  C     0.02863   0.53091   0.54537   0.00000  Uiso   1.00
C1151  C     0.32068   0.48007   0.90925   0.00000  Uiso   1.00
C1152  C     0.01245   0.52365   0.59182   0.00000  Uiso   1.00
C1153  C     0.24715   0.51803   0.90915   0.00000  Uiso   1.00
C1154  C     0.08780   0.48778   0.59025   0.00000  Uiso   1.00
C1155  C     0.22641   0.50589   0.95471   0.00000  Uiso   1.00
C1156  C     0.10837   0.50294   0.54583   0.00000  Uiso   1.00
C1157  C     0.25784   0.48890   0.97912   0.00000  Uiso   1.00
C1158  C     0.07658   0.52024   0.52208   0.00000  Uiso   1.00
C1159  C     0.17582   0.50926   0.97681   0.00000  Uiso   1.00
C1160  C     0.15905   0.50131   0.52397   0.00000  Uiso   1.00
Cu1161 Cu    0.04689   0.50001   0.75000   0.00000  Uiso   1.00
Cu1162 Cu    0.28645   0.49999   0.75000   0.00000  Uiso   1.00
H1163  H     0.26611   0.47653   0.54602   0.00000  Uiso   1.00
H1164  H     0.06845   0.53533   0.95575   0.00000  Uiso   1.00
H1165  H     0.30982   0.53398   0.61003   0.00000  Uiso   1.00
H1166  H     0.02265   0.46805   0.89142   0.00000  Uiso   1.00
H1167  H     0.18379   0.49454   0.58460   0.00000  Uiso   1.00
H1168  H     0.15072   0.51894   0.91675   0.00000  Uiso   1.00
H1169  H     0.27575   0.37254   0.71766   0.00000  Uiso   1.00
H1170  H     0.05651   0.62677   0.78309   0.00000  Uiso   1.00
H1171  H     0.10751   0.45424   0.80037   0.00000  Uiso   1.00
H1172  H     0.22577   0.54449   0.69787   0.00000  Uiso   1.00
N1173  N     0.11736   0.50001   0.74999   0.00000  Uiso   1.00
N1174  N     0.21597   0.49999   0.75001   0.00000  Uiso   1.00
O1175  O     0.03958   0.43989   0.75000   0.00000  Uiso   1.00
O1176  O     0.29375   0.56011   0.75000   0.00000  Uiso   1.00
O1177  O     0.29372   0.43988   0.75001   0.00000  Uiso   1.00
O1178  O     0.03961   0.56012   0.75000   0.00000  Uiso   1.00
O1179  O     0.01852   0.50001   0.81492   0.00000  Uiso   1.00
O1180  O     0.31481   0.49999   0.68509   0.00000  Uiso   1.00
O1181  O     0.27267   0.50000   0.81492   0.00000  Uiso   1.00
O1182  O     0.06067   0.50000   0.68508   0.00000  Uiso   1.00
S1183  S     0.10828   0.44039   0.60930   0.00000  Uiso   1.00
O1184  O     0.13668   0.44849   0.64297   0.00000  Uiso   1.00
O1185  O     0.06498   0.41424   0.63167   0.00000  Uiso   1.00
O1186  O     0.14324   0.41431   0.56546   0.00000  Uiso   1.00
H1187  H     0.15502   0.38996   0.57919   0.00000  Uiso   1.00
S1188  S     0.23008   0.56532   0.88697   0.00000  Uiso   1.00
O1189  O     0.20023   0.59151   0.92429   0.00000  Uiso   1.00
O1190  O     0.27529   0.58867   0.86331   0.00000  Uiso   1.00
O1191  O     0.19813   0.55590   0.84950   0.00000  Uiso   1.00
H1192  H     0.19681   0.58262   0.83394   0.00000  Uiso   1.00
O1193  O     0.00289   0.45990   0.97957   0.00000  Uiso   1.00
C1194  C     0.00234   0.41659   0.97698   0.00000  Uiso   1.00
H1195  H     0.01777   0.40612   0.94172   0.00000  Uiso   1.00
H1196  H     0.29832   0.40411   0.99096   0.00000  Uiso   1.00
H1197  H     0.02544   0.40368   0.99763   0.00000  Uiso   1.00
O1198  O     0.33066   0.54816   0.52284   0.00000  Uiso   1.00
C1199  C     0.33176   0.59134   0.52672   0.00000  Uiso   1.00
H1200  H     0.03569   0.60372   0.51197   0.00000  Uiso   1.00
H1201  H     0.31778   0.60094   0.56245   0.00000  Uiso   1.00
H1202  H     0.30771   0.60518   0.50753   0.00000  Uiso   1.00
O1203  O     0.27051   0.62663   0.70893   0.00000  Uiso   1.00
C1204  C     0.29457   0.62220   0.66276   0.00000  Uiso   1.00
H1205  H     0.27019   0.60581   0.64622   0.00000  Uiso   1.00
H1206  H     0.32824   0.60336   0.65785   0.00000  Uiso   1.00
H1207  H     0.30317   0.65273   0.64562   0.00000  Uiso   1.00
O1208  O     0.06701   0.37423   0.78584   0.00000  Uiso   1.00
C1209  C     0.11539   0.36265   0.76438   0.00000  Uiso   1.00
H1210  H     0.14034   0.38577   0.77204   0.00000  Uiso   1.00
H1211  H     0.12269   0.36177   0.72693   0.00000  Uiso   1.00
H1212  H     0.12444   0.66597   0.77783   0.00000  Uiso   1.00
O1213  O     0.20120   0.44799   0.80675   0.00000  Uiso   1.00
C1214  C     0.16813   0.44188   0.84959   0.00000  Uiso   1.00
H1215  H     0.18893   0.43251   0.87381   0.00000  Uiso   1.00
H1216  H     0.14772   0.47036   0.86283   0.00000  Uiso   1.00
H1217  H     0.14263   0.41649   0.84835   0.00000  Uiso   1.00
O1218  O     0.13343   0.55107   0.69207   0.00000  Uiso   1.00
C1219  C     0.14562   0.59262   0.69644   0.00000  Uiso   1.00
H1220  H     0.18319   0.59908   0.67589   0.00000  Uiso   1.00
H1221  H     0.14110   0.60139   0.73223   0.00000  Uiso   1.00
H1222  H     0.12085   0.61251   0.68310   0.00000  Uiso   1.00
C1223  C     0.33341   0.42069   0.75042   0.00000  Uiso   1.00
C1224  C     0.33338   0.57924   0.74941   0.00000  Uiso   1.00
C1225  C     0.52698   0.49424   0.54827   0.00000  Uiso   1.00
C1226  C     0.47445   0.51770   0.95293   0.00000  Uiso   1.00
C1227  C     0.57499   0.48561   0.52611   0.00000  Uiso   1.00
C1228  C     0.42633   0.52568   0.97535   0.00000  Uiso   1.00
C1229  C     0.63448   0.35549   0.73163   0.00000  Uiso   1.00
C1230  C     0.36631   0.64422   0.76733   0.00000  Uiso   1.00
C1231  C     0.63509   0.64617   0.72934   0.00000  Uiso   1.00
C1232  C     0.36838   0.35378   0.76666   0.00000  Uiso   1.00
C1233  C     0.33351   0.62380   0.74869   0.00000  Uiso   1.00
C1234  C     0.33414   0.37602   0.75012   0.00000  Uiso   1.00
C1235  C     0.51669   0.47484   0.77939   0.00000  Uiso   1.00
C1236  C     0.48308   0.52613   0.72186   0.00000  Uiso   1.00
C1237  C     0.46680   0.47470   0.77856   0.00000  Uiso   1.00
C1238  C     0.53313   0.52523   0.72136   0.00000  Uiso   1.00
C1239  C     0.63946   0.50057   0.83615   0.00000  Uiso   1.00
C1240  C     0.36057   0.49990   0.66383   0.00000  Uiso   1.00
C1241  C     0.62473   0.49998   0.88559   0.00000  Uiso   1.00
C1242  C     0.37548   0.50289   0.61447   0.00000  Uiso   1.00
C1243  C     0.63844   0.47609   0.95618   0.00000  Uiso   1.00
C1244  C     0.36196   0.53091   0.54537   0.00000  Uiso   1.00
C1245  C     0.65401   0.48007   0.90925   0.00000  Uiso   1.00
C1246  C     0.34579   0.52365   0.59182   0.00000  Uiso   1.00
C1247  C     0.58049   0.51803   0.90915   0.00000  Uiso   1.00
C1248  C     0.42113   0.48778   0.59025   0.00000  Uiso   1.00
C1249  C     0.55974   0.50589   0.95471   0.00000  Uiso   1.00
C1250  C     0.44170   0.50294   0.54583   0.00000  Uiso   1.00
C1251  C     0.59117   0.48890   0.97912   0.00000  Uiso   1.00
C1252  C     0.40991   0.52024   0.52208   0.00000  Uiso   1.00
C1253  C     0.50915   0.50926   0.97681   0.00000  Uiso   1.00
C1254  C     0.49239   0.50131   0.52397   0.00000  Uiso   1.00
Cu1255 Cu    0.38022   0.50001   0.75000   0.00000  Uiso   1.00
Cu1256 Cu    0.61978   0.49999   0.75000   0.00000  Uiso   1.00
H1257  H     0.59945   0.47653   0.54602   0.00000  Uiso   1.00
H1258  H     0.40178   0.53533   0.95575   0.00000  Uiso   1.00
H1259  H     0.64316   0.53398   0.61003   0.00000  Uiso   1.00
H1260  H     0.35598   0.46805   0.89142   0.00000  Uiso   1.00
H1261  H     0.51713   0.49454   0.58460   0.00000  Uiso   1.00
H1262  H     0.48406   0.51894   0.91675   0.00000  Uiso   1.00
H1263  H     0.60908   0.37254   0.71766   0.00000  Uiso   1.00
H1264  H     0.38984   0.62677   0.78309   0.00000  Uiso   1.00
H1265  H     0.44084   0.45424   0.80037   0.00000  Uiso   1.00
H1266  H     0.55910   0.54449   0.69787   0.00000  Uiso   1.00
N1267  N     0.45069   0.50001   0.74999   0.00000  Uiso   1.00
N1268  N     0.54931   0.49999   0.75001   0.00000  Uiso   1.00
O1269  O     0.37291   0.43989   0.75000   0.00000  Uiso   1.00
O1270  O     0.62709   0.56011   0.75000   0.00000  Uiso   1.00
O1271  O     0.62706   0.43988   0.75001   0.00000  Uiso   1.00
O1272  O     0.37294   0.56012   0.75000   0.00000  Uiso   1.00
O1273  O     0.35186   0.50001   0.81492   0.00000  Uiso   1.00
O1274  O     0.64814   0.49999   0.68509   0.00000  Uiso   1.00
O1275  O     0.60600   0.50000   0.81492   0.00000  Uiso   1.00
O1276  O     0.39400   0.50000   0.68508   0.00000  Uiso   1.00
S1277  S     0.44162   0.44039   0.60930   0.00000  Uiso   1.00
O1278  O     0.47002   0.44849   0.64297   0.00000  Uiso   1.00
O1279  O     0.39831   0.41424   0.63167   0.00000  Uiso   1.00
O1280  O     0.47658   0.41431   0.56546   0.00000  Uiso   1.00
H1281  H     0.48835   0.38996   0.57919   0.00000  Uiso   1.00
S1282  S     0.56341   0.56532   0.88697   0.00000  Uiso   1.00
O1283  O     0.53356   0.59151   0.92429   0.00000  Uiso   1.00
O1284  O     0.60862   0.58867   0.86331   0.00000  Uiso   1.00
O1285  O     0.53146   0.55590   0.84950   0.00000  Uiso   1.00
H1286  H     0.53014   0.58262   0.83394   0.00000  Uiso   1.00
O1287  O     0.33622   0.45990   0.97957   0.00000  Uiso   1.00
C1288  C     0.33567   0.41659   0.97698   0.00000  Uiso   1.00
H1289  H     0.35111   0.40612   0.94172   0.00000  Uiso   1.00
H1290  H     0.63165   0.40411   0.99096   0.00000  Uiso   1.00
H1291  H     0.35877   0.40368   0.99763   0.00000  Uiso   1.00
O1292  O     0.66399   0.54816   0.52284   0.00000  Uiso   1.00
C1293  C     0.66509   0.59134   0.52672   0.00000  Uiso   1.00
H1294  H     0.36902   0.60372   0.51197   0.00000  Uiso   1.00
H1295  H     0.65112   0.60094   0.56245   0.00000  Uiso   1.00
H1296  H     0.64104   0.60518   0.50753   0.00000  Uiso   1.00
O1297  O     0.60385   0.62663   0.70893   0.00000  Uiso   1.00
C1298  C     0.62790   0.62220   0.66276   0.00000  Uiso   1.00
H1299  H     0.60353   0.60581   0.64622   0.00000  Uiso   1.00
H1300  H     0.66157   0.60336   0.65785   0.00000  Uiso   1.00
H1301  H     0.63650   0.65273   0.64562   0.00000  Uiso   1.00
O1302  O     0.40034   0.37423   0.78584   0.00000  Uiso   1.00
C1303  C     0.44873   0.36265   0.76438   0.00000  Uiso   1.00
H1304  H     0.47367   0.38577   0.77204   0.00000  Uiso   1.00
H1305  H     0.45603   0.36177   0.72693   0.00000  Uiso   1.00
H1306  H     0.45777   0.66597   0.77783   0.00000  Uiso   1.00
O1307  O     0.53453   0.44799   0.80675   0.00000  Uiso   1.00
C1308  C     0.50146   0.44188   0.84959   0.00000  Uiso   1.00
H1309  H     0.52226   0.43251   0.87381   0.00000  Uiso   1.00
H1310  H     0.48106   0.47036   0.86283   0.00000  Uiso   1.00
H1311  H     0.47596   0.41649   0.84835   0.00000  Uiso   1.00
O1312  O     0.46676   0.55107   0.69207   0.00000  Uiso   1.00
C1313  C     0.47896   0.59262   0.69644   0.00000  Uiso   1.00
H1314  H     0.51652   0.59908   0.67589   0.00000  Uiso   1.00
H1315  H     0.47444   0.60139   0.73223   0.00000  Uiso   1.00
H1316  H     0.45418   0.61251   0.68310   0.00000  Uiso   1.00
C1317  C     0.66675   0.42069   0.75042   0.00000  Uiso   1.00
C1318  C     0.66672   0.57924   0.74941   0.00000  Uiso   1.00
C1319  C     0.86032   0.49424   0.54827   0.00000  Uiso   1.00
C1320  C     0.80779   0.51770   0.95293   0.00000  Uiso   1.00
C1321  C     0.90832   0.48561   0.52611   0.00000  Uiso   1.00
C1322  C     0.75967   0.52568   0.97535   0.00000  Uiso   1.00
C1323  C     0.96781   0.35549   0.73163   0.00000  Uiso   1.00
C1324  C     0.69964   0.64422   0.76733   0.00000  Uiso   1.00
C1325  C     0.96842   0.64617   0.72934   0.00000  Uiso   1.00
C1326  C     0.70171   0.35378   0.76666   0.00000  Uiso   1.00
C1327  C     0.66684   0.62380   0.74869   0.00000  Uiso   1.00
C1328  C     0.66747   0.37602   0.75012   0.00000  Uiso   1.00
C1329  C     0.85002   0.47484   0.77939   0.00000  Uiso   1.00
C1330  C     0.81641   0.52613   0.72186   0.00000  Uiso   1.00
C1331  C     0.80013   0.47470   0.77856   0.00000  Uiso   1.00
C1332  C     0.86647   0.52523   0.72136   0.00000  Uiso   1.00
C1333  C     0.97279   0.50057   0.83615   0.00000  Uiso   1.00
C1334  C     0.69390   0.49990   0.66383   0.00000  Uiso   1.00
C1335  C     0.95806   0.49998   0.88559   0.00000  Uiso   1.00
C1336  C     0.70881   0.50289   0.61447   0.00000  Uiso   1.00
C1337  C     0.97177   0.47609   0.95618   0.00000  Uiso   1.00
C1338  C     0.69530   0.53091   0.54537   0.00000  Uiso   1.00
C1339  C     0.98735   0.48007   0.90925   0.00000  Uiso   1.00
C1340  C     0.67912   0.52365   0.59182   0.00000  Uiso   1.00
C1341  C     0.91382   0.51803   0.90915   0.00000  Uiso   1.00
C1342  C     0.75446   0.48778   0.59025   0.00000  Uiso   1.00
C1343  C     0.89308   0.50589   0.95471   0.00000  Uiso   1.00
C1344  C     0.77504   0.50294   0.54583   0.00000  Uiso   1.00
C1345  C     0.92450   0.48890   0.97912   0.00000  Uiso   1.00
C1346  C     0.74325   0.52024   0.52208   0.00000  Uiso   1.00
C1347  C     0.84249   0.50926   0.97681   0.00000  Uiso   1.00
C1348  C     0.82572   0.50131   0.52397   0.00000  Uiso   1.00
Cu1349 Cu    0.71355   0.50001   0.75000   0.00000  Uiso   1.00
Cu1350 Cu    0.95311   0.49999   0.75000   0.00000  Uiso   1.00
H1351  H     0.93278   0.47653   0.54602   0.00000  Uiso   1.00
H1352  H     0.73512   0.53533   0.95575   0.00000  Uiso   1.00
H1353  H     0.97649   0.53398   0.61003   0.00000  Uiso   1.00
H1354  H     0.68931   0.46805   0.89142   0.00000  Uiso   1.00
H1355  H     0.85046   0.49454   0.58460   0.00000  Uiso   1.00
H1356  H     0.81739   0.51894   0.91675   0.00000  Uiso   1.00
H1357  H     0.94241   0.37254   0.71766   0.00000  Uiso   1.00
H1358  H     0.72318   0.62677   0.78309   0.00000  Uiso   1.00
H1359  H     0.77418   0.45424   0.80037   0.00000  Uiso   1.00
H1360  H     0.89244   0.54449   0.69787   0.00000  Uiso   1.00
N1361  N     0.78403   0.50001   0.74999   0.00000  Uiso   1.00
N1362  N     0.88264   0.49999   0.75001   0.00000  Uiso   1.00
O1363  O     0.70625   0.43989   0.75000   0.00000  Uiso   1.00
O1364  O     0.96042   0.56011   0.75000   0.00000  Uiso   1.00
O1365  O     0.96039   0.43988   0.75001   0.00000  Uiso   1.00
O1366  O     0.70628   0.56012   0.75000   0.00000  Uiso   1.00
O1367  O     0.68519   0.50001   0.81492   0.00000  Uiso   1.00
O1368  O     0.98148   0.49999   0.68509   0.00000  Uiso   1.00
O1369  O     0.93933   0.50000   0.81492   0.00000  Uiso   1.00
O1370  O     0.72733   0.50000   0.68508   0.00000  Uiso   1.00
S1371  S     0.77495   0.44039   0.60930   0.00000  Uiso   1.00
O1372  O     0.80335   0.44849   0.64297   0.00000  Uiso   1.00
O1373  O     0.73165   0.41424   0.63167   0.00000  Uiso   1.00
O1374  O     0.80991   0.41431   0.56546   0.00000  Uiso   1.00
H1375  H     0.82168   0.38996   0.57919   0.00000  Uiso   1.00
S1376  S     0.89674   0.56532   0.88697   0.00000  Uiso   1.00
O1377  O     0.86689   0.59151   0.92429   0.00000  Uiso   1.00
O1378  O     0.94196   0.58867   0.86331   0.00000  Uiso   1.00
O1379  O     0.86479   0.55590   0.84950   0.00000  Uiso   1.00
H1380  H     0.86347   0.58262   0.83394   0.00000  Uiso   1.00
O1381  O     0.66956   0.45990   0.97957   0.00000  Uiso   1.00
C1382  C     0.66900   0.41659   0.97698   0.00000  Uiso   1.00
H1383  H     0.68444   0.40612   0.94172   0.00000  Uiso   1.00
H1384  H     0.96498   0.40411   0.99096   0.00000  Uiso   1.00
H1385  H     0.69211   0.40368   0.99763   0.00000  Uiso   1.00
O1386  O     0.99732   0.54816   0.52284   0.00000  Uiso   1.00
C1387  C     0.99843   0.59134   0.52672   0.00000  Uiso   1.00
H1388  H     0.70235   0.60372   0.51197   0.00000  Uiso   1.00
H1389  H     0.98445   0.60094   0.56245   0.00000  Uiso   1.00
H1390  H     0.97437   0.60518   0.50753   0.00000  Uiso   1.00
O1391  O     0.93718   0.62663   0.70893   0.00000  Uiso   1.00
C1392  C     0.96123   0.62220   0.66276   0.00000  Uiso   1.00
H1393  H     0.93686   0.60581   0.64622   0.00000  Uiso   1.00
H1394  H     0.99490   0.60336   0.65785   0.00000  Uiso   1.00
H1395  H     0.96983   0.65273   0.64562   0.00000  Uiso   1.00
O1396  O     0.73367   0.37423   0.78584   0.00000  Uiso   1.00
C1397  C     0.78206   0.36265   0.76438   0.00000  Uiso   1.00
H1398  H     0.80700   0.38577   0.77204   0.00000  Uiso   1.00
H1399  H     0.78936   0.36177   0.72693   0.00000  Uiso   1.00
H1400  H     0.79111   0.66597   0.77783   0.00000  Uiso   1.00
O1401  O     0.86786   0.44799   0.80675   0.00000  Uiso   1.00
C1402  C     0.83480   0.44188   0.84959   0.00000  Uiso   1.00
H1403  H     0.85559   0.43251   0.87381   0.00000  Uiso   1.00
H1404  H     0.81439   0.47036   0.86283   0.00000  Uiso   1.00
H1405  H     0.80930   0.41649   0.84835   0.00000  Uiso   1.00
O1406  O     0.80009   0.55107   0.69207   0.00000  Uiso   1.00
C1407  C     0.81229   0.59262   0.69644   0.00000  Uiso   1.00
H1408  H     0.84986   0.59908   0.67589   0.00000  Uiso   1.00
H1409  H     0.80777   0.60139   0.73223   0.00000  Uiso   1.00
H1410  H     0.78751   0.61251   0.68310   0.00000  Uiso   1.00
C1411  C     0.00008   0.75403   0.75042   0.00000  Uiso   1.00
C1412  C     0.00005   0.91257   0.74941   0.00000  Uiso   1.00
C1413  C     0.19365   0.82757   0.54827   0.00000  Uiso   1.00
C1414  C     0.14112   0.85104   0.95293   0.00000  Uiso   1.00
C1415  C     0.24165   0.81894   0.52611   0.00000  Uiso   1.00
C1416  C     0.09300   0.85901   0.97535   0.00000  Uiso   1.00
C1417  C     0.30114   0.68883   0.73163   0.00000  Uiso   1.00
C1418  C     0.03297   0.97755   0.76733   0.00000  Uiso   1.00
C1419  C     0.30175   0.97950   0.72934   0.00000  Uiso   1.00
C1420  C     0.03505   0.68711   0.76666   0.00000  Uiso   1.00
C1421  C     0.00018   0.95714   0.74869   0.00000  Uiso   1.00
C1422  C     0.00080   0.70935   0.75012   0.00000  Uiso   1.00
C1423  C     0.18335   0.80817   0.77939   0.00000  Uiso   1.00
C1424  C     0.14974   0.85946   0.72186   0.00000  Uiso   1.00
C1425  C     0.13347   0.80803   0.77856   0.00000  Uiso   1.00
C1426  C     0.19980   0.85856   0.72136   0.00000  Uiso   1.00
C1427  C     0.30612   0.83391   0.83615   0.00000  Uiso   1.00
C1428  C     0.02724   0.83324   0.66383   0.00000  Uiso   1.00
C1429  C     0.29139   0.83331   0.88559   0.00000  Uiso   1.00
C1430  C     0.04215   0.83622   0.61447   0.00000  Uiso   1.00
C1431  C     0.30511   0.80942   0.95618   0.00000  Uiso   1.00
C1432  C     0.02863   0.86424   0.54537   0.00000  Uiso   1.00
C1433  C     0.32068   0.81340   0.90925   0.00000  Uiso   1.00
C1434  C     0.01245   0.85698   0.59182   0.00000  Uiso   1.00
C1435  C     0.24715   0.85136   0.90915   0.00000  Uiso   1.00
C1436  C     0.08780   0.82111   0.59025   0.00000  Uiso   1.00
C1437  C     0.22641   0.83923   0.95471   0.00000  Uiso   1.00
C1438  C     0.10837   0.83628   0.54583   0.00000  Uiso   1.00
C1439  C     0.25784   0.82224   0.97912   0.00000  Uiso   1.00
C1440  C     0.07658   0.85358   0.52208   0.00000  Uiso   1.00
C1441  C     0.17582   0.84259   0.97681   0.00000  Uiso   1.00
C1442  C     0.15905   0.83464   0.52397   0.00000  Uiso   1.00
Cu1443 Cu    0.04689   0.83334   0.75000   0.00000  Uiso   1.00
Cu1444 Cu    0.28645   0.83333   0.75000   0.00000  Uiso   1.00
H1445  H     0.26611   0.80986   0.54602   0.00000  Uiso   1.00
H1446  H     0.06845   0.86866   0.95575   0.00000  Uiso   1.00
H1447  H     0.30982   0.86732   0.61003   0.00000  Uiso   1.00
H1448  H     0.02265   0.80138   0.89142   0.00000  Uiso   1.00
H1449  H     0.18379   0.82788   0.58460   0.00000  Uiso   1.00
H1450  H     0.15072   0.85227   0.91675   0.00000  Uiso   1.00
H1451  H     0.27575   0.70587   0.71766   0.00000  Uiso   1.00
H1452  H     0.05651   0.96010   0.78309   0.00000  Uiso   1.00
H1453  H     0.10751   0.78757   0.80037   0.00000  Uiso   1.00
H1454  H     0.22577   0.87783   0.69787   0.00000  Uiso   1.00
N1455  N     0.11736   0.83334   0.74999   0.00000  Uiso   1.00
N1456  N     0.21597   0.83332   0.75001   0.00000  Uiso   1.00
O1457  O     0.03958   0.77322   0.75000   0.00000  Uiso   1.00
O1458  O     0.29375   0.89345   0.75000   0.00000  Uiso   1.00
O1459  O     0.29372   0.77321   0.75001   0.00000  Uiso   1.00
O1460  O     0.03961   0.89346   0.75000   0.00000  Uiso   1.00
O1461  O     0.01852   0.83334   0.81492   0.00000  Uiso   1.00
O1462  O     0.31481   0.83332   0.68509   0.00000  Uiso   1.00
O1463  O     0.27267   0.83333   0.81492   0.00000  Uiso   1.00
O1464  O     0.06067   0.83333   0.68508   0.00000  Uiso   1.00
S1465  S     0.10828   0.77373   0.60930   0.00000  Uiso   1.00
O1466  O     0.13668   0.78182   0.64297   0.00000  Uiso   1.00
O1467  O     0.06498   0.74758   0.63167   0.00000  Uiso   1.00
O1468  O     0.14324   0.74764   0.56546   0.00000  Uiso   1.00
H1469  H     0.15502   0.72329   0.57919   0.00000  Uiso   1.00
S1470  S     0.23008   0.89865   0.88697   0.00000  Uiso   1.00
O1471  O     0.20023   0.92485   0.92429   0.00000  Uiso   1.00
O1472  O     0.27529   0.92201   0.86331   0.00000  Uiso   1.00
O1473  O     0.19813   0.88924   0.84950   0.00000  Uiso   1.00
H1474  H     0.19681   0.91595   0.83394   0.00000  Uiso   1.00
O1475  O     0.00289   0.79323   0.97957   0.00000  Uiso   1.00
C1476  C     0.00234   0.74993   0.97698   0.00000  Uiso   1.00
H1477  H     0.01777   0.73945   0.94172   0.00000  Uiso   1.00
H1478  H     0.29832   0.73744   0.99096   0.00000  Uiso   1.00
H1479  H     0.02544   0.73702   0.99763   0.00000  Uiso   1.00
O1480  O     0.33066   0.88150   0.52284   0.00000  Uiso   1.00
C1481  C     0.33176   0.92467   0.52672   0.00000  Uiso   1.00
H1482  H     0.03569   0.93706   0.51197   0.00000  Uiso   1.00
H1483  H     0.31778   0.93427   0.56245   0.00000  Uiso   1.00
H1484  H     0.30771   0.93851   0.50753   0.00000  Uiso   1.00
O1485  O     0.27051   0.95996   0.70893   0.00000  Uiso   1.00
C1486  C     0.29457   0.95553   0.66276   0.00000  Uiso   1.00
H1487  H     0.27019   0.93914   0.64622   0.00000  Uiso   1.00
H1488  H     0.32824   0.93670   0.65785   0.00000  Uiso   1.00
H1489  H     0.30317   0.98606   0.64562   0.00000  Uiso   1.00
O1490  O     0.06701   0.70757   0.78584   0.00000  Uiso   1.00
C1491  C     0.11539   0.69599   0.76438   0.00000  Uiso   1.00
H1492  H     0.14034   0.71910   0.77204   0.00000  Uiso   1.00
H1493  H     0.12269   0.69510   0.72693   0.00000  Uiso   1.00
H1494  H     0.12444   0.99930   0.77783   0.00000  Uiso   1.00
O1495  O     0.20120   0.78133   0.80675   0.00000  Uiso   1.00
C1496  C     0.16813   0.77521   0.84959   0.00000  Uiso   1.00
H1497  H     0.18893   0.76584   0.87381   0.00000  Uiso   1.00
H1498  H     0.14772   0.80369   0.86283   0.00000  Uiso   1.00
H1499  H     0.14263   0.74982   0.84835   0.00000  Uiso   1.00
O1500  O     0.13343   0.88440   0.69207   0.00000  Uiso   1.00
C1501  C     0.14562   0.92595   0.69644   0.00000  Uiso   1.00
H1502  H     0.18319   0.93241   0.67589   0.00000  Uiso   1.00
H1503  H     0.14110   0.93473   0.73223   0.00000  Uiso   1.00
H1504  H     0.12085   0.94584   0.68310   0.00000  Uiso   1.00
C1505  C     0.33341   0.75403   0.75042   0.00000  Uiso   1.00
C1506  C     0.33338   0.91257   0.74941   0.00000  Uiso   1.00
C1507  C     0.52698   0.82757   0.54827   0.00000  Uiso   1.00
C1508  C     0.47445   0.85104   0.95293   0.00000  Uiso   1.00
C1509  C     0.57499   0.81894   0.52611   0.00000  Uiso   1.00
C1510  C     0.42633   0.85901   0.97535   0.00000  Uiso   1.00
C1511  C     0.63448   0.68883   0.73163   0.00000  Uiso   1.00
C1512  C     0.36631   0.97755   0.76733   0.00000  Uiso   1.00
C1513  C     0.63509   0.97950   0.72934   0.00000  Uiso   1.00
C1514  C     0.36838   0.68711   0.76666   0.00000  Uiso   1.00
C1515  C     0.33351   0.95714   0.74869   0.00000  Uiso   1.00
C1516  C     0.33414   0.70935   0.75012   0.00000  Uiso   1.00
C1517  C     0.51669   0.80817   0.77939   0.00000  Uiso   1.00
C1518  C     0.48308   0.85946   0.72186   0.00000  Uiso   1.00
C1519  C     0.46680   0.80803   0.77856   0.00000  Uiso   1.00
C1520  C     0.53313   0.85856   0.72136   0.00000  Uiso   1.00
C1521  C     0.63946   0.83391   0.83615   0.00000  Uiso   1.00
C1522  C     0.36057   0.83324   0.66383   0.00000  Uiso   1.00
C1523  C     0.62473   0.83331   0.88559   0.00000  Uiso   1.00
C1524  C     0.37548   0.83622   0.61447   0.00000  Uiso   1.00
C1525  C     0.63844   0.80942   0.95618   0.00000  Uiso   1.00
C1526  C     0.36196   0.86424   0.54537   0.00000  Uiso   1.00
C1527  C     0.65401   0.81340   0.90925   0.00000  Uiso   1.00
C1528  C     0.34579   0.85698   0.59182   0.00000  Uiso   1.00
C1529  C     0.58049   0.85136   0.90915   0.00000  Uiso   1.00
C1530  C     0.42113   0.82111   0.59025   0.00000  Uiso   1.00
C1531  C     0.55974   0.83923   0.95471   0.00000  Uiso   1.00
C1532  C     0.44170   0.83628   0.54583   0.00000  Uiso   1.00
C1533  C     0.59117   0.82224   0.97912   0.00000  Uiso   1.00
C1534  C     0.40991   0.85358   0.52208   0.00000  Uiso   1.00
C1535  C     0.50915   0.84259   0.97681   0.00000  Uiso   1.00
C1536  C     0.49239   0.83464   0.52397   0.00000  Uiso   1.00
Cu1537 Cu    0.38022   0.83334   0.75000   0.00000  Uiso   1.00
Cu1538 Cu    0.61978   0.83333   0.75000   0.00000  Uiso   1.00
H1539  H     0.59945   0.80986   0.54602   0.00000  Uiso   1.00
H1540  H     0.40178   0.86866   0.95575   0.00000  Uiso   1.00
H1541  H     0.64316   0.86732   0.61003   0.00000  Uiso   1.00
H1542  H     0.35598   0.80138   0.89142   0.00000  Uiso   1.00
H1543  H     0.51713   0.82788   0.58460   0.00000  Uiso   1.00
H1544  H     0.48406   0.85227   0.91675   0.00000  Uiso   1.00
H1545  H     0.60908   0.70587   0.71766   0.00000  Uiso   1.00
H1546  H     0.38984   0.96010   0.78309   0.00000  Uiso   1.00
H1547  H     0.44084   0.78757   0.80037   0.00000  Uiso   1.00
H1548  H     0.55910   0.87783   0.69787   0.00000  Uiso   1.00
N1549  N     0.45069   0.83334   0.74999   0.00000  Uiso   1.00
N1550  N     0.54931   0.83332   0.75001   0.00000  Uiso   1.00
O1551  O     0.37291   0.77322   0.75000   0.00000  Uiso   1.00
O1552  O     0.62709   0.89345   0.75000   0.00000  Uiso   1.00
O1553  O     0.62706   0.77321   0.75001   0.00000  Uiso   1.00
O1554  O     0.37294   0.89346   0.75000   0.00000  Uiso   1.00
O1555  O     0.35186   0.83334   0.81492   0.00000  Uiso   1.00
O1556  O     0.64814   0.83332   0.68509   0.00000  Uiso   1.00
O1557  O     0.60600   0.83333   0.81492   0.00000  Uiso   1.00
O1558  O     0.39400   0.83333   0.68508   0.00000  Uiso   1.00
S1559  S     0.44162   0.77373   0.60930   0.00000  Uiso   1.00
O1560  O     0.47002   0.78182   0.64297   0.00000  Uiso   1.00
O1561  O     0.39831   0.74758   0.63167   0.00000  Uiso   1.00
O1562  O     0.47658   0.74764   0.56546   0.00000  Uiso   1.00
H1563  H     0.48835   0.72329   0.57919   0.00000  Uiso   1.00
S1564  S     0.56341   0.89865   0.88697   0.00000  Uiso   1.00
O1565  O     0.53356   0.92485   0.92429   0.00000  Uiso   1.00
O1566  O     0.60862   0.92201   0.86331   0.00000  Uiso   1.00
O1567  O     0.53146   0.88924   0.84950   0.00000  Uiso   1.00
H1568  H     0.53014   0.91595   0.83394   0.00000  Uiso   1.00
O1569  O     0.33622   0.79323   0.97957   0.00000  Uiso   1.00
C1570  C     0.33567   0.74993   0.97698   0.00000  Uiso   1.00
H1571  H     0.35111   0.73945   0.94172   0.00000  Uiso   1.00
H1572  H     0.63165   0.73744   0.99096   0.00000  Uiso   1.00
H1573  H     0.35877   0.73702   0.99763   0.00000  Uiso   1.00
O1574  O     0.66399   0.88150   0.52284   0.00000  Uiso   1.00
C1575  C     0.66509   0.92467   0.52672   0.00000  Uiso   1.00
H1576  H     0.36902   0.93706   0.51197   0.00000  Uiso   1.00
H1577  H     0.65112   0.93427   0.56245   0.00000  Uiso   1.00
H1578  H     0.64104   0.93851   0.50753   0.00000  Uiso   1.00
O1579  O     0.60385   0.95996   0.70893   0.00000  Uiso   1.00
C1580  C     0.62790   0.95553   0.66276   0.00000  Uiso   1.00
H1581  H     0.60353   0.93914   0.64622   0.00000  Uiso   1.00
H1582  H     0.66157   0.93670   0.65785   0.00000  Uiso   1.00
H1583  H     0.63650   0.98606   0.64562   0.00000  Uiso   1.00
O1584  O     0.40034   0.70757   0.78584   0.00000  Uiso   1.00
C1585  C     0.44873   0.69599   0.76438   0.00000  Uiso   1.00
H1586  H     0.47367   0.71910   0.77204   0.00000  Uiso   1.00
H1587  H     0.45603   0.69510   0.72693   0.00000  Uiso   1.00
H1588  H     0.45777   0.99930   0.77783   0.00000  Uiso   1.00
O1589  O     0.53453   0.78133   0.80675   0.00000  Uiso   1.00
C1590  C     0.50146   0.77521   0.84959   0.00000  Uiso   1.00
H1591  H     0.52226   0.76584   0.87381   0.00000  Uiso   1.00
H1592  H     0.48106   0.80369   0.86283   0.00000  Uiso   1.00
H1593  H     0.47596   0.74982   0.84835   0.00000  Uiso   1.00
O1594  O     0.46676   0.88440   0.69207   0.00000  Uiso   1.00
C1595  C     0.47896   0.92595   0.69644   0.00000  Uiso   1.00
H1596  H     0.51652   0.93241   0.67589   0.00000  Uiso   1.00
H1597  H     0.47444   0.93473   0.73223   0.00000  Uiso   1.00
H1598  H     0.45418   0.94584   0.68310   0.00000  Uiso   1.00
C1599  C     0.66675   0.75403   0.75042   0.00000  Uiso   1.00
C1600  C     0.66672   0.91257   0.74941   0.00000  Uiso   1.00
C1601  C     0.86032   0.82757   0.54827   0.00000  Uiso   1.00
C1602  C     0.80779   0.85104   0.95293   0.00000  Uiso   1.00
C1603  C     0.90832   0.81894   0.52611   0.00000  Uiso   1.00
C1604  C     0.75967   0.85901   0.97535   0.00000  Uiso   1.00
C1605  C     0.96781   0.68883   0.73163   0.00000  Uiso   1.00
C1606  C     0.69964   0.97755   0.76733   0.00000  Uiso   1.00
C1607  C     0.96842   0.97950   0.72934   0.00000  Uiso   1.00
C1608  C     0.70171   0.68711   0.76666   0.00000  Uiso   1.00
C1609  C     0.66684   0.95714   0.74869   0.00000  Uiso   1.00
C1610  C     0.66747   0.70935   0.75012   0.00000  Uiso   1.00
C1611  C     0.85002   0.80817   0.77939   0.00000  Uiso   1.00
C1612  C     0.81641   0.85946   0.72186   0.00000  Uiso   1.00
C1613  C     0.80013   0.80803   0.77856   0.00000  Uiso   1.00
C1614  C     0.86647   0.85856   0.72136   0.00000  Uiso   1.00
C1615  C     0.97279   0.83391   0.83615   0.00000  Uiso   1.00
C1616  C     0.69390   0.83324   0.66383   0.00000  Uiso   1.00
C1617  C     0.95806   0.83331   0.88559   0.00000  Uiso   1.00
C1618  C     0.70881   0.83622   0.61447   0.00000  Uiso   1.00
C1619  C     0.97177   0.80942   0.95618   0.00000  Uiso   1.00
C1620  C     0.69530   0.86424   0.54537   0.00000  Uiso   1.00
C1621  C     0.98735   0.81340   0.90925   0.00000  Uiso   1.00
C1622  C     0.67912   0.85698   0.59182   0.00000  Uiso   1.00
C1623  C     0.91382   0.85136   0.90915   0.00000  Uiso   1.00
C1624  C     0.75446   0.82111   0.59025   0.00000  Uiso   1.00
C1625  C     0.89308   0.83923   0.95471   0.00000  Uiso   1.00
C1626  C     0.77504   0.83628   0.54583   0.00000  Uiso   1.00
C1627  C     0.92450   0.82224   0.97912   0.00000  Uiso   1.00
C1628  C     0.74325   0.85358   0.52208   0.00000  Uiso   1.00
C1629  C     0.84249   0.84259   0.97681   0.00000  Uiso   1.00
C1630  C     0.82572   0.83464   0.52397   0.00000  Uiso   1.00
Cu1631 Cu    0.71355   0.83334   0.75000   0.00000  Uiso   1.00
Cu1632 Cu    0.95311   0.83333   0.75000   0.00000  Uiso   1.00
H1633  H     0.93278   0.80986   0.54602   0.00000  Uiso   1.00
H1634  H     0.73512   0.86866   0.95575   0.00000  Uiso   1.00
H1635  H     0.97649   0.86732   0.61003   0.00000  Uiso   1.00
H1636  H     0.68931   0.80138   0.89142   0.00000  Uiso   1.00
H1637  H     0.85046   0.82788   0.58460   0.00000  Uiso   1.00
H1638  H     0.81739   0.85227   0.91675   0.00000  Uiso   1.00
H1639  H     0.94241   0.70587   0.71766   0.00000  Uiso   1.00
H1640  H     0.72318   0.96010   0.78309   0.00000  Uiso   1.00
H1641  H     0.77418   0.78757   0.80037   0.00000  Uiso   1.00
H1642  H     0.89244   0.87783   0.69787   0.00000  Uiso   1.00
N1643  N     0.78403   0.83334   0.74999   0.00000  Uiso   1.00
N1644  N     0.88264   0.83332   0.75001   0.00000  Uiso   1.00
O1645  O     0.70625   0.77322   0.75000   0.00000  Uiso   1.00
O1646  O     0.96042   0.89345   0.75000   0.00000  Uiso   1.00
O1647  O     0.96039   0.77321   0.75001   0.00000  Uiso   1.00
O1648  O     0.70628   0.89346   0.75000   0.00000  Uiso   1.00
O1649  O     0.68519   0.83334   0.81492   0.00000  Uiso   1.00
O1650  O     0.98148   0.83332   0.68509   0.00000  Uiso   1.00
O1651  O     0.93933   0.83333   0.81492   0.00000  Uiso   1.00
O1652  O     0.72733   0.83333   0.68508   0.00000  Uiso   1.00
S1653  S     0.77495   0.77373   0.60930   0.00000  Uiso   1.00
O1654  O     0.80335   0.78182   0.64297   0.00000  Uiso   1.00
O1655  O     0.73165   0.74758   0.63167   0.00000  Uiso   1.00
O1656  O     0.80991   0.74764   0.56546   0.00000  Uiso   1.00
H1657  H     0.82168   0.72329   0.57919   0.00000  Uiso   1.00
S1658  S     0.89674   0.89865   0.88697   0.00000  Uiso   1.00
O1659  O     0.86689   0.92485   0.92429   0.00000  Uiso   1.00
O1660  O     0.94196   0.92201   0.86331   0.00000  Uiso   1.00
O1661  O     0.86479   0.88924   0.84950   0.00000  Uiso   1.00
H1662  H     0.86347   0.91595   0.83394   0.00000  Uiso   1.00
O1663  O     0.66956   0.79323   0.97957   0.00000  Uiso   1.00
C1664  C     0.66900   0.74993   0.97698   0.00000  Uiso   1.00
H1665  H     0.68444   0.73945   0.94172   0.00000  Uiso   1.00
H1666  H     0.96498   0.73744   0.99096   0.00000  Uiso   1.00
H1667  H     0.69211   0.73702   0.99763   0.00000  Uiso   1.00
O1668  O     0.99732   0.88150   0.52284   0.00000  Uiso   1.00
C1669  C     0.99843   0.92467   0.52672   0.00000  Uiso   1.00
H1670  H     0.70235   0.93706   0.51197   0.00000  Uiso   1.00
H1671  H     0.98445   0.93427   0.56245   0.00000  Uiso   1.00
H1672  H     0.97437   0.93851   0.50753   0.00000  Uiso   1.00
O1673  O     0.93718   0.95996   0.70893   0.00000  Uiso   1.00
C1674  C     0.96123   0.95553   0.66276   0.00000  Uiso   1.00
H1675  H     0.93686   0.93914   0.64622   0.00000  Uiso   1.00
H1676  H     0.99490   0.93670   0.65785   0.00000  Uiso   1.00
H1677  H     0.96983   0.98606   0.64562   0.00000  Uiso   1.00
O1678  O     0.73367   0.70757   0.78584   0.00000  Uiso   1.00
C1679  C     0.78206   0.69599   0.76438   0.00000  Uiso   1.00
H1680  H     0.80700   0.71910   0.77204   0.00000  Uiso   1.00
H1681  H     0.78936   0.69510   0.72693   0.00000  Uiso   1.00
H1682  H     0.79111   0.99930   0.77783   0.00000  Uiso   1.00
O1683  O     0.86786   0.78133   0.80675   0.00000  Uiso   1.00
C1684  C     0.83480   0.77521   0.84959   0.00000  Uiso   1.00
H1685  H     0.85559   0.76584   0.87381   0.00000  Uiso   1.00
H1686  H     0.81439   0.80369   0.86283   0.00000  Uiso   1.00
H1687  H     0.80930   0.74982   0.84835   0.00000  Uiso   1.00
O1688  O     0.80009   0.88440   0.69207   0.00000  Uiso   1.00
C1689  C     0.81229   0.92595   0.69644   0.00000  Uiso   1.00
H1690  H     0.84986   0.93241   0.67589   0.00000  Uiso   1.00
H1691  H     0.80777   0.93473   0.73223   0.00000  Uiso   1.00
H1692  H     0.78751   0.94584   0.68310   0.00000  Uiso   1.00
loop_
_geom_bond_atom_site_label_1
_geom_bond_atom_site_label_2
_geom_bond_distance
_geom_bond_site_symmetry_2
_ccdc_geom_bond_type
C1     C12     1.450   .     S
C1     O47     1.289   .     A
C1     O237    1.294   1_455 S
C2     O50     1.291   .     A
C2     C11     1.447   .     S
C2     O236    1.290   1_455 S
C3     H39     1.077   .     S
C3     C5      1.386   .     A
C3     C32     1.407   .     A
C4     H40     1.073   .     S
C4     C6      1.387   .     A
C4     C31     1.408   .     A
C5     H35     1.083   .     S
C5     C875    1.397   1_554 S
C6     H36     1.084   .     S
C6     C876    1.396   .     S
C7     H41     1.084   .     S
C7     C573    1.387   1_545 S
C7     C106    1.400   .     S
C8     H42     1.083   .     S
C8     C11     1.397   .     A
C8     C292    1.394   .     S
C9     O75     1.382   .     S
C9     C289    1.387   .     S
C9     C105    1.406   .     S
C10    O80     1.389   .     S
C10    C12     1.410   .     A
C10    C572    1.394   1_545 S
C11    C197    1.406   1_455 S
C12    C195    1.400   1_455 S
C13    N46     1.374   .     A
C13    C15     1.432   .     A
C13    O85     1.391   .     S
C14    O90     1.385   .     S
C14    N45     1.372   .     A
C14    C16     1.426   .     A
C15    N45     1.362   .     A
C15    H43     1.080   .     S
C16    H44     1.081   .     S
C16    N46     1.363   .     A
C17    O53     1.295   .     A
C17    C19     1.465   .     S
C17    O145    1.294   .     S
C18    C20     1.465   .     S
C18    O54     1.294   .     A
C18    O240    1.295   1_455 S
C19    C23     1.399   .     A
C19    C25     1.406   .     A
C20    C24     1.400   .     A
C20    C26     1.406   .     A
C21    C23     1.396   .     A
C21    C29     1.409   .     A
C21    O159    1.383   .     S
C22    C24     1.396   .     A
C22    C30     1.408   .     A
C22    O258    1.383   1_455 S
C23    H132    1.084   .     S
C24    H225    1.084   1_455 S
C25    S60     1.790   .     S
C25    C27     1.418   .     A
C26    S55     1.790   .     S
C26    C28     1.417   .     A
C27    C29     1.422   .     A
C27    C31     1.426   .     A
C28    C32     1.424   .     A
C28    C30     1.419   .     A
C29    C851    1.397   .     S
C30    C852    1.396   1_554 S
C31    C878    1.421   .     S
C32    C877    1.421   1_554 S
Cu33   N45     2.013   .     S
Cu33   O50     1.962   .     S
Cu33   O47     1.964   .     S
Cu33   O54     1.929   .     S
Cu33   O51     1.943   .     S
Cu33   Cu222   2.679   1_455 S
Cu34   N46     2.013   .     S
Cu34   O48     1.964   .     S
Cu34   O49     1.962   .     S
Cu34   O52     1.943   .     S
Cu34   O53     1.929   .     S
Cu34   Cu127   2.679   .     S
H37    C118    1.084   .     S
H38    C211    1.084   1_455 S
O48    C96     1.290   .     S
O49    C95     1.294   .     S
O51    C205    1.294   1_455 S
O52    C112    1.295   .     S
S55    O56     1.504   .     D
S55    O57     1.504   .     D
S55    O58     1.683   .     S
O58    H59     0.990   .     S
S60    O63     1.683   .     S
S60    O62     1.504   .     D
S60    O61     1.503   .     D
O63    H64     0.991   .     S
O65    C66     1.409   .     S
O65    C209    1.383   1_455 S
C66    H69     1.109   .     S
C66    H67     1.113   .     S
C66    H256    1.114   1_455 S
H68    C160    1.114   .     S
O70    C71     1.409   .     S
O70    C116    1.383   .     S
C71    H73     1.112   .     S
C71    H74     1.109   .     S
C71    H166    1.114   .     S
H72    C259    1.114   1_455 S
O75    C76     1.411   .     S
C76    H79     1.113   .     S
C76    H77     1.108   .     S
C76    H78     1.114   .     S
O80    C81     1.414   .     S
C81    H82     1.107   .     S
C81    H83     1.115   .     S
C81    H648    1.110   1_545 S
H84    C363    1.110   .     S
O85    C86     1.412   .     S
C86    H88     1.112   .     S
C86    H87     1.109   .     S
C86    H89     1.110   .     S
O90    C91     1.412   .     S
C91    H92     1.109   .     S
C91    H93     1.114   .     S
C91    H94     1.110   .     S
C95    C106    1.450   .     S
C95    O141    1.289   .     A
C96    O144    1.291   .     A
C96    C105    1.447   .     S
C97    H133    1.077   .     S
C97    C99     1.386   .     A
C97    C126    1.407   .     A
C98    H134    1.073   .     S
C98    C100    1.387   .     A
C98    C125    1.408   .     A
C99    H129    1.083   .     S
C99    C969    1.397   1_554 S
C100   H130    1.084   .     S
C100   C970    1.396   .     S
C101   H135    1.084   .     S
C101   C667    1.387   1_545 S
C101   C200    1.400   .     S
C102   H136    1.083   .     S
C102   C105    1.397   .     A
C102   C386    1.394   .     S
C103   O169    1.382   .     S
C103   C383    1.387   .     S
C103   C199    1.406   .     S
C104   O174    1.389   .     S
C104   C106    1.410   .     A
C104   C666    1.394   1_545 S
C107   N140    1.374   .     A
C107   C109    1.432   .     A
C107   O179    1.391   .     S
C108   O184    1.385   .     S
C108   N139    1.372   .     A
C108   C110    1.426   .     A
C109   N139    1.362   .     A
C109   H137    1.080   .     S
C110   H138    1.081   .     S
C110   N140    1.363   .     A
C111   O147    1.295   .     A
C111   C113    1.465   .     S
C111   O239    1.294   .     S
C112   C114    1.465   .     S
C112   O148    1.294   .     A
C113   C117    1.399   .     A
C113   C119    1.406   .     A
C114   C118    1.400   .     A
C114   C120    1.406   .     A
C115   C117    1.396   .     A
C115   C123    1.409   .     A
C115   O253    1.383   .     S
C116   C118    1.396   .     A
C116   C124    1.408   .     A
C117   H226    1.084   .     S
C119   S154    1.790   .     S
C119   C121    1.418   .     A
C120   S149    1.790   .     S
C120   C122    1.417   .     A
C121   C123    1.422   .     A
C121   C125    1.426   .     A
C122   C126    1.424   .     A
C122   C124    1.419   .     A
C123   C945    1.397   .     S
C124   C946    1.396   1_554 S
C125   C972    1.421   .     S
C126   C971    1.421   1_554 S
Cu127  N139    2.013   .     S
Cu127  O144    1.962   .     S
Cu127  O141    1.964   .     S
Cu127  O148    1.929   .     S
Cu127  O145    1.943   .     S
Cu128  N140    2.013   .     S
Cu128  O142    1.964   .     S
Cu128  O143    1.962   .     S
Cu128  O146    1.943   .     S
Cu128  O147    1.929   .     S
Cu128  Cu221   2.679   .     S
H131   C212    1.084   .     S
O142   C190    1.290   .     S
O143   C189    1.294   .     S
O146   C206    1.295   .     S
S149   O150    1.504   .     D
S149   O151    1.504   .     D
S149   O152    1.683   .     S
O152   H153    0.990   .     S
S154   O157    1.683   .     S
S154   O156    1.504   .     D
S154   O155    1.503   .     D
O157   H158    0.991   .     S
O159   C160    1.409   .     S
C160   H163    1.109   .     S
C160   H161    1.113   .     S
H162   C254    1.114   .     S
O164   C165    1.409   .     S
O164   C210    1.383   .     S
C165   H167    1.112   .     S
C165   H168    1.109   .     S
C165   H260    1.114   .     S
O169   C170    1.411   .     S
C170   H173    1.113   .     S
C170   H171    1.108   .     S
C170   H172    1.114   .     S
O174   C175    1.414   .     S
C175   H176    1.107   .     S
C175   H177    1.115   .     S
C175   H742    1.110   1_545 S
H178   C457    1.110   .     S
O179   C180    1.412   .     S
C180   H182    1.112   .     S
C180   H181    1.109   .     S
C180   H183    1.110   .     S
O184   C185    1.412   .     S
C185   H186    1.109   .     S
C185   H187    1.114   .     S
C185   H188    1.110   .     S
C189   C200    1.450   .     S
C189   O235    1.289   .     A
C190   O238    1.291   .     A
C190   C199    1.447   .     S
C191   H227    1.077   .     S
C191   C193    1.386   .     A
C191   C220    1.407   .     A
C192   H228    1.073   .     S
C192   C194    1.387   .     A
C192   C219    1.408   .     A
C193   H223    1.083   .     S
C193   C1063   1.397   1_554 S
C194   H224    1.084   .     S
C194   C1064   1.396   .     S
C195   H229    1.084   .     S
C195   C761    1.387   1_545 S
C195   C12     1.400   1_655 S
C196   H230    1.083   .     S
C196   C199    1.397   .     A
C196   C480    1.394   .     S
C197   O263    1.382   .     S
C197   C477    1.387   .     S
C197   C11     1.406   1_655 S
C198   O268    1.389   .     S
C198   C200    1.410   .     A
C198   C760    1.394   1_545 S
C201   N234    1.374   .     A
C201   C203    1.432   .     A
C201   O273    1.391   .     S
C202   O278    1.385   .     S
C202   N233    1.372   .     A
C202   C204    1.426   .     A
C203   N233    1.362   .     A
C203   H231    1.080   .     S
C204   H232    1.081   .     S
C204   N234    1.363   .     A
C205   O241    1.295   .     A
C205   C207    1.465   .     S
C205   O51     1.294   1_655 S
C206   C208    1.465   .     S
C206   O242    1.294   .     A
C207   C211    1.399   .     A
C207   C213    1.406   .     A
C208   C212    1.400   .     A
C208   C214    1.406   .     A
C209   C211    1.396   .     A
C209   C217    1.409   .     A
C209   O65     1.383   1_655 S
C210   C212    1.396   .     A
C210   C218    1.408   .     A
C211   H38     1.084   1_655 S
C213   S248    1.790   .     S
C213   C215    1.418   .     A
C214   S243    1.790   .     S
C214   C216    1.417   .     A
C215   C217    1.422   .     A
C215   C219    1.426   .     A
C216   C220    1.424   .     A
C216   C218    1.419   .     A
C217   C1039   1.397   .     S
C218   C1040   1.396   1_554 S
C219   C1066   1.421   .     S
C220   C1065   1.421   1_554 S
Cu221  N233    2.013   .     S
Cu221  O238    1.962   .     S
Cu221  O235    1.964   .     S
Cu221  O242    1.929   .     S
Cu221  O239    1.943   .     S
Cu222  N234    2.013   .     S
Cu222  O236    1.964   .     S
Cu222  O237    1.962   .     S
Cu222  O240    1.943   .     S
Cu222  O241    1.929   .     S
Cu222  Cu33    2.679   1_655 S
H225   C24     1.084   1_655 S
O236   C2      1.290   1_655 S
O237   C1      1.294   1_655 S
O240   C18     1.295   1_655 S
S243   O244    1.504   .     D
S243   O245    1.504   .     D
S243   O246    1.683   .     S
O246   H247    0.990   .     S
S248   O251    1.683   .     S
S248   O250    1.504   .     D
S248   O249    1.503   .     D
O251   H252    0.991   .     S
O253   C254    1.409   .     S
C254   H257    1.109   .     S
C254   H255    1.113   .     S
H256   C66     1.114   1_655 S
O258   C259    1.409   .     S
O258   C22     1.383   1_655 S
C259   H261    1.112   .     S
C259   H262    1.109   .     S
C259   H72     1.114   1_655 S
O263   C264    1.411   .     S
C264   H267    1.113   .     S
C264   H265    1.108   .     S
C264   H266    1.114   .     S
O268   C269    1.414   .     S
C269   H270    1.107   .     S
C269   H271    1.115   .     S
C269   H836    1.110   1_545 S
H272   C551    1.110   .     S
O273   C274    1.412   .     S
C274   H276    1.112   .     S
C274   H275    1.109   .     S
C274   H277    1.110   .     S
O278   C279    1.412   .     S
C279   H280    1.109   .     S
C279   H281    1.114   .     S
C279   H282    1.110   .     S
C283   C294    1.450   .     S
C283   O329    1.289   .     A
C283   O519    1.294   1_455 S
C284   O332    1.291   .     A
C284   C293    1.447   .     S
C284   O518    1.290   1_455 S
C285   H321    1.077   .     S
C285   C287    1.386   .     A
C285   C314    1.407   .     A
C286   H322    1.073   .     S
C286   C288    1.387   .     A
C286   C313    1.408   .     A
C287   H317    1.083   .     S
C287   C1157   1.397   1_554 S
C288   H318    1.084   .     S
C288   C1158   1.396   .     S
C289   H323    1.084   .     S
C289   C388    1.400   .     S
C290   H324    1.083   .     S
C290   C293    1.397   .     A
C290   C574    1.394   .     S
C291   O357    1.382   .     S
C291   C571    1.387   .     S
C291   C387    1.406   .     S
C292   O362    1.389   .     S
C292   C294    1.410   .     A
C293   C479    1.406   1_455 S
C294   C477    1.400   1_455 S
C295   N328    1.374   .     A
C295   C297    1.432   .     A
C295   O367    1.391   .     S
C296   O372    1.385   .     S
C296   N327    1.372   .     A
C296   C298    1.426   .     A
C297   N327    1.362   .     A
C297   H325    1.080   .     S
C298   H326    1.081   .     S
C298   N328    1.363   .     A
C299   O335    1.295   .     A
C299   C301    1.465   .     S
C299   O427    1.294   .     S
C300   C302    1.465   .     S
C300   O336    1.294   .     A
C300   O522    1.295   1_455 S
C301   C305    1.399   .     A
C301   C307    1.406   .     A
C302   C306    1.400   .     A
C302   C308    1.406   .     A
C303   C305    1.396   .     A
C303   C311    1.409   .     A
C303   O441    1.383   .     S
C304   C306    1.396   .     A
C304   C312    1.408   .     A
C304   O540    1.383   1_455 S
C305   H414    1.084   .     S
C306   H507    1.084   1_455 S
C307   S342    1.790   .     S
C307   C309    1.418   .     A
C308   S337    1.790   .     S
C308   C310    1.417   .     A
C309   C311    1.422   .     A
C309   C313    1.426   .     A
C310   C314    1.424   .     A
C310   C312    1.419   .     A
C311   C1133   1.397   .     S
C312   C1134   1.396   1_554 S
C313   C1160   1.421   .     S
C314   C1159   1.421   1_554 S
Cu315  N327    2.013   .     S
Cu315  O332    1.962   .     S
Cu315  O329    1.964   .     S
Cu315  O336    1.929   .     S
Cu315  O333    1.943   .     S
Cu315  Cu504   2.679   1_455 S
Cu316  N328    2.013   .     S
Cu316  O330    1.964   .     S
Cu316  O331    1.962   .     S
Cu316  O334    1.943   .     S
Cu316  O335    1.929   .     S
Cu316  Cu409   2.679   .     S
H319   C400    1.084   .     S
H320   C493    1.084   1_455 S
O330   C378    1.290   .     S
O331   C377    1.294   .     S
O333   C487    1.294   1_455 S
O334   C394    1.295   .     S
S337   O338    1.504   .     D
S337   O339    1.504   .     D
S337   O340    1.683   .     S
O340   H341    0.990   .     S
S342   O345    1.683   .     S
S342   O344    1.504   .     D
S342   O343    1.503   .     D
O345   H346    0.991   .     S
O347   C348    1.409   .     S
O347   C491    1.383   1_455 S
C348   H351    1.109   .     S
C348   H349    1.113   .     S
C348   H538    1.114   1_455 S
H350   C442    1.114   .     S
O352   C353    1.409   .     S
O352   C398    1.383   .     S
C353   H355    1.112   .     S
C353   H356    1.109   .     S
C353   H448    1.114   .     S
H354   C541    1.114   1_455 S
O357   C358    1.411   .     S
C358   H361    1.113   .     S
C358   H359    1.108   .     S
C358   H360    1.114   .     S
O362   C363    1.414   .     S
C363   H364    1.107   .     S
C363   H365    1.115   .     S
H366   C645    1.110   .     S
O367   C368    1.412   .     S
C368   H370    1.112   .     S
C368   H369    1.109   .     S
C368   H371    1.110   .     S
O372   C373    1.412   .     S
C373   H374    1.109   .     S
C373   H375    1.114   .     S
C373   H376    1.110   .     S
C377   C388    1.450   .     S
C377   O423    1.289   .     A
C378   O426    1.291   .     A
C378   C387    1.447   .     S
C379   H415    1.077   .     S
C379   C381    1.386   .     A
C379   C408    1.407   .     A
C380   H416    1.073   .     S
C380   C382    1.387   .     A
C380   C407    1.408   .     A
C381   H411    1.083   .     S
C381   C1251   1.397   1_554 S
C382   H412    1.084   .     S
C382   C1252   1.396   .     S
C383   H417    1.084   .     S
C383   C482    1.400   .     S
C384   H418    1.083   .     S
C384   C387    1.397   .     A
C384   C668    1.394   .     S
C385   O451    1.382   .     S
C385   C665    1.387   .     S
C385   C481    1.406   .     S
C386   O456    1.389   .     S
C386   C388    1.410   .     A
C389   N422    1.374   .     A
C389   C391    1.432   .     A
C389   O461    1.391   .     S
C390   O466    1.385   .     S
C390   N421    1.372   .     A
C390   C392    1.426   .     A
C391   N421    1.362   .     A
C391   H419    1.080   .     S
C392   H420    1.081   .     S
C392   N422    1.363   .     A
C393   O429    1.295   .     A
C393   C395    1.465   .     S
C393   O521    1.294   .     S
C394   C396    1.465   .     S
C394   O430    1.294   .     A
C395   C399    1.399   .     A
C395   C401    1.406   .     A
C396   C400    1.400   .     A
C396   C402    1.406   .     A
C397   C399    1.396   .     A
C397   C405    1.409   .     A
C397   O535    1.383   .     S
C398   C400    1.396   .     A
C398   C406    1.408   .     A
C399   H508    1.084   .     S
C401   S436    1.790   .     S
C401   C403    1.418   .     A
C402   S431    1.790   .     S
C402   C404    1.417   .     A
C403   C405    1.422   .     A
C403   C407    1.426   .     A
C404   C408    1.424   .     A
C404   C406    1.419   .     A
C405   C1227   1.397   .     S
C406   C1228   1.396   1_554 S
C407   C1254   1.421   .     S
C408   C1253   1.421   1_554 S
Cu409  N421    2.013   .     S
Cu409  O426    1.962   .     S
Cu409  O423    1.964   .     S
Cu409  O430    1.929   .     S
Cu409  O427    1.943   .     S
Cu410  N422    2.013   .     S
Cu410  O424    1.964   .     S
Cu410  O425    1.962   .     S
Cu410  O428    1.943   .     S
Cu410  O429    1.929   .     S
Cu410  Cu503   2.679   .     S
H413   C494    1.084   .     S
O424   C472    1.290   .     S
O425   C471    1.294   .     S
O428   C488    1.295   .     S
S431   O432    1.504   .     D
S431   O433    1.504   .     D
S431   O434    1.683   .     S
O434   H435    0.990   .     S
S436   O439    1.683   .     S
S436   O438    1.504   .     D
S436   O437    1.503   .     D
O439   H440    0.991   .     S
O441   C442    1.409   .     S
C442   H445    1.109   .     S
C442   H443    1.113   .     S
H444   C536    1.114   .     S
O446   C447    1.409   .     S
O446   C492    1.383   .     S
C447   H449    1.112   .     S
C447   H450    1.109   .     S
C447   H542    1.114   .     S
O451   C452    1.411   .     S
C452   H455    1.113   .     S
C452   H453    1.108   .     S
C452   H454    1.114   .     S
O456   C457    1.414   .     S
C457   H458    1.107   .     S
C457   H459    1.115   .     S
H460   C739    1.110   .     S
O461   C462    1.412   .     S
C462   H464    1.112   .     S
C462   H463    1.109   .     S
C462   H465    1.110   .     S
O466   C467    1.412   .     S
C467   H468    1.109   .     S
C467   H469    1.114   .     S
C467   H470    1.110   .     S
C471   C482    1.450   .     S
C471   O517    1.289   .     A
C472   O520    1.291   .     A
C472   C481    1.447   .     S
C473   H509    1.077   .     S
C473   C475    1.386   .     A
C473   C502    1.407   .     A
C474   H510    1.073   .     S
C474   C476    1.387   .     A
C474   C501    1.408   .     A
C475   H505    1.083   .     S
C475   C1345   1.397   1_554 S
C476   H506    1.084   .     S
C476   C1346   1.396   .     S
C477   H511    1.084   .     S
C477   C294    1.400   1_655 S
C478   H512    1.083   .     S
C478   C481    1.397   .     A
C478   C762    1.394   .     S
C479   O545    1.382   .     S
C479   C759    1.387   .     S
C479   C293    1.406   1_655 S
C480   O550    1.389   .     S
C480   C482    1.410   .     A
C483   N516    1.374   .     A
C483   C485    1.432   .     A
C483   O555    1.391   .     S
C484   O560    1.385   .     S
C484   N515    1.372   .     A
C484   C486    1.426   .     A
C485   N515    1.362   .     A
C485   H513    1.080   .     S
C486   H514    1.081   .     S
C486   N516    1.363   .     A
C487   O523    1.295   .     A
C487   C489    1.465   .     S
C487   O333    1.294   1_655 S
C488   C490    1.465   .     S
C488   O524    1.294   .     A
C489   C493    1.399   .     A
C489   C495    1.406   .     A
C490   C494    1.400   .     A
C490   C496    1.406   .     A
C491   C493    1.396   .     A
C491   C499    1.409   .     A
C491   O347    1.383   1_655 S
C492   C494    1.396   .     A
C492   C500    1.408   .     A
C493   H320    1.084   1_655 S
C495   S530    1.790   .     S
C495   C497    1.418   .     A
C496   S525    1.790   .     S
C496   C498    1.417   .     A
C497   C499    1.422   .     A
C497   C501    1.426   .     A
C498   C502    1.424   .     A
C498   C500    1.419   .     A
C499   C1321   1.397   .     S
C500   C1322   1.396   1_554 S
C501   C1348   1.421   .     S
C502   C1347   1.421   1_554 S
Cu503  N515    2.013   .     S
Cu503  O520    1.962   .     S
Cu503  O517    1.964   .     S
Cu503  O524    1.929   .     S
Cu503  O521    1.943   .     S
Cu504  N516    2.013   .     S
Cu504  O518    1.964   .     S
Cu504  O519    1.962   .     S
Cu504  O522    1.943   .     S
Cu504  O523    1.929   .     S
Cu504  Cu315   2.679   1_655 S
H507   C306    1.084   1_655 S
O518   C284    1.290   1_655 S
O519   C283    1.294   1_655 S
O522   C300    1.295   1_655 S
S525   O526    1.504   .     D
S525   O527    1.504   .     D
S525   O528    1.683   .     S
O528   H529    0.990   .     S
S530   O533    1.683   .     S
S530   O532    1.504   .     D
S530   O531    1.503   .     D
O533   H534    0.991   .     S
O535   C536    1.409   .     S
C536   H539    1.109   .     S
C536   H537    1.113   .     S
H538   C348    1.114   1_655 S
O540   C541    1.409   .     S
O540   C304    1.383   1_655 S
C541   H543    1.112   .     S
C541   H544    1.109   .     S
C541   H354    1.114   1_655 S
O545   C546    1.411   .     S
C546   H549    1.113   .     S
C546   H547    1.108   .     S
C546   H548    1.114   .     S
O550   C551    1.414   .     S
C551   H552    1.107   .     S
C551   H553    1.115   .     S
H554   C833    1.110   .     S
O555   C556    1.412   .     S
C556   H558    1.112   .     S
C556   H557    1.109   .     S
C556   H559    1.110   .     S
O560   C561    1.412   .     S
C561   H562    1.109   .     S
C561   H563    1.114   .     S
C561   H564    1.110   .     S
C565   C576    1.450   .     S
C565   O611    1.289   .     A
C565   O801    1.294   1_455 S
C566   O614    1.291   .     A
C566   C575    1.447   .     S
C566   O800    1.290   1_455 S
C567   H603    1.077   .     S
C567   C569    1.386   .     A
C567   C596    1.407   .     A
C568   H604    1.073   .     S
C568   C570    1.387   .     A
C568   C595    1.408   .     A
C569   H599    1.083   .     S
C569   C1439   1.397   1_554 S
C570   H600    1.084   .     S
C570   C1440   1.396   .     S
C571   H605    1.084   .     S
C571   C670    1.400   .     S
C572   H606    1.083   .     S
C572   C575    1.397   .     A
C572   C10     1.394   1_565 S
C573   O639    1.382   .     S
C573   C7      1.387   1_565 S
C573   C669    1.406   .     S
C574   O644    1.389   .     S
C574   C576    1.410   .     A
C575   C761    1.406   1_455 S
C576   C759    1.400   1_455 S
C577   N610    1.374   .     A
C577   C579    1.432   .     A
C577   O649    1.391   .     S
C578   O654    1.385   .     S
C578   N609    1.372   .     A
C578   C580    1.426   .     A
C579   N609    1.362   .     A
C579   H607    1.080   .     S
C580   H608    1.081   .     S
C580   N610    1.363   .     A
C581   O617    1.295   .     A
C581   C583    1.465   .     S
C581   O709    1.294   .     S
C582   C584    1.465   .     S
C582   O618    1.294   .     A
C582   O804    1.295   1_455 S
C583   C587    1.399   .     A
C583   C589    1.406   .     A
C584   C588    1.400   .     A
C584   C590    1.406   .     A
C585   C587    1.396   .     A
C585   C593    1.409   .     A
C585   O723    1.383   .     S
C586   C588    1.396   .     A
C586   C594    1.408   .     A
C586   O822    1.383   1_455 S
C587   H696    1.084   .     S
C588   H789    1.084   1_455 S
C589   S624    1.790   .     S
C589   C591    1.418   .     A
C590   S619    1.790   .     S
C590   C592    1.417   .     A
C591   C593    1.422   .     A
C591   C595    1.426   .     A
C592   C596    1.424   .     A
C592   C594    1.419   .     A
C593   C1415   1.397   .     S
C594   C1416   1.396   1_554 S
C595   C1442   1.421   .     S
C596   C1441   1.421   1_554 S
Cu597  N609    2.013   .     S
Cu597  O614    1.962   .     S
Cu597  O611    1.964   .     S
Cu597  O618    1.929   .     S
Cu597  O615    1.943   .     S
Cu597  Cu786   2.679   1_455 S
Cu598  N610    2.013   .     S
Cu598  O612    1.964   .     S
Cu598  O613    1.962   .     S
Cu598  O616    1.943   .     S
Cu598  O617    1.929   .     S
Cu598  Cu691   2.679   .     S
H601   C682    1.084   .     S
H602   C775    1.084   1_455 S
O612   C660    1.290   .     S
O613   C659    1.294   .     S
O615   C769    1.294   1_455 S
O616   C676    1.295   .     S
S619   O620    1.504   .     D
S619   O621    1.504   .     D
S619   O622    1.683   .     S
O622   H623    0.990   .     S
S624   O627    1.683   .     S
S624   O626    1.504   .     D
S624   O625    1.503   .     D
O627   H628    0.991   .     S
O629   C630    1.409   .     S
O629   C773    1.383   1_455 S
C630   H633    1.109   .     S
C630   H631    1.113   .     S
C630   H820    1.114   1_455 S
H632   C724    1.114   .     S
O634   C635    1.409   .     S
O634   C680    1.383   .     S
C635   H637    1.112   .     S
C635   H638    1.109   .     S
C635   H730    1.114   .     S
H636   C823    1.114   1_455 S
O639   C640    1.411   .     S
C640   H643    1.113   .     S
C640   H641    1.108   .     S
C640   H642    1.114   .     S
O644   C645    1.414   .     S
C645   H646    1.107   .     S
C645   H647    1.115   .     S
H648   C81     1.110   1_565 S
O649   C650    1.412   .     S
C650   H652    1.112   .     S
C650   H651    1.109   .     S
C650   H653    1.110   .     S
O654   C655    1.412   .     S
C655   H656    1.109   .     S
C655   H657    1.114   .     S
C655   H658    1.110   .     S
C659   C670    1.450   .     S
C659   O705    1.289   .     A
C660   O708    1.291   .     A
C660   C669    1.447   .     S
C661   H697    1.077   .     S
C661   C663    1.386   .     A
C661   C690    1.407   .     A
C662   H698    1.073   .     S
C662   C664    1.387   .     A
C662   C689    1.408   .     A
C663   H693    1.083   .     S
C663   C1533   1.397   1_554 S
C664   H694    1.084   .     S
C664   C1534   1.396   .     S
C665   H699    1.084   .     S
C665   C764    1.400   .     S
C666   H700    1.083   .     S
C666   C669    1.397   .     A
C666   C104    1.394   1_565 S
C667   O733    1.382   .     S
C667   C101    1.387   1_565 S
C667   C763    1.406   .     S
C668   O738    1.389   .     S
C668   C670    1.410   .     A
C671   N704    1.374   .     A
C671   C673    1.432   .     A
C671   O743    1.391   .     S
C672   O748    1.385   .     S
C672   N703    1.372   .     A
C672   C674    1.426   .     A
C673   N703    1.362   .     A
C673   H701    1.080   .     S
C674   H702    1.081   .     S
C674   N704    1.363   .     A
C675   O711    1.295   .     A
C675   C677    1.465   .     S
C675   O803    1.294   .     S
C676   C678    1.465   .     S
C676   O712    1.294   .     A
C677   C681    1.399   .     A
C677   C683    1.406   .     A
C678   C682    1.400   .     A
C678   C684    1.406   .     A
C679   C681    1.396   .     A
C679   C687    1.409   .     A
C679   O817    1.383   .     S
C680   C682    1.396   .     A
C680   C688    1.408   .     A
C681   H790    1.084   .     S
C683   S718    1.790   .     S
C683   C685    1.418   .     A
C684   S713    1.790   .     S
C684   C686    1.417   .     A
C685   C687    1.422   .     A
C685   C689    1.426   .     A
C686   C690    1.424   .     A
C686   C688    1.419   .     A
C687   C1509   1.397   .     S
C688   C1510   1.396   1_554 S
C689   C1536   1.421   .     S
C690   C1535   1.421   1_554 S
Cu691  N703    2.013   .     S
Cu691  O708    1.962   .     S
Cu691  O705    1.964   .     S
Cu691  O712    1.929   .     S
Cu691  O709    1.943   .     S
Cu692  N704    2.013   .     S
Cu692  O706    1.964   .     S
Cu692  O707    1.962   .     S
Cu692  O710    1.943   .     S
Cu692  O711    1.929   .     S
Cu692  Cu785   2.679   .     S
H695   C776    1.084   .     S
O706   C754    1.290   .     S
O707   C753    1.294   .     S
O710   C770    1.295   .     S
S713   O714    1.504   .     D
S713   O715    1.504   .     D
S713   O716    1.683   .     S
O716   H717    0.990   .     S
S718   O721    1.683   .     S
S718   O720    1.504   .     D
S718   O719    1.503   .     D
O721   H722    0.991   .     S
O723   C724    1.409   .     S
C724   H727    1.109   .     S
C724   H725    1.113   .     S
H726   C818    1.114   .     S
O728   C729    1.409   .     S
O728   C774    1.383   .     S
C729   H731    1.112   .     S
C729   H732    1.109   .     S
C729   H824    1.114   .     S
O733   C734    1.411   .     S
C734   H737    1.113   .     S
C734   H735    1.108   .     S
C734   H736    1.114   .     S
O738   C739    1.414   .     S
C739   H740    1.107   .     S
C739   H741    1.115   .     S
H742   C175    1.110   1_565 S
O743   C744    1.412   .     S
C744   H746    1.112   .     S
C744   H745    1.109   .     S
C744   H747    1.110   .     S
O748   C749    1.412   .     S
C749   H750    1.109   .     S
C749   H751    1.114   .     S
C749   H752    1.110   .     S
C753   C764    1.450   .     S
C753   O799    1.289   .     A
C754   O802    1.291   .     A
C754   C763    1.447   .     S
C755   H791    1.077   .     S
C755   C757    1.386   .     A
C755   C784    1.407   .     A
C756   H792    1.073   .     S
C756   C758    1.387   .     A
C756   C783    1.408   .     A
C757   H787    1.083   .     S
C757   C1627   1.397   1_554 S
C758   H788    1.084   .     S
C758   C1628   1.396   .     S
C759   H793    1.084   .     S
C759   C576    1.400   1_655 S
C760   H794    1.083   .     S
C760   C763    1.397   .     A
C760   C198    1.394   1_565 S
C761   O827    1.382   .     S
C761   C195    1.387   1_565 S
C761   C575    1.406   1_655 S
C762   O832    1.389   .     S
C762   C764    1.410   .     A
C765   N798    1.374   .     A
C765   C767    1.432   .     A
C765   O837    1.391   .     S
C766   O842    1.385   .     S
C766   N797    1.372   .     A
C766   C768    1.426   .     A
C767   N797    1.362   .     A
C767   H795    1.080   .     S
C768   H796    1.081   .     S
C768   N798    1.363   .     A
C769   O805    1.295   .     A
C769   C771    1.465   .     S
C769   O615    1.294   1_655 S
C770   C772    1.465   .     S
C770   O806    1.294   .     A
C771   C775    1.399   .     A
C771   C777    1.406   .     A
C772   C776    1.400   .     A
C772   C778    1.406   .     A
C773   C775    1.396   .     A
C773   C781    1.409   .     A
C773   O629    1.383   1_655 S
C774   C776    1.396   .     A
C774   C782    1.408   .     A
C775   H602    1.084   1_655 S
C777   S812    1.790   .     S
C777   C779    1.418   .     A
C778   S807    1.790   .     S
C778   C780    1.417   .     A
C779   C781    1.422   .     A
C779   C783    1.426   .     A
C780   C784    1.424   .     A
C780   C782    1.419   .     A
C781   C1603   1.397   .     S
C782   C1604   1.396   1_554 S
C783   C1630   1.421   .     S
C784   C1629   1.421   1_554 S
Cu785  N797    2.013   .     S
Cu785  O802    1.962   .     S
Cu785  O799    1.964   .     S
Cu785  O806    1.929   .     S
Cu785  O803    1.943   .     S
Cu786  N798    2.013   .     S
Cu786  O800    1.964   .     S
Cu786  O801    1.962   .     S
Cu786  O804    1.943   .     S
Cu786  O805    1.929   .     S
Cu786  Cu597   2.679   1_655 S
H789   C588    1.084   1_655 S
O800   C566    1.290   1_655 S
O801   C565    1.294   1_655 S
O804   C582    1.295   1_655 S
S807   O808    1.504   .     D
S807   O809    1.504   .     D
S807   O810    1.683   .     S
O810   H811    0.990   .     S
S812   O815    1.683   .     S
S812   O814    1.504   .     D
S812   O813    1.503   .     D
O815   H816    0.991   .     S
O817   C818    1.409   .     S
C818   H821    1.109   .     S
C818   H819    1.113   .     S
H820   C630    1.114   1_655 S
O822   C823    1.409   .     S
O822   C586    1.383   1_655 S
C823   H825    1.112   .     S
C823   H826    1.109   .     S
C823   H636    1.114   1_655 S
O827   C828    1.411   .     S
C828   H831    1.113   .     S
C828   H829    1.108   .     S
C828   H830    1.114   .     S
O832   C833    1.414   .     S
C833   H834    1.107   .     S
C833   H835    1.115   .     S
H836   C269    1.110   1_565 S
O837   C838    1.412   .     S
C838   H840    1.112   .     S
C838   H839    1.109   .     S
C838   H841    1.110   .     S
O842   C843    1.412   .     S
C843   H844    1.109   .     S
C843   H845    1.114   .     S
C843   H846    1.110   .     S
C847   C858    1.450   .     S
C847   O893    1.289   .     A
C847   O1083   1.294   1_455 S
C848   O896    1.291   .     A
C848   C857    1.447   .     S
C848   O1082   1.290   1_455 S
C849   H885    1.077   .     S
C849   C851    1.386   .     A
C849   C878    1.407   .     A
C850   H886    1.073   .     S
C850   C852    1.387   .     A
C850   C877    1.408   .     A
C851   H881    1.083   .     S
C852   H882    1.084   .     S
C852   C30     1.396   1_556 S
C853   H887    1.084   .     S
C853   C1419   1.387   1_545 S
C853   C952    1.400   .     S
C854   H888    1.083   .     S
C854   C857    1.397   .     A
C854   C1138   1.394   .     S
C855   O921    1.382   .     S
C855   C1135   1.387   .     S
C855   C951    1.406   .     S
C856   O926    1.389   .     S
C856   C858    1.410   .     A
C856   C1418   1.394   1_545 S
C857   C1043   1.406   1_455 S
C858   C1041   1.400   1_455 S
C859   N892    1.374   .     A
C859   C861    1.432   .     A
C859   O931    1.391   .     S
C860   O936    1.385   .     S
C860   N891    1.372   .     A
C860   C862    1.426   .     A
C861   N891    1.362   .     A
C861   H889    1.080   .     S
C862   H890    1.081   .     S
C862   N892    1.363   .     A
C863   O899    1.295   .     A
C863   C865    1.465   .     S
C863   O991    1.294   .     S
C864   C866    1.465   .     S
C864   O900    1.294   .     A
C864   O1086   1.295   1_455 S
C865   C869    1.399   .     A
C865   C871    1.406   .     A
C866   C870    1.400   .     A
C866   C872    1.406   .     A
C867   C869    1.396   .     A
C867   C875    1.409   .     A
C867   O1005   1.383   .     S
C868   C870    1.396   .     A
C868   C876    1.408   .     A
C868   O1104   1.383   1_455 S
C869   H978    1.084   .     S
C870   H1071   1.084   1_455 S
C871   S906    1.790   .     S
C871   C873    1.418   .     A
C872   S901    1.790   .     S
C872   C874    1.417   .     A
C873   C875    1.422   .     A
C873   C877    1.426   .     A
C874   C878    1.424   .     A
C874   C876    1.419   .     A
C875   C5      1.397   1_556 S
C877   C32     1.421   1_556 S
Cu879  N891    2.013   .     S
Cu879  O896    1.962   .     S
Cu879  O893    1.964   .     S
Cu879  O900    1.929   .     S
Cu879  O897    1.943   .     S
Cu879  Cu1068  2.679   1_455 S
Cu880  N892    2.013   .     S
Cu880  O894    1.964   .     S
Cu880  O895    1.962   .     S
Cu880  O898    1.943   .     S
Cu880  O899    1.929   .     S
Cu880  Cu973   2.679   .     S
H883   C964    1.084   .     S
H884   C1057   1.084   1_455 S
O894   C942    1.290   .     S
O895   C941    1.294   .     S
O897   C1051   1.294   1_455 S
O898   C958    1.295   .     S
S901   O902    1.504   .     D
S901   O903    1.504   .     D
S901   O904    1.683   .     S
O904   H905    0.990   .     S
S906   O909    1.683   .     S
S906   O908    1.504   .     D
S906   O907    1.503   .     D
O909   H910    0.991   .     S
O911   C912    1.409   .     S
O911   C1055   1.383   1_455 S
C912   H915    1.109   .     S
C912   H913    1.113   .     S
C912   H1102   1.114   1_455 S
H914   C1006   1.114   .     S
O916   C917    1.409   .     S
O916   C962    1.383   .     S
C917   H919    1.112   .     S
C917   H920    1.109   .     S
C917   H1012   1.114   .     S
H918   C1105   1.114   1_455 S
O921   C922    1.411   .     S
C922   H925    1.113   .     S
C922   H923    1.108   .     S
C922   H924    1.114   .     S
O926   C927    1.414   .     S
C927   H928    1.107   .     S
C927   H929    1.115   .     S
C927   H1494   1.110   1_545 S
H930   C1209   1.110   .     S
O931   C932    1.412   .     S
C932   H934    1.112   .     S
C932   H933    1.109   .     S
C932   H935    1.110   .     S
O936   C937    1.412   .     S
C937   H938    1.109   .     S
C937   H939    1.114   .     S
C937   H940    1.110   .     S
C941   C952    1.450   .     S
C941   O987    1.289   .     A
C942   O990    1.291   .     A
C942   C951    1.447   .     S
C943   H979    1.077   .     S
C943   C945    1.386   .     A
C943   C972    1.407   .     A
C944   H980    1.073   .     S
C944   C946    1.387   .     A
C944   C971    1.408   .     A
C945   H975    1.083   .     S
C946   H976    1.084   .     S
C946   C124    1.396   1_556 S
C947   H981    1.084   .     S
C947   C1513   1.387   1_545 S
C947   C1046   1.400   .     S
C948   H982    1.083   .     S
C948   C951    1.397   .     A
C948   C1232   1.394   .     S
C949   O1015   1.382   .     S
C949   C1229   1.387   .     S
C949   C1045   1.406   .     S
C950   O1020   1.389   .     S
C950   C952    1.410   .     A
C950   C1512   1.394   1_545 S
C953   N986    1.374   .     A
C953   C955    1.432   .     A
C953   O1025   1.391   .     S
C954   O1030   1.385   .     S
C954   N985    1.372   .     A
C954   C956    1.426   .     A
C955   N985    1.362   .     A
C955   H983    1.080   .     S
C956   H984    1.081   .     S
C956   N986    1.363   .     A
C957   O993    1.295   .     A
C957   C959    1.465   .     S
C957   O1085   1.294   .     S
C958   C960    1.465   .     S
C958   O994    1.294   .     A
C959   C963    1.399   .     A
C959   C965    1.406   .     A
C960   C964    1.400   .     A
C960   C966    1.406   .     A
C961   C963    1.396   .     A
C961   C969    1.409   .     A
C961   O1099   1.383   .     S
C962   C964    1.396   .     A
C962   C970    1.408   .     A
C963   H1072   1.084   .     S
C965   S1000   1.790   .     S
C965   C967    1.418   .     A
C966   S995    1.790   .     S
C966   C968    1.417   .     A
C967   C969    1.422   .     A
C967   C971    1.426   .     A
C968   C972    1.424   .     A
C968   C970    1.419   .     A
C969   C99     1.397   1_556 S
C971   C126    1.421   1_556 S
Cu973  N985    2.013   .     S
Cu973  O990    1.962   .     S
Cu973  O987    1.964   .     S
Cu973  O994    1.929   .     S
Cu973  O991    1.943   .     S
Cu974  N986    2.013   .     S
Cu974  O988    1.964   .     S
Cu974  O989    1.962   .     S
Cu974  O992    1.943   .     S
Cu974  O993    1.929   .     S
Cu974  Cu1067  2.679   .     S
H977   C1058   1.084   .     S
O988   C1036   1.290   .     S
O989   C1035   1.294   .     S
O992   C1052   1.295   .     S
S995   O996    1.504   .     D
S995   O997    1.504   .     D
S995   O998    1.683   .     S
O998   H999    0.990   .     S
S1000  O1003   1.683   .     S
S1000  O1002   1.504   .     D
S1000  O1001   1.503   .     D
O1003  H1004   0.991   .     S
O1005  C1006   1.409   .     S
C1006  H1009   1.109   .     S
C1006  H1007   1.113   .     S
H1008  C1100   1.114   .     S
O1010  C1011   1.409   .     S
O1010  C1056   1.383   .     S
C1011  H1013   1.112   .     S
C1011  H1014   1.109   .     S
C1011  H1106   1.114   .     S
O1015  C1016   1.411   .     S
C1016  H1019   1.113   .     S
C1016  H1017   1.108   .     S
C1016  H1018   1.114   .     S
O1020  C1021   1.414   .     S
C1021  H1022   1.107   .     S
C1021  H1023   1.115   .     S
C1021  H1588   1.110   1_545 S
H1024  C1303   1.110   .     S
O1025  C1026   1.412   .     S
C1026  H1028   1.112   .     S
C1026  H1027   1.109   .     S
C1026  H1029   1.110   .     S
O1030  C1031   1.412   .     S
C1031  H1032   1.109   .     S
C1031  H1033   1.114   .     S
C1031  H1034   1.110   .     S
C1035  C1046   1.450   .     S
C1035  O1081   1.289   .     A
C1036  O1084   1.291   .     A
C1036  C1045   1.447   .     S
C1037  H1073   1.077   .     S
C1037  C1039   1.386   .     A
C1037  C1066   1.407   .     A
C1038  H1074   1.073   .     S
C1038  C1040   1.387   .     A
C1038  C1065   1.408   .     A
C1039  H1069   1.083   .     S
C1040  H1070   1.084   .     S
C1040  C218    1.396   1_556 S
C1041  H1075   1.084   .     S
C1041  C1607   1.387   1_545 S
C1041  C858    1.400   1_655 S
C1042  H1076   1.083   .     S
C1042  C1045   1.397   .     A
C1042  C1326   1.394   .     S
C1043  O1109   1.382   .     S
C1043  C1323   1.387   .     S
C1043  C857    1.406   1_655 S
C1044  O1114   1.389   .     S
C1044  C1046   1.410   .     A
C1044  C1606   1.394   1_545 S
C1047  N1080   1.374   .     A
C1047  C1049   1.432   .     A
C1047  O1119   1.391   .     S
C1048  O1124   1.385   .     S
C1048  N1079   1.372   .     A
C1048  C1050   1.426   .     A
C1049  N1079   1.362   .     A
C1049  H1077   1.080   .     S
C1050  H1078   1.081   .     S
C1050  N1080   1.363   .     A
C1051  O1087   1.295   .     A
C1051  C1053   1.465   .     S
C1051  O897    1.294   1_655 S
C1052  C1054   1.465   .     S
C1052  O1088   1.294   .     A
C1053  C1057   1.399   .     A
C1053  C1059   1.406   .     A
C1054  C1058   1.400   .     A
C1054  C1060   1.406   .     A
C1055  C1057   1.396   .     A
C1055  C1063   1.409   .     A
C1055  O911    1.383   1_655 S
C1056  C1058   1.396   .     A
C1056  C1064   1.408   .     A
C1057  H884    1.084   1_655 S
C1059  S1094   1.790   .     S
C1059  C1061   1.418   .     A
C1060  S1089   1.790   .     S
C1060  C1062   1.417   .     A
C1061  C1063   1.422   .     A
C1061  C1065   1.426   .     A
C1062  C1066   1.424   .     A
C1062  C1064   1.419   .     A
C1063  C193    1.397   1_556 S
C1065  C220    1.421   1_556 S
Cu1067 N1079   2.013   .     S
Cu1067 O1084   1.962   .     S
Cu1067 O1081   1.964   .     S
Cu1067 O1088   1.929   .     S
Cu1067 O1085   1.943   .     S
Cu1068 N1080   2.013   .     S
Cu1068 O1082   1.964   .     S
Cu1068 O1083   1.962   .     S
Cu1068 O1086   1.943   .     S
Cu1068 O1087   1.929   .     S
Cu1068 Cu879   2.679   1_655 S
H1071  C870    1.084   1_655 S
O1082  C848    1.290   1_655 S
O1083  C847    1.294   1_655 S
O1086  C864    1.295   1_655 S
S1089  O1090   1.504   .     D
S1089  O1091   1.504   .     D
S1089  O1092   1.683   .     S
O1092  H1093   0.990   .     S
S1094  O1097   1.683   .     S
S1094  O1096   1.504   .     D
S1094  O1095   1.503   .     D
O1097  H1098   0.991   .     S
O1099  C1100   1.409   .     S
C1100  H1103   1.109   .     S
C1100  H1101   1.113   .     S
H1102  C912    1.114   1_655 S
O1104  C1105   1.409   .     S
O1104  C868    1.383   1_655 S
C1105  H1107   1.112   .     S
C1105  H1108   1.109   .     S
C1105  H918    1.114   1_655 S
O1109  C1110   1.411   .     S
C1110  H1113   1.113   .     S
C1110  H1111   1.108   .     S
C1110  H1112   1.114   .     S
O1114  C1115   1.414   .     S
C1115  H1116   1.107   .     S
C1115  H1117   1.115   .     S
C1115  H1682   1.110   1_545 S
H1118  C1397   1.110   .     S
O1119  C1120   1.412   .     S
C1120  H1122   1.112   .     S
C1120  H1121   1.109   .     S
C1120  H1123   1.110   .     S
O1124  C1125   1.412   .     S
C1125  H1126   1.109   .     S
C1125  H1127   1.114   .     S
C1125  H1128   1.110   .     S
C1129  C1140   1.450   .     S
C1129  O1175   1.289   .     A
C1129  O1365   1.294   1_455 S
C1130  O1178   1.291   .     A
C1130  C1139   1.447   .     S
C1130  O1364   1.290   1_455 S
C1131  H1167   1.077   .     S
C1131  C1133   1.386   .     A
C1131  C1160   1.407   .     A
C1132  H1168   1.073   .     S
C1132  C1134   1.387   .     A
C1132  C1159   1.408   .     A
C1133  H1163   1.083   .     S
C1134  H1164   1.084   .     S
C1134  C312    1.396   1_556 S
C1135  H1169   1.084   .     S
C1135  C1234   1.400   .     S
C1136  H1170   1.083   .     S
C1136  C1139   1.397   .     A
C1136  C1420   1.394   .     S
C1137  O1203   1.382   .     S
C1137  C1417   1.387   .     S
C1137  C1233   1.406   .     S
C1138  O1208   1.389   .     S
C1138  C1140   1.410   .     A
C1139  C1325   1.406   1_455 S
C1140  C1323   1.400   1_455 S
C1141  N1174   1.374   .     A
C1141  C1143   1.432   .     A
C1141  O1213   1.391   .     S
C1142  O1218   1.385   .     S
C1142  N1173   1.372   .     A
C1142  C1144   1.426   .     A
C1143  N1173   1.362   .     A
C1143  H1171   1.080   .     S
C1144  H1172   1.081   .     S
C1144  N1174   1.363   .     A
C1145  O1181   1.295   .     A
C1145  C1147   1.465   .     S
C1145  O1273   1.294   .     S
C1146  C1148   1.465   .     S
C1146  O1182   1.294   .     A
C1146  O1368   1.295   1_455 S
C1147  C1151   1.399   .     A
C1147  C1153   1.406   .     A
C1148  C1152   1.400   .     A
C1148  C1154   1.406   .     A
C1149  C1151   1.396   .     A
C1149  C1157   1.409   .     A
C1149  O1287   1.383   .     S
C1150  C1152   1.396   .     A
C1150  C1158   1.408   .     A
C1150  O1386   1.383   1_455 S
C1151  H1260   1.084   .     S
C1152  H1353   1.084   1_455 S
C1153  S1188   1.790   .     S
C1153  C1155   1.418   .     A
C1154  S1183   1.790   .     S
C1154  C1156   1.417   .     A
C1155  C1157   1.422   .     A
C1155  C1159   1.426   .     A
C1156  C1160   1.424   .     A
C1156  C1158   1.419   .     A
C1157  C287    1.397   1_556 S
C1159  C314    1.421   1_556 S
Cu1161 N1173   2.013   .     S
Cu1161 O1178   1.962   .     S
Cu1161 O1175   1.964   .     S
Cu1161 O1182   1.929   .     S
Cu1161 O1179   1.943   .     S
Cu1161 Cu1350  2.679   1_455 S
Cu1162 N1174   2.013   .     S
Cu1162 O1176   1.964   .     S
Cu1162 O1177   1.962   .     S
Cu1162 O1180   1.943   .     S
Cu1162 O1181   1.929   .     S
Cu1162 Cu1255  2.679   .     S
H1165  C1246   1.084   .     S
H1166  C1339   1.084   1_455 S
O1176  C1224   1.290   .     S
O1177  C1223   1.294   .     S
O1179  C1333   1.294   1_455 S
O1180  C1240   1.295   .     S
S1183  O1184   1.504   .     D
S1183  O1185   1.504   .     D
S1183  O1186   1.683   .     S
O1186  H1187   0.990   .     S
S1188  O1191   1.683   .     S
S1188  O1190   1.504   .     D
S1188  O1189   1.503   .     D
O1191  H1192   0.991   .     S
O1193  C1194   1.409   .     S
O1193  C1337   1.383   1_455 S
C1194  H1197   1.109   .     S
C1194  H1195   1.113   .     S
C1194  H1384   1.114   1_455 S
H1196  C1288   1.114   .     S
O1198  C1199   1.409   .     S
O1198  C1244   1.383   .     S
C1199  H1201   1.112   .     S
C1199  H1202   1.109   .     S
C1199  H1294   1.114   .     S
H1200  C1387   1.114   1_455 S
O1203  C1204   1.411   .     S
C1204  H1207   1.113   .     S
C1204  H1205   1.108   .     S
C1204  H1206   1.114   .     S
O1208  C1209   1.414   .     S
C1209  H1210   1.107   .     S
C1209  H1211   1.115   .     S
H1212  C1491   1.110   .     S
O1213  C1214   1.412   .     S
C1214  H1216   1.112   .     S
C1214  H1215   1.109   .     S
C1214  H1217   1.110   .     S
O1218  C1219   1.412   .     S
C1219  H1220   1.109   .     S
C1219  H1221   1.114   .     S
C1219  H1222   1.110   .     S
C1223  C1234   1.450   .     S
C1223  O1269   1.289   .     A
C1224  O1272   1.291   .     A
C1224  C1233   1.447   .     S
C1225  H1261   1.077   .     S
C1225  C1227   1.386   .     A
C1225  C1254   1.407   .     A
C1226  H1262   1.073   .     S
C1226  C1228   1.387   .     A
C1226  C1253   1.408   .     A
C1227  H1257   1.083   .     S
C1228  H1258   1.084   .     S
C1228  C406    1.396   1_556 S
C1229  H1263   1.084   .     S
C1229  C1328   1.400   .     S
C1230  H1264   1.083   .     S
C1230  C1233   1.397   .     A
C1230  C1514   1.394   .     S
C1231  O1297   1.382   .     S
C1231  C1511   1.387   .     S
C1231  C1327   1.406   .     S
C1232  O1302   1.389   .     S
C1232  C1234   1.410   .     A
C1235  N1268   1.374   .     A
C1235  C1237   1.432   .     A
C1235  O1307   1.391   .     S
C1236  O1312   1.385   .     S
C1236  N1267   1.372   .     A
C1236  C1238   1.426   .     A
C1237  N1267   1.362   .     A
C1237  H1265   1.080   .     S
C1238  H1266   1.081   .     S
C1238  N1268   1.363   .     A
C1239  O1275   1.295   .     A
C1239  C1241   1.465   .     S
C1239  O1367   1.294   .     S
C1240  C1242   1.465   .     S
C1240  O1276   1.294   .     A
C1241  C1245   1.399   .     A
C1241  C1247   1.406   .     A
C1242  C1246   1.400   .     A
C1242  C1248   1.406   .     A
C1243  C1245   1.396   .     A
C1243  C1251   1.409   .     A
C1243  O1381   1.383   .     S
C1244  C1246   1.396   .     A
C1244  C1252   1.408   .     A
C1245  H1354   1.084   .     S
C1247  S1282   1.790   .     S
C1247  C1249   1.418   .     A
C1248  S1277   1.790   .     S
C1248  C1250   1.417   .     A
C1249  C1251   1.422   .     A
C1249  C1253   1.426   .     A
C1250  C1254   1.424   .     A
C1250  C1252   1.419   .     A
C1251  C381    1.397   1_556 S
C1253  C408    1.421   1_556 S
Cu1255 N1267   2.013   .     S
Cu1255 O1272   1.962   .     S
Cu1255 O1269   1.964   .     S
Cu1255 O1276   1.929   .     S
Cu1255 O1273   1.943   .     S
Cu1256 N1268   2.013   .     S
Cu1256 O1270   1.964   .     S
Cu1256 O1271   1.962   .     S
Cu1256 O1274   1.943   .     S
Cu1256 O1275   1.929   .     S
Cu1256 Cu1349  2.679   .     S
H1259  C1340   1.084   .     S
O1270  C1318   1.290   .     S
O1271  C1317   1.294   .     S
O1274  C1334   1.295   .     S
S1277  O1278   1.504   .     D
S1277  O1279   1.504   .     D
S1277  O1280   1.683   .     S
O1280  H1281   0.990   .     S
S1282  O1285   1.683   .     S
S1282  O1284   1.504   .     D
S1282  O1283   1.503   .     D
O1285  H1286   0.991   .     S
O1287  C1288   1.409   .     S
C1288  H1291   1.109   .     S
C1288  H1289   1.113   .     S
H1290  C1382   1.114   .     S
O1292  C1293   1.409   .     S
O1292  C1338   1.383   .     S
C1293  H1295   1.112   .     S
C1293  H1296   1.109   .     S
C1293  H1388   1.114   .     S
O1297  C1298   1.411   .     S
C1298  H1301   1.113   .     S
C1298  H1299   1.108   .     S
C1298  H1300   1.114   .     S
O1302  C1303   1.414   .     S
C1303  H1304   1.107   .     S
C1303  H1305   1.115   .     S
H1306  C1585   1.110   .     S
O1307  C1308   1.412   .     S
C1308  H1310   1.112   .     S
C1308  H1309   1.109   .     S
C1308  H1311   1.110   .     S
O1312  C1313   1.412   .     S
C1313  H1314   1.109   .     S
C1313  H1315   1.114   .     S
C1313  H1316   1.110   .     S
C1317  C1328   1.450   .     S
C1317  O1363   1.289   .     A
C1318  O1366   1.291   .     A
C1318  C1327   1.447   .     S
C1319  H1355   1.077   .     S
C1319  C1321   1.386   .     A
C1319  C1348   1.407   .     A
C1320  H1356   1.073   .     S
C1320  C1322   1.387   .     A
C1320  C1347   1.408   .     A
C1321  H1351   1.083   .     S
C1322  H1352   1.084   .     S
C1322  C500    1.396   1_556 S
C1323  H1357   1.084   .     S
C1323  C1140   1.400   1_655 S
C1324  H1358   1.083   .     S
C1324  C1327   1.397   .     A
C1324  C1608   1.394   .     S
C1325  O1391   1.382   .     S
C1325  C1605   1.387   .     S
C1325  C1139   1.406   1_655 S
C1326  O1396   1.389   .     S
C1326  C1328   1.410   .     A
C1329  N1362   1.374   .     A
C1329  C1331   1.432   .     A
C1329  O1401   1.391   .     S
C1330  O1406   1.385   .     S
C1330  N1361   1.372   .     A
C1330  C1332   1.426   .     A
C1331  N1361   1.362   .     A
C1331  H1359   1.080   .     S
C1332  H1360   1.081   .     S
C1332  N1362   1.363   .     A
C1333  O1369   1.295   .     A
C1333  C1335   1.465   .     S
C1333  O1179   1.294   1_655 S
C1334  C1336   1.465   .     S
C1334  O1370   1.294   .     A
C1335  C1339   1.399   .     A
C1335  C1341   1.406   .     A
C1336  C1340   1.400   .     A
C1336  C1342   1.406   .     A
C1337  C1339   1.396   .     A
C1337  C1345   1.409   .     A
C1337  O1193   1.383   1_655 S
C1338  C1340   1.396   .     A
C1338  C1346   1.408   .     A
C1339  H1166   1.084   1_655 S
C1341  S1376   1.790   .     S
C1341  C1343   1.418   .     A
C1342  S1371   1.790   .     S
C1342  C1344   1.417   .     A
C1343  C1345   1.422   .     A
C1343  C1347   1.426   .     A
C1344  C1348   1.424   .     A
C1344  C1346   1.419   .     A
C1345  C475    1.397   1_556 S
C1347  C502    1.421   1_556 S
Cu1349 N1361   2.013   .     S
Cu1349 O1366   1.962   .     S
Cu1349 O1363   1.964   .     S
Cu1349 O1370   1.929   .     S
Cu1349 O1367   1.943   .     S
Cu1350 N1362   2.013   .     S
Cu1350 O1364   1.964   .     S
Cu1350 O1365   1.962   .     S
Cu1350 O1368   1.943   .     S
Cu1350 O1369   1.929   .     S
Cu1350 Cu1161  2.679   1_655 S
H1353  C1152   1.084   1_655 S
O1364  C1130   1.290   1_655 S
O1365  C1129   1.294   1_655 S
O1368  C1146   1.295   1_655 S
S1371  O1372   1.504   .     D
S1371  O1373   1.504   .     D
S1371  O1374   1.683   .     S
O1374  H1375   0.990   .     S
S1376  O1379   1.683   .     S
S1376  O1378   1.504   .     D
S1376  O1377   1.503   .     D
O1379  H1380   0.991   .     S
O1381  C1382   1.409   .     S
C1382  H1385   1.109   .     S
C1382  H1383   1.113   .     S
H1384  C1194   1.114   1_655 S
O1386  C1387   1.409   .     S
O1386  C1150   1.383   1_655 S
C1387  H1389   1.112   .     S
C1387  H1390   1.109   .     S
C1387  H1200   1.114   1_655 S
O1391  C1392   1.411   .     S
C1392  H1395   1.113   .     S
C1392  H1393   1.108   .     S
C1392  H1394   1.114   .     S
O1396  C1397   1.414   .     S
C1397  H1398   1.107   .     S
C1397  H1399   1.115   .     S
H1400  C1679   1.110   .     S
O1401  C1402   1.412   .     S
C1402  H1404   1.112   .     S
C1402  H1403   1.109   .     S
C1402  H1405   1.110   .     S
O1406  C1407   1.412   .     S
C1407  H1408   1.109   .     S
C1407  H1409   1.114   .     S
C1407  H1410   1.110   .     S
C1411  C1422   1.450   .     S
C1411  O1457   1.289   .     A
C1411  O1647   1.294   1_455 S
C1412  O1460   1.291   .     A
C1412  C1421   1.447   .     S
C1412  O1646   1.290   1_455 S
C1413  H1449   1.077   .     S
C1413  C1415   1.386   .     A
C1413  C1442   1.407   .     A
C1414  H1450   1.073   .     S
C1414  C1416   1.387   .     A
C1414  C1441   1.408   .     A
C1415  H1445   1.083   .     S
C1416  H1446   1.084   .     S
C1416  C594    1.396   1_556 S
C1417  H1451   1.084   .     S
C1417  C1516   1.400   .     S
C1418  H1452   1.083   .     S
C1418  C1421   1.397   .     A
C1418  C856    1.394   1_565 S
C1419  O1485   1.382   .     S
C1419  C853    1.387   1_565 S
C1419  C1515   1.406   .     S
C1420  O1490   1.389   .     S
C1420  C1422   1.410   .     A
C1421  C1607   1.406   1_455 S
C1422  C1605   1.400   1_455 S
C1423  N1456   1.374   .     A
C1423  C1425   1.432   .     A
C1423  O1495   1.391   .     S
C1424  O1500   1.385   .     S
C1424  N1455   1.372   .     A
C1424  C1426   1.426   .     A
C1425  N1455   1.362   .     A
C1425  H1453   1.080   .     S
C1426  H1454   1.081   .     S
C1426  N1456   1.363   .     A
C1427  O1463   1.295   .     A
C1427  C1429   1.465   .     S
C1427  O1555   1.294   .     S
C1428  C1430   1.465   .     S
C1428  O1464   1.294   .     A
C1428  O1650   1.295   1_455 S
C1429  C1433   1.399   .     A
C1429  C1435   1.406   .     A
C1430  C1434   1.400   .     A
C1430  C1436   1.406   .     A
C1431  C1433   1.396   .     A
C1431  C1439   1.409   .     A
C1431  O1569   1.383   .     S
C1432  C1434   1.396   .     A
C1432  C1440   1.408   .     A
C1432  O1668   1.383   1_455 S
C1433  H1542   1.084   .     S
C1434  H1635   1.084   1_455 S
C1435  S1470   1.790   .     S
C1435  C1437   1.418   .     A
C1436  S1465   1.790   .     S
C1436  C1438   1.417   .     A
C1437  C1439   1.422   .     A
C1437  C1441   1.426   .     A
C1438  C1442   1.424   .     A
C1438  C1440   1.419   .     A
C1439  C569    1.397   1_556 S
C1441  C596    1.421   1_556 S
Cu1443 N1455   2.013   .     S
Cu1443 O1460   1.962   .     S
Cu1443 O1457   1.964   .     S
Cu1443 O1464   1.929   .     S
Cu1443 O1461   1.943   .     S
Cu1443 Cu1632  2.679   1_455 S
Cu1444 N1456   2.013   .     S
Cu1444 O1458   1.964   .     S
Cu1444 O1459   1.962   .     S
Cu1444 O1462   1.943   .     S
Cu1444 O1463   1.929   .     S
Cu1444 Cu1537  2.679   .     S
H1447  C1528   1.084   .     S
H1448  C1621   1.084   1_455 S
O1458  C1506   1.290   .     S
O1459  C1505   1.294   .     S
O1461  C1615   1.294   1_455 S
O1462  C1522   1.295   .     S
S1465  O1466   1.504   .     D
S1465  O1467   1.504   .     D
S1465  O1468   1.683   .     S
O1468  H1469   0.990   .     S
S1470  O1473   1.683   .     S
S1470  O1472   1.504   .     D
S1470  O1471   1.503   .     D
O1473  H1474   0.991   .     S
O1475  C1476   1.409   .     S
O1475  C1619   1.383   1_455 S
C1476  H1479   1.109   .     S
C1476  H1477   1.113   .     S
C1476  H1666   1.114   1_455 S
H1478  C1570   1.114   .     S
O1480  C1481   1.409   .     S
O1480  C1526   1.383   .     S
C1481  H1483   1.112   .     S
C1481  H1484   1.109   .     S
C1481  H1576   1.114   .     S
H1482  C1669   1.114   1_455 S
O1485  C1486   1.411   .     S
C1486  H1489   1.113   .     S
C1486  H1487   1.108   .     S
C1486  H1488   1.114   .     S
O1490  C1491   1.414   .     S
C1491  H1492   1.107   .     S
C1491  H1493   1.115   .     S
H1494  C927    1.110   1_565 S
O1495  C1496   1.412   .     S
C1496  H1498   1.112   .     S
C1496  H1497   1.109   .     S
C1496  H1499   1.110   .     S
O1500  C1501   1.412   .     S
C1501  H1502   1.109   .     S
C1501  H1503   1.114   .     S
C1501  H1504   1.110   .     S
C1505  C1516   1.450   .     S
C1505  O1551   1.289   .     A
C1506  O1554   1.291   .     A
C1506  C1515   1.447   .     S
C1507  H1543   1.077   .     S
C1507  C1509   1.386   .     A
C1507  C1536   1.407   .     A
C1508  H1544   1.073   .     S
C1508  C1510   1.387   .     A
C1508  C1535   1.408   .     A
C1509  H1539   1.083   .     S
C1510  H1540   1.084   .     S
C1510  C688    1.396   1_556 S
C1511  H1545   1.084   .     S
C1511  C1610   1.400   .     S
C1512  H1546   1.083   .     S
C1512  C1515   1.397   .     A
C1512  C950    1.394   1_565 S
C1513  O1579   1.382   .     S
C1513  C947    1.387   1_565 S
C1513  C1609   1.406   .     S
C1514  O1584   1.389   .     S
C1514  C1516   1.410   .     A
C1517  N1550   1.374   .     A
C1517  C1519   1.432   .     A
C1517  O1589   1.391   .     S
C1518  O1594   1.385   .     S
C1518  N1549   1.372   .     A
C1518  C1520   1.426   .     A
C1519  N1549   1.362   .     A
C1519  H1547   1.080   .     S
C1520  H1548   1.081   .     S
C1520  N1550   1.363   .     A
C1521  O1557   1.295   .     A
C1521  C1523   1.465   .     S
C1521  O1649   1.294   .     S
C1522  C1524   1.465   .     S
C1522  O1558   1.294   .     A
C1523  C1527   1.399   .     A
C1523  C1529   1.406   .     A
C1524  C1528   1.400   .     A
C1524  C1530   1.406   .     A
C1525  C1527   1.396   .     A
C1525  C1533   1.409   .     A
C1525  O1663   1.383   .     S
C1526  C1528   1.396   .     A
C1526  C1534   1.408   .     A
C1527  H1636   1.084   .     S
C1529  S1564   1.790   .     S
C1529  C1531   1.418   .     A
C1530  S1559   1.790   .     S
C1530  C1532   1.417   .     A
C1531  C1533   1.422   .     A
C1531  C1535   1.426   .     A
C1532  C1536   1.424   .     A
C1532  C1534   1.419   .     A
C1533  C663    1.397   1_556 S
C1535  C690    1.421   1_556 S
Cu1537 N1549   2.013   .     S
Cu1537 O1554   1.962   .     S
Cu1537 O1551   1.964   .     S
Cu1537 O1558   1.929   .     S
Cu1537 O1555   1.943   .     S
Cu1538 N1550   2.013   .     S
Cu1538 O1552   1.964   .     S
Cu1538 O1553   1.962   .     S
Cu1538 O1556   1.943   .     S
Cu1538 O1557   1.929   .     S
Cu1538 Cu1631  2.679   .     S
H1541  C1622   1.084   .     S
O1552  C1600   1.290   .     S
O1553  C1599   1.294   .     S
O1556  C1616   1.295   .     S
S1559  O1560   1.504   .     D
S1559  O1561   1.504   .     D
S1559  O1562   1.683   .     S
O1562  H1563   0.990   .     S
S1564  O1567   1.683   .     S
S1564  O1566   1.504   .     D
S1564  O1565   1.503   .     D
O1567  H1568   0.991   .     S
O1569  C1570   1.409   .     S
C1570  H1573   1.109   .     S
C1570  H1571   1.113   .     S
H1572  C1664   1.114   .     S
O1574  C1575   1.409   .     S
O1574  C1620   1.383   .     S
C1575  H1577   1.112   .     S
C1575  H1578   1.109   .     S
C1575  H1670   1.114   .     S
O1579  C1580   1.411   .     S
C1580  H1583   1.113   .     S
C1580  H1581   1.108   .     S
C1580  H1582   1.114   .     S
O1584  C1585   1.414   .     S
C1585  H1586   1.107   .     S
C1585  H1587   1.115   .     S
H1588  C1021   1.110   1_565 S
O1589  C1590   1.412   .     S
C1590  H1592   1.112   .     S
C1590  H1591   1.109   .     S
C1590  H1593   1.110   .     S
O1594  C1595   1.412   .     S
C1595  H1596   1.109   .     S
C1595  H1597   1.114   .     S
C1595  H1598   1.110   .     S
C1599  C1610   1.450   .     S
C1599  O1645   1.289   .     A
C1600  O1648   1.291   .     A
C1600  C1609   1.447   .     S
C1601  H1637   1.077   .     S
C1601  C1603   1.386   .     A
C1601  C1630   1.407   .     A
C1602  H1638   1.073   .     S
C1602  C1604   1.387   .     A
C1602  C1629   1.408   .     A
C1603  H1633   1.083   .     S
C1604  H1634   1.084   .     S
C1604  C782    1.396   1_556 S
C1605  H1639   1.084   .     S
C1605  C1422   1.400   1_655 S
C1606  H1640   1.083   .     S
C1606  C1609   1.397   .     A
C1606  C1044   1.394   1_565 S
C1607  O1673   1.382   .     S
C1607  C1041   1.387   1_565 S
C1607  C1421   1.406   1_655 S
C1608  O1678   1.389   .     S
C1608  C1610   1.410   .     A
C1611  N1644   1.374   .     A
C1611  C1613   1.432   .     A
C1611  O1683   1.391   .     S
C1612  O1688   1.385   .     S
C1612  N1643   1.372   .     A
C1612  C1614   1.426   .     A
C1613  N1643   1.362   .     A
C1613  H1641   1.080   .     S
C1614  H1642   1.081   .     S
C1614  N1644   1.363   .     A
C1615  O1651   1.295   .     A
C1615  C1617   1.465   .     S
C1615  O1461   1.294   1_655 S
C1616  C1618   1.465   .     S
C1616  O1652   1.294   .     A
C1617  C1621   1.399   .     A
C1617  C1623   1.406   .     A
C1618  C1622   1.400   .     A
C1618  C1624   1.406   .     A
C1619  C1621   1.396   .     A
C1619  C1627   1.409   .     A
C1619  O1475   1.383   1_655 S
C1620  C1622   1.396   .     A
C1620  C1628   1.408   .     A
C1621  H1448   1.084   1_655 S
C1623  S1658   1.790   .     S
C1623  C1625   1.418   .     A
C1624  S1653   1.790   .     S
C1624  C1626   1.417   .     A
C1625  C1627   1.422   .     A
C1625  C1629   1.426   .     A
C1626  C1630   1.424   .     A
C1626  C1628   1.419   .     A
C1627  C757    1.397   1_556 S
C1629  C784    1.421   1_556 S
Cu1631 N1643   2.013   .     S
Cu1631 O1648   1.962   .     S
Cu1631 O1645   1.964   .     S
Cu1631 O1652   1.929   .     S
Cu1631 O1649   1.943   .     S
Cu1632 N1644   2.013   .     S
Cu1632 O1646   1.964   .     S
Cu1632 O1647   1.962   .     S
Cu1632 O1650   1.943   .     S
Cu1632 O1651   1.929   .     S
Cu1632 Cu1443  2.679   1_655 S
H1635  C1434   1.084   1_655 S
O1646  C1412   1.290   1_655 S
O1647  C1411   1.294   1_655 S
O1650  C1428   1.295   1_655 S
S1653  O1654   1.504   .     D
S1653  O1655   1.504   .     D
S1653  O1656   1.683   .     S
O1656  H1657   0.990   .     S
S1658  O1661   1.683   .     S
S1658  O1660   1.504   .     D
S1658  O1659   1.503   .     D
O1661  H1662   0.991   .     S
O1663  C1664   1.409   .     S
C1664  H1667   1.109   .     S
C1664  H1665   1.113   .     S
H1666  C1476   1.114   1_655 S
O1668  C1669   1.409   .     S
O1668  C1432   1.383   1_655 S
C1669  H1671   1.112   .     S
C1669  H1672   1.109   .     S
C1669  H1482   1.114   1_655 S
O1673  C1674   1.411   .     S
C1674  H1677   1.113   .     S
C1674  H1675   1.108   .     S
C1674  H1676   1.114   .     S
O1678  C1679   1.414   .     S
C1679  H1680   1.107   .     S
C1679  H1681   1.115   .     S
H1682  C1115   1.110   1_565 S
O1683  C1684   1.412   .     S
C1684  H1686   1.112   .     S
C1684  H1685   1.109   .     S
C1684  H1687   1.110   .     S
O1688  C1689   1.412   .     S
C1689  H1690   1.109   .     S
C1689  H1691   1.114   .     S
C1689  H1692   1.110   .     S
