data_str_m2_o1_o2_pcu_sym.9
_audit_creation_date              2020-01-03
_audit_creation_method            'Materials Studio'
_symmetry_space_group_name_H-M    'P1'
_symmetry_Int_Tables_number       1
_symmetry_cell_setting            triclinic
loop_
_symmetry_equiv_pos_as_xyz
  x,y,z
_cell_length_a                    32.3600
_cell_length_b                    28.6216
_cell_length_c                    30.2139
_cell_angle_alpha                 89.9619
_cell_angle_beta                  90.3945
_cell_angle_gamma                 89.9885
loop_
_atom_site_label
_atom_site_type_symbol
_atom_site_fract_x
_atom_site_fract_y
_atom_site_fract_z
_atom_site_U_iso_or_equiv
_atom_site_adp_type
_atom_site_occupancy
C1     C     0.08755   0.16667   0.24998   0.00000  Uiso   1.00
C2     C     0.31210   0.18637   0.28623   0.00000  Uiso   1.00
C3     C     0.31163   0.14693   0.21379   0.00000  Uiso   1.00
C4     C     0.02169   0.18638   0.28622   0.00000  Uiso   1.00
C5     C     0.14914   0.20414   0.04734   0.00000  Uiso   1.00
C6     C     0.14920   0.12921   0.45239   0.00000  Uiso   1.00
C7     C     0.18473   0.20406   0.45255   0.00000  Uiso   1.00
C8     C     0.18466   0.12926   0.04773   0.00000  Uiso   1.00
C9     C     0.14945   0.20428   0.09337   0.00000  Uiso   1.00
C10    C     0.14956   0.12905   0.40637   0.00000  Uiso   1.00
C11    C     0.18427   0.20420   0.40651   0.00000  Uiso   1.00
C12    C     0.24579   0.16666   0.25002   0.00000  Uiso   1.00
C13    C     0.18414   0.12910   0.09376   0.00000  Uiso   1.00
C14    C     0.16674   0.16669   0.11674   0.00000  Uiso   1.00
C15    C     0.16686   0.16663   0.38327   0.00000  Uiso   1.00
C16    C     0.16695   0.16669   0.02426   0.00000  Uiso   1.00
C17    C     0.16698   0.16665   0.47574   0.00000  Uiso   1.00
C18    C     0.29036   0.16665   0.25002   0.00000  Uiso   1.00
C19    C     0.04297   0.16669   0.24998   0.00000  Uiso   1.00
C20    C     0.16665   0.16668   0.16499   0.00000  Uiso   1.00
C21    C     0.16675   0.16665   0.33501   0.00000  Uiso   1.00
C22    C     0.14097   0.02479   0.22236   0.00000  Uiso   1.00
C23    C     0.19237   0.30854   0.27763   0.00000  Uiso   1.00
C24    C     0.19236   0.02474   0.27763   0.00000  Uiso   1.00
C25    C     0.14096   0.30859   0.22237   0.00000  Uiso   1.00
C26    C     0.02123   0.14697   0.21376   0.00000  Uiso   1.00
Cu27   Cu    0.16667   0.21355   0.25000   0.00000  Uiso   1.00
Cu28   Cu    0.16667   0.11978   0.25000   0.00000  Uiso   1.00
F29    F     0.11512   0.04800   0.19455   0.00000  Uiso   1.00
F30    F     0.21825   0.28534   0.30542   0.00000  Uiso   1.00
F31    F     0.21822   0.04790   0.30544   0.00000  Uiso   1.00
F32    F     0.11508   0.28543   0.19459   0.00000  Uiso   1.00
F33    F     0.13081   0.24005   0.02533   0.00000  Uiso   1.00
F34    F     0.13084   0.09331   0.47411   0.00000  Uiso   1.00
F35    F     0.20313   0.23997   0.47443   0.00000  Uiso   1.00
F36    F     0.20308   0.09334   0.02613   0.00000  Uiso   1.00
H37    H     0.13552   0.23334   0.11073   0.00000  Uiso   1.00
H38    H     0.13564   0.10000   0.38879   0.00000  Uiso   1.00
H39    H     0.19816   0.23324   0.38905   0.00000  Uiso   1.00
H40    H     0.19801   0.10005   0.11143   0.00000  Uiso   1.00
H41    H     0.06968   0.13853   0.17580   0.00000  Uiso   1.00
H42    H     0.26362   0.19496   0.32415   0.00000  Uiso   1.00
H43    H     0.26264   0.13817   0.17595   0.00000  Uiso   1.00
H44    H     0.07066   0.19499   0.32411   0.00000  Uiso   1.00
N45    N     0.16667   0.28402   0.25000   0.00000  Uiso   1.00
N46    N     0.16667   0.04931   0.25000   0.00000  Uiso   1.00
O47    O     0.10655   0.20625   0.25000   0.00000  Uiso   1.00
O48    O     0.29284   0.20490   0.32308   0.00000  Uiso   1.00
O49    O     0.29191   0.12836   0.17695   0.00000  Uiso   1.00
O50    O     0.04142   0.20491   0.32306   0.00000  Uiso   1.00
O51    O     0.22679   0.12709   0.25000   0.00000  Uiso   1.00
O52    O     0.22679   0.20625   0.25000   0.00000  Uiso   1.00
O53    O     0.10655   0.12709   0.24999   0.00000  Uiso   1.00
O54    O     0.16666   0.20626   0.18573   0.00000  Uiso   1.00
O55    O     0.16667   0.12707   0.31427   0.00000  Uiso   1.00
O56    O     0.16667   0.20626   0.31427   0.00000  Uiso   1.00
O57    O     0.16666   0.12707   0.18573   0.00000  Uiso   1.00
O58    O     0.04049   0.12848   0.17690   0.00000  Uiso   1.00
C59    C     0.42088   0.16667   0.24998   0.00000  Uiso   1.00
C60    C     0.64543   0.18637   0.28623   0.00000  Uiso   1.00
C61    C     0.64497   0.14693   0.21379   0.00000  Uiso   1.00
C62    C     0.35503   0.18638   0.28622   0.00000  Uiso   1.00
C63    C     0.48247   0.20414   0.04734   0.00000  Uiso   1.00
C64    C     0.48253   0.12921   0.45239   0.00000  Uiso   1.00
C65    C     0.51807   0.20406   0.45255   0.00000  Uiso   1.00
C66    C     0.51800   0.12926   0.04773   0.00000  Uiso   1.00
C67    C     0.48278   0.20428   0.09337   0.00000  Uiso   1.00
C68    C     0.48290   0.12905   0.40637   0.00000  Uiso   1.00
C69    C     0.51760   0.20420   0.40651   0.00000  Uiso   1.00
C70    C     0.57912   0.16666   0.25002   0.00000  Uiso   1.00
C71    C     0.51748   0.12910   0.09376   0.00000  Uiso   1.00
C72    C     0.50007   0.16669   0.11674   0.00000  Uiso   1.00
C73    C     0.50019   0.16663   0.38327   0.00000  Uiso   1.00
C74    C     0.50028   0.16669   0.02426   0.00000  Uiso   1.00
C75    C     0.50031   0.16665   0.47574   0.00000  Uiso   1.00
C76    C     0.62369   0.16665   0.25002   0.00000  Uiso   1.00
C77    C     0.37630   0.16669   0.24998   0.00000  Uiso   1.00
C78    C     0.49998   0.16668   0.16499   0.00000  Uiso   1.00
C79    C     0.50008   0.16665   0.33501   0.00000  Uiso   1.00
C80    C     0.47431   0.02479   0.22236   0.00000  Uiso   1.00
C81    C     0.52570   0.30854   0.27763   0.00000  Uiso   1.00
C82    C     0.52570   0.02474   0.27763   0.00000  Uiso   1.00
C83    C     0.47430   0.30859   0.22237   0.00000  Uiso   1.00
C84    C     0.35456   0.14697   0.21376   0.00000  Uiso   1.00
Cu85   Cu    0.50000   0.21355   0.25000   0.00000  Uiso   1.00
Cu86   Cu    0.50000   0.11978   0.25000   0.00000  Uiso   1.00
F87    F     0.44845   0.04800   0.19455   0.00000  Uiso   1.00
F88    F     0.55158   0.28534   0.30542   0.00000  Uiso   1.00
F89    F     0.55155   0.04790   0.30544   0.00000  Uiso   1.00
F90    F     0.44842   0.28543   0.19459   0.00000  Uiso   1.00
F91    F     0.46414   0.24005   0.02533   0.00000  Uiso   1.00
F92    F     0.46417   0.09331   0.47411   0.00000  Uiso   1.00
F93    F     0.53646   0.23997   0.47443   0.00000  Uiso   1.00
F94    F     0.53641   0.09334   0.02613   0.00000  Uiso   1.00
H95    H     0.46885   0.23334   0.11073   0.00000  Uiso   1.00
H96    H     0.46898   0.10000   0.38879   0.00000  Uiso   1.00
H97    H     0.53150   0.23324   0.38905   0.00000  Uiso   1.00
H98    H     0.53135   0.10005   0.11143   0.00000  Uiso   1.00
H99    H     0.40301   0.13853   0.17580   0.00000  Uiso   1.00
H100   H     0.59696   0.19496   0.32415   0.00000  Uiso   1.00
H101   H     0.59597   0.13817   0.17595   0.00000  Uiso   1.00
H102   H     0.40400   0.19499   0.32411   0.00000  Uiso   1.00
N103   N     0.50000   0.28402   0.25000   0.00000  Uiso   1.00
N104   N     0.50000   0.04931   0.25000   0.00000  Uiso   1.00
O105   O     0.43988   0.20625   0.25000   0.00000  Uiso   1.00
O106   O     0.62618   0.20490   0.32308   0.00000  Uiso   1.00
O107   O     0.62525   0.12836   0.17695   0.00000  Uiso   1.00
O108   O     0.37475   0.20491   0.32306   0.00000  Uiso   1.00
O109   O     0.56012   0.12709   0.25000   0.00000  Uiso   1.00
O110   O     0.56012   0.20625   0.25000   0.00000  Uiso   1.00
O111   O     0.43988   0.12709   0.24999   0.00000  Uiso   1.00
O112   O     0.50000   0.20626   0.18573   0.00000  Uiso   1.00
O113   O     0.50000   0.12707   0.31427   0.00000  Uiso   1.00
O114   O     0.50000   0.20626   0.31427   0.00000  Uiso   1.00
O115   O     0.50000   0.12707   0.18573   0.00000  Uiso   1.00
O116   O     0.37382   0.12848   0.17690   0.00000  Uiso   1.00
C117   C     0.75421   0.16667   0.24998   0.00000  Uiso   1.00
C118   C     0.97876   0.18637   0.28623   0.00000  Uiso   1.00
C119   C     0.97830   0.14693   0.21379   0.00000  Uiso   1.00
C120   C     0.68836   0.18638   0.28622   0.00000  Uiso   1.00
C121   C     0.81581   0.20414   0.04734   0.00000  Uiso   1.00
C122   C     0.81587   0.12921   0.45239   0.00000  Uiso   1.00
C123   C     0.85140   0.20406   0.45255   0.00000  Uiso   1.00
C124   C     0.85133   0.12926   0.04773   0.00000  Uiso   1.00
C125   C     0.81612   0.20428   0.09337   0.00000  Uiso   1.00
C126   C     0.81623   0.12905   0.40637   0.00000  Uiso   1.00
C127   C     0.85094   0.20420   0.40651   0.00000  Uiso   1.00
C128   C     0.91245   0.16666   0.25002   0.00000  Uiso   1.00
C129   C     0.85081   0.12910   0.09376   0.00000  Uiso   1.00
C130   C     0.83340   0.16669   0.11674   0.00000  Uiso   1.00
C131   C     0.83353   0.16663   0.38327   0.00000  Uiso   1.00
C132   C     0.83361   0.16669   0.02426   0.00000  Uiso   1.00
C133   C     0.83364   0.16665   0.47574   0.00000  Uiso   1.00
C134   C     0.95702   0.16665   0.25002   0.00000  Uiso   1.00
C135   C     0.70964   0.16669   0.24998   0.00000  Uiso   1.00
C136   C     0.83332   0.16668   0.16499   0.00000  Uiso   1.00
C137   C     0.83341   0.16665   0.33501   0.00000  Uiso   1.00
C138   C     0.80764   0.02479   0.22236   0.00000  Uiso   1.00
C139   C     0.85904   0.30854   0.27763   0.00000  Uiso   1.00
C140   C     0.85903   0.02474   0.27763   0.00000  Uiso   1.00
C141   C     0.80763   0.30859   0.22237   0.00000  Uiso   1.00
C142   C     0.68790   0.14697   0.21376   0.00000  Uiso   1.00
Cu143  Cu    0.83333   0.21355   0.25000   0.00000  Uiso   1.00
Cu144  Cu    0.83333   0.11978   0.25000   0.00000  Uiso   1.00
F145   F     0.78179   0.04800   0.19455   0.00000  Uiso   1.00
F146   F     0.88491   0.28534   0.30542   0.00000  Uiso   1.00
F147   F     0.88489   0.04790   0.30544   0.00000  Uiso   1.00
F148   F     0.78175   0.28543   0.19459   0.00000  Uiso   1.00
F149   F     0.79748   0.24005   0.02533   0.00000  Uiso   1.00
F150   F     0.79751   0.09331   0.47411   0.00000  Uiso   1.00
F151   F     0.86980   0.23997   0.47443   0.00000  Uiso   1.00
F152   F     0.86975   0.09334   0.02613   0.00000  Uiso   1.00
H153   H     0.80218   0.23334   0.11073   0.00000  Uiso   1.00
H154   H     0.80231   0.10000   0.38879   0.00000  Uiso   1.00
H155   H     0.86483   0.23324   0.38905   0.00000  Uiso   1.00
H156   H     0.86468   0.10005   0.11143   0.00000  Uiso   1.00
H157   H     0.73635   0.13853   0.17580   0.00000  Uiso   1.00
H158   H     0.93029   0.19496   0.32415   0.00000  Uiso   1.00
H159   H     0.92931   0.13817   0.17595   0.00000  Uiso   1.00
H160   H     0.73733   0.19499   0.32411   0.00000  Uiso   1.00
N161   N     0.83333   0.28402   0.25000   0.00000  Uiso   1.00
N162   N     0.83333   0.04931   0.25000   0.00000  Uiso   1.00
O163   O     0.77321   0.20625   0.25000   0.00000  Uiso   1.00
O164   O     0.95951   0.20490   0.32308   0.00000  Uiso   1.00
O165   O     0.95858   0.12836   0.17695   0.00000  Uiso   1.00
O166   O     0.70809   0.20491   0.32306   0.00000  Uiso   1.00
O167   O     0.89345   0.12709   0.25000   0.00000  Uiso   1.00
O168   O     0.89345   0.20625   0.25000   0.00000  Uiso   1.00
O169   O     0.77321   0.12709   0.24999   0.00000  Uiso   1.00
O170   O     0.83333   0.20626   0.18573   0.00000  Uiso   1.00
O171   O     0.83334   0.12707   0.31427   0.00000  Uiso   1.00
O172   O     0.83334   0.20626   0.31427   0.00000  Uiso   1.00
O173   O     0.83333   0.12707   0.18573   0.00000  Uiso   1.00
O174   O     0.70715   0.12848   0.17690   0.00000  Uiso   1.00
C175   C     0.08755   0.50001   0.24998   0.00000  Uiso   1.00
C176   C     0.31210   0.51971   0.28623   0.00000  Uiso   1.00
C177   C     0.31163   0.48026   0.21379   0.00000  Uiso   1.00
C178   C     0.02169   0.51972   0.28622   0.00000  Uiso   1.00
C179   C     0.14914   0.53747   0.04734   0.00000  Uiso   1.00
C180   C     0.14920   0.46254   0.45239   0.00000  Uiso   1.00
C181   C     0.18473   0.53740   0.45255   0.00000  Uiso   1.00
C182   C     0.18466   0.46259   0.04773   0.00000  Uiso   1.00
C183   C     0.14945   0.53762   0.09337   0.00000  Uiso   1.00
C184   C     0.14956   0.46238   0.40637   0.00000  Uiso   1.00
C185   C     0.18427   0.53754   0.40651   0.00000  Uiso   1.00
C186   C     0.24579   0.49999   0.25002   0.00000  Uiso   1.00
C187   C     0.18414   0.46244   0.09376   0.00000  Uiso   1.00
C188   C     0.16674   0.50002   0.11674   0.00000  Uiso   1.00
C189   C     0.16686   0.49997   0.38327   0.00000  Uiso   1.00
C190   C     0.16695   0.50003   0.02426   0.00000  Uiso   1.00
C191   C     0.16698   0.49998   0.47574   0.00000  Uiso   1.00
C192   C     0.29036   0.49998   0.25002   0.00000  Uiso   1.00
C193   C     0.04297   0.50002   0.24998   0.00000  Uiso   1.00
C194   C     0.16665   0.50001   0.16499   0.00000  Uiso   1.00
C195   C     0.16675   0.49999   0.33501   0.00000  Uiso   1.00
C196   C     0.14097   0.35813   0.22236   0.00000  Uiso   1.00
C197   C     0.19237   0.64188   0.27763   0.00000  Uiso   1.00
C198   C     0.19236   0.35808   0.27763   0.00000  Uiso   1.00
C199   C     0.14096   0.64192   0.22237   0.00000  Uiso   1.00
C200   C     0.02123   0.48031   0.21376   0.00000  Uiso   1.00
Cu201  Cu    0.16667   0.54689   0.25000   0.00000  Uiso   1.00
Cu202  Cu    0.16667   0.45311   0.25000   0.00000  Uiso   1.00
F203   F     0.11512   0.38133   0.19455   0.00000  Uiso   1.00
F204   F     0.21825   0.61867   0.30542   0.00000  Uiso   1.00
F205   F     0.21822   0.38124   0.30544   0.00000  Uiso   1.00
F206   F     0.11508   0.61876   0.19459   0.00000  Uiso   1.00
F207   F     0.13081   0.57338   0.02533   0.00000  Uiso   1.00
F208   F     0.13084   0.42665   0.47411   0.00000  Uiso   1.00
F209   F     0.20313   0.57330   0.47443   0.00000  Uiso   1.00
F210   F     0.20308   0.42668   0.02613   0.00000  Uiso   1.00
H211   H     0.13552   0.56667   0.11073   0.00000  Uiso   1.00
H212   H     0.13564   0.43333   0.38879   0.00000  Uiso   1.00
H213   H     0.19816   0.56657   0.38905   0.00000  Uiso   1.00
H214   H     0.19801   0.43339   0.11143   0.00000  Uiso   1.00
H215   H     0.06968   0.47186   0.17580   0.00000  Uiso   1.00
H216   H     0.26362   0.52829   0.32415   0.00000  Uiso   1.00
H217   H     0.26264   0.47150   0.17595   0.00000  Uiso   1.00
H218   H     0.07066   0.52832   0.32411   0.00000  Uiso   1.00
N219   N     0.16667   0.61736   0.25000   0.00000  Uiso   1.00
N220   N     0.16667   0.38264   0.25000   0.00000  Uiso   1.00
O221   O     0.10655   0.53958   0.25000   0.00000  Uiso   1.00
O222   O     0.29284   0.53824   0.32308   0.00000  Uiso   1.00
O223   O     0.29191   0.46169   0.17695   0.00000  Uiso   1.00
O224   O     0.04142   0.53825   0.32306   0.00000  Uiso   1.00
O225   O     0.22679   0.46042   0.25000   0.00000  Uiso   1.00
O226   O     0.22679   0.53958   0.25000   0.00000  Uiso   1.00
O227   O     0.10655   0.46042   0.24999   0.00000  Uiso   1.00
O228   O     0.16666   0.53959   0.18573   0.00000  Uiso   1.00
O229   O     0.16667   0.46041   0.31427   0.00000  Uiso   1.00
O230   O     0.16667   0.53959   0.31427   0.00000  Uiso   1.00
O231   O     0.16666   0.46041   0.18573   0.00000  Uiso   1.00
O232   O     0.04049   0.46182   0.17690   0.00000  Uiso   1.00
C233   C     0.42088   0.50001   0.24998   0.00000  Uiso   1.00
C234   C     0.64543   0.51971   0.28623   0.00000  Uiso   1.00
C235   C     0.64497   0.48026   0.21379   0.00000  Uiso   1.00
C236   C     0.35503   0.51972   0.28622   0.00000  Uiso   1.00
C237   C     0.48247   0.53747   0.04734   0.00000  Uiso   1.00
C238   C     0.48253   0.46254   0.45239   0.00000  Uiso   1.00
C239   C     0.51807   0.53740   0.45255   0.00000  Uiso   1.00
C240   C     0.51800   0.46259   0.04773   0.00000  Uiso   1.00
C241   C     0.48278   0.53762   0.09337   0.00000  Uiso   1.00
C242   C     0.48290   0.46238   0.40637   0.00000  Uiso   1.00
C243   C     0.51760   0.53754   0.40651   0.00000  Uiso   1.00
C244   C     0.57912   0.49999   0.25002   0.00000  Uiso   1.00
C245   C     0.51748   0.46244   0.09376   0.00000  Uiso   1.00
C246   C     0.50007   0.50002   0.11674   0.00000  Uiso   1.00
C247   C     0.50019   0.49997   0.38327   0.00000  Uiso   1.00
C248   C     0.50028   0.50003   0.02426   0.00000  Uiso   1.00
C249   C     0.50031   0.49998   0.47574   0.00000  Uiso   1.00
C250   C     0.62369   0.49998   0.25002   0.00000  Uiso   1.00
C251   C     0.37630   0.50002   0.24998   0.00000  Uiso   1.00
C252   C     0.49998   0.50001   0.16499   0.00000  Uiso   1.00
C253   C     0.50008   0.49999   0.33501   0.00000  Uiso   1.00
C254   C     0.47431   0.35813   0.22236   0.00000  Uiso   1.00
C255   C     0.52570   0.64188   0.27763   0.00000  Uiso   1.00
C256   C     0.52570   0.35808   0.27763   0.00000  Uiso   1.00
C257   C     0.47430   0.64192   0.22237   0.00000  Uiso   1.00
C258   C     0.35456   0.48031   0.21376   0.00000  Uiso   1.00
Cu259  Cu    0.50000   0.54689   0.25000   0.00000  Uiso   1.00
Cu260  Cu    0.50000   0.45311   0.25000   0.00000  Uiso   1.00
F261   F     0.44845   0.38133   0.19455   0.00000  Uiso   1.00
F262   F     0.55158   0.61867   0.30542   0.00000  Uiso   1.00
F263   F     0.55155   0.38124   0.30544   0.00000  Uiso   1.00
F264   F     0.44842   0.61876   0.19459   0.00000  Uiso   1.00
F265   F     0.46414   0.57338   0.02533   0.00000  Uiso   1.00
F266   F     0.46417   0.42665   0.47411   0.00000  Uiso   1.00
F267   F     0.53646   0.57330   0.47443   0.00000  Uiso   1.00
F268   F     0.53641   0.42668   0.02613   0.00000  Uiso   1.00
H269   H     0.46885   0.56667   0.11073   0.00000  Uiso   1.00
H270   H     0.46898   0.43333   0.38879   0.00000  Uiso   1.00
H271   H     0.53150   0.56657   0.38905   0.00000  Uiso   1.00
H272   H     0.53135   0.43339   0.11143   0.00000  Uiso   1.00
H273   H     0.40301   0.47186   0.17580   0.00000  Uiso   1.00
H274   H     0.59696   0.52829   0.32415   0.00000  Uiso   1.00
H275   H     0.59597   0.47150   0.17595   0.00000  Uiso   1.00
H276   H     0.40400   0.52832   0.32411   0.00000  Uiso   1.00
N277   N     0.50000   0.61736   0.25000   0.00000  Uiso   1.00
N278   N     0.50000   0.38264   0.25000   0.00000  Uiso   1.00
O279   O     0.43988   0.53958   0.25000   0.00000  Uiso   1.00
O280   O     0.62618   0.53824   0.32308   0.00000  Uiso   1.00
O281   O     0.62525   0.46169   0.17695   0.00000  Uiso   1.00
O282   O     0.37475   0.53825   0.32306   0.00000  Uiso   1.00
O283   O     0.56012   0.46042   0.25000   0.00000  Uiso   1.00
O284   O     0.56012   0.53958   0.25000   0.00000  Uiso   1.00
O285   O     0.43988   0.46042   0.24999   0.00000  Uiso   1.00
O286   O     0.50000   0.53959   0.18573   0.00000  Uiso   1.00
O287   O     0.50000   0.46041   0.31427   0.00000  Uiso   1.00
O288   O     0.50000   0.53959   0.31427   0.00000  Uiso   1.00
O289   O     0.50000   0.46041   0.18573   0.00000  Uiso   1.00
O290   O     0.37382   0.46182   0.17690   0.00000  Uiso   1.00
C291   C     0.75421   0.50001   0.24998   0.00000  Uiso   1.00
C292   C     0.97876   0.51971   0.28623   0.00000  Uiso   1.00
C293   C     0.97830   0.48026   0.21379   0.00000  Uiso   1.00
C294   C     0.68836   0.51972   0.28622   0.00000  Uiso   1.00
C295   C     0.81581   0.53747   0.04734   0.00000  Uiso   1.00
C296   C     0.81587   0.46254   0.45239   0.00000  Uiso   1.00
C297   C     0.85140   0.53740   0.45255   0.00000  Uiso   1.00
C298   C     0.85133   0.46259   0.04773   0.00000  Uiso   1.00
C299   C     0.81612   0.53762   0.09337   0.00000  Uiso   1.00
C300   C     0.81623   0.46238   0.40637   0.00000  Uiso   1.00
C301   C     0.85094   0.53754   0.40651   0.00000  Uiso   1.00
C302   C     0.91245   0.49999   0.25002   0.00000  Uiso   1.00
C303   C     0.85081   0.46244   0.09376   0.00000  Uiso   1.00
C304   C     0.83340   0.50002   0.11674   0.00000  Uiso   1.00
C305   C     0.83353   0.49997   0.38327   0.00000  Uiso   1.00
C306   C     0.83361   0.50003   0.02426   0.00000  Uiso   1.00
C307   C     0.83364   0.49998   0.47574   0.00000  Uiso   1.00
C308   C     0.95702   0.49998   0.25002   0.00000  Uiso   1.00
C309   C     0.70964   0.50002   0.24998   0.00000  Uiso   1.00
C310   C     0.83332   0.50001   0.16499   0.00000  Uiso   1.00
C311   C     0.83341   0.49999   0.33501   0.00000  Uiso   1.00
C312   C     0.80764   0.35813   0.22236   0.00000  Uiso   1.00
C313   C     0.85904   0.64188   0.27763   0.00000  Uiso   1.00
C314   C     0.85903   0.35808   0.27763   0.00000  Uiso   1.00
C315   C     0.80763   0.64192   0.22237   0.00000  Uiso   1.00
C316   C     0.68790   0.48031   0.21376   0.00000  Uiso   1.00
Cu317  Cu    0.83333   0.54689   0.25000   0.00000  Uiso   1.00
Cu318  Cu    0.83333   0.45311   0.25000   0.00000  Uiso   1.00
F319   F     0.78179   0.38133   0.19455   0.00000  Uiso   1.00
F320   F     0.88491   0.61867   0.30542   0.00000  Uiso   1.00
F321   F     0.88489   0.38124   0.30544   0.00000  Uiso   1.00
F322   F     0.78175   0.61876   0.19459   0.00000  Uiso   1.00
F323   F     0.79748   0.57338   0.02533   0.00000  Uiso   1.00
F324   F     0.79751   0.42665   0.47411   0.00000  Uiso   1.00
F325   F     0.86980   0.57330   0.47443   0.00000  Uiso   1.00
F326   F     0.86975   0.42668   0.02613   0.00000  Uiso   1.00
H327   H     0.80218   0.56667   0.11073   0.00000  Uiso   1.00
H328   H     0.80231   0.43333   0.38879   0.00000  Uiso   1.00
H329   H     0.86483   0.56657   0.38905   0.00000  Uiso   1.00
H330   H     0.86468   0.43339   0.11143   0.00000  Uiso   1.00
H331   H     0.73635   0.47186   0.17580   0.00000  Uiso   1.00
H332   H     0.93029   0.52829   0.32415   0.00000  Uiso   1.00
H333   H     0.92931   0.47150   0.17595   0.00000  Uiso   1.00
H334   H     0.73733   0.52832   0.32411   0.00000  Uiso   1.00
N335   N     0.83333   0.61736   0.25000   0.00000  Uiso   1.00
N336   N     0.83333   0.38264   0.25000   0.00000  Uiso   1.00
O337   O     0.77321   0.53958   0.25000   0.00000  Uiso   1.00
O338   O     0.95951   0.53824   0.32308   0.00000  Uiso   1.00
O339   O     0.95858   0.46169   0.17695   0.00000  Uiso   1.00
O340   O     0.70809   0.53825   0.32306   0.00000  Uiso   1.00
O341   O     0.89345   0.46042   0.25000   0.00000  Uiso   1.00
O342   O     0.89345   0.53958   0.25000   0.00000  Uiso   1.00
O343   O     0.77321   0.46042   0.24999   0.00000  Uiso   1.00
O344   O     0.83333   0.53959   0.18573   0.00000  Uiso   1.00
O345   O     0.83334   0.46041   0.31427   0.00000  Uiso   1.00
O346   O     0.83334   0.53959   0.31427   0.00000  Uiso   1.00
O347   O     0.83333   0.46041   0.18573   0.00000  Uiso   1.00
O348   O     0.70715   0.46182   0.17690   0.00000  Uiso   1.00
C349   C     0.08755   0.83334   0.24998   0.00000  Uiso   1.00
C350   C     0.31210   0.85304   0.28623   0.00000  Uiso   1.00
C351   C     0.31163   0.81360   0.21379   0.00000  Uiso   1.00
C352   C     0.02169   0.85305   0.28622   0.00000  Uiso   1.00
C353   C     0.14914   0.87080   0.04734   0.00000  Uiso   1.00
C354   C     0.14920   0.79588   0.45239   0.00000  Uiso   1.00
C355   C     0.18473   0.87073   0.45255   0.00000  Uiso   1.00
C356   C     0.18466   0.79592   0.04773   0.00000  Uiso   1.00
C357   C     0.14945   0.87095   0.09337   0.00000  Uiso   1.00
C358   C     0.14956   0.79571   0.40637   0.00000  Uiso   1.00
C359   C     0.18427   0.87087   0.40651   0.00000  Uiso   1.00
C360   C     0.24579   0.83333   0.25002   0.00000  Uiso   1.00
C361   C     0.18414   0.79577   0.09376   0.00000  Uiso   1.00
C362   C     0.16674   0.83335   0.11674   0.00000  Uiso   1.00
C363   C     0.16686   0.83330   0.38327   0.00000  Uiso   1.00
C364   C     0.16695   0.83336   0.02426   0.00000  Uiso   1.00
C365   C     0.16698   0.83332   0.47574   0.00000  Uiso   1.00
C366   C     0.29036   0.83331   0.25002   0.00000  Uiso   1.00
C367   C     0.04297   0.83335   0.24998   0.00000  Uiso   1.00
C368   C     0.16665   0.83334   0.16499   0.00000  Uiso   1.00
C369   C     0.16675   0.83332   0.33501   0.00000  Uiso   1.00
C370   C     0.14097   0.69146   0.22236   0.00000  Uiso   1.00
C371   C     0.19237   0.97521   0.27763   0.00000  Uiso   1.00
C372   C     0.19236   0.69141   0.27763   0.00000  Uiso   1.00
C373   C     0.14096   0.97526   0.22237   0.00000  Uiso   1.00
C374   C     0.02123   0.81364   0.21376   0.00000  Uiso   1.00
Cu375  Cu    0.16667   0.88022   0.25000   0.00000  Uiso   1.00
Cu376  Cu    0.16667   0.78645   0.25000   0.00000  Uiso   1.00
F377   F     0.11512   0.71466   0.19455   0.00000  Uiso   1.00
F378   F     0.21825   0.95201   0.30542   0.00000  Uiso   1.00
F379   F     0.21822   0.71457   0.30544   0.00000  Uiso   1.00
F380   F     0.11508   0.95210   0.19459   0.00000  Uiso   1.00
F381   F     0.13081   0.90671   0.02533   0.00000  Uiso   1.00
F382   F     0.13084   0.75998   0.47411   0.00000  Uiso   1.00
F383   F     0.20313   0.90664   0.47443   0.00000  Uiso   1.00
F384   F     0.20308   0.76001   0.02613   0.00000  Uiso   1.00
H385   H     0.13552   0.90000   0.11073   0.00000  Uiso   1.00
H386   H     0.13564   0.76666   0.38879   0.00000  Uiso   1.00
H387   H     0.19816   0.89990   0.38905   0.00000  Uiso   1.00
H388   H     0.19801   0.76672   0.11143   0.00000  Uiso   1.00
H389   H     0.06968   0.80520   0.17580   0.00000  Uiso   1.00
H390   H     0.26362   0.86163   0.32415   0.00000  Uiso   1.00
H391   H     0.26264   0.80483   0.17595   0.00000  Uiso   1.00
H392   H     0.07066   0.86165   0.32411   0.00000  Uiso   1.00
N393   N     0.16667   0.95069   0.25000   0.00000  Uiso   1.00
N394   N     0.16667   0.71598   0.25000   0.00000  Uiso   1.00
O395   O     0.10655   0.87291   0.25000   0.00000  Uiso   1.00
O396   O     0.29284   0.87157   0.32308   0.00000  Uiso   1.00
O397   O     0.29191   0.79502   0.17695   0.00000  Uiso   1.00
O398   O     0.04142   0.87158   0.32306   0.00000  Uiso   1.00
O399   O     0.22679   0.79375   0.25000   0.00000  Uiso   1.00
O400   O     0.22679   0.87291   0.25000   0.00000  Uiso   1.00
O401   O     0.10655   0.79375   0.24999   0.00000  Uiso   1.00
O402   O     0.16666   0.87293   0.18573   0.00000  Uiso   1.00
O403   O     0.16667   0.79374   0.31427   0.00000  Uiso   1.00
O404   O     0.16667   0.87293   0.31427   0.00000  Uiso   1.00
O405   O     0.16666   0.79374   0.18573   0.00000  Uiso   1.00
O406   O     0.04049   0.79515   0.17690   0.00000  Uiso   1.00
C407   C     0.42088   0.83334   0.24998   0.00000  Uiso   1.00
C408   C     0.64543   0.85304   0.28623   0.00000  Uiso   1.00
C409   C     0.64497   0.81360   0.21379   0.00000  Uiso   1.00
C410   C     0.35503   0.85305   0.28622   0.00000  Uiso   1.00
C411   C     0.48247   0.87080   0.04734   0.00000  Uiso   1.00
C412   C     0.48253   0.79588   0.45239   0.00000  Uiso   1.00
C413   C     0.51807   0.87073   0.45255   0.00000  Uiso   1.00
C414   C     0.51800   0.79592   0.04773   0.00000  Uiso   1.00
C415   C     0.48278   0.87095   0.09337   0.00000  Uiso   1.00
C416   C     0.48290   0.79571   0.40637   0.00000  Uiso   1.00
C417   C     0.51760   0.87087   0.40651   0.00000  Uiso   1.00
C418   C     0.57912   0.83333   0.25002   0.00000  Uiso   1.00
C419   C     0.51748   0.79577   0.09376   0.00000  Uiso   1.00
C420   C     0.50007   0.83335   0.11674   0.00000  Uiso   1.00
C421   C     0.50019   0.83330   0.38327   0.00000  Uiso   1.00
C422   C     0.50028   0.83336   0.02426   0.00000  Uiso   1.00
C423   C     0.50031   0.83332   0.47574   0.00000  Uiso   1.00
C424   C     0.62369   0.83331   0.25002   0.00000  Uiso   1.00
C425   C     0.37630   0.83335   0.24998   0.00000  Uiso   1.00
C426   C     0.49998   0.83334   0.16499   0.00000  Uiso   1.00
C427   C     0.50008   0.83332   0.33501   0.00000  Uiso   1.00
C428   C     0.47431   0.69146   0.22236   0.00000  Uiso   1.00
C429   C     0.52570   0.97521   0.27763   0.00000  Uiso   1.00
C430   C     0.52570   0.69141   0.27763   0.00000  Uiso   1.00
C431   C     0.47430   0.97526   0.22237   0.00000  Uiso   1.00
C432   C     0.35456   0.81364   0.21376   0.00000  Uiso   1.00
Cu433  Cu    0.50000   0.88022   0.25000   0.00000  Uiso   1.00
Cu434  Cu    0.50000   0.78645   0.25000   0.00000  Uiso   1.00
F435   F     0.44845   0.71466   0.19455   0.00000  Uiso   1.00
F436   F     0.55158   0.95201   0.30542   0.00000  Uiso   1.00
F437   F     0.55155   0.71457   0.30544   0.00000  Uiso   1.00
F438   F     0.44842   0.95210   0.19459   0.00000  Uiso   1.00
F439   F     0.46414   0.90671   0.02533   0.00000  Uiso   1.00
F440   F     0.46417   0.75998   0.47411   0.00000  Uiso   1.00
F441   F     0.53646   0.90664   0.47443   0.00000  Uiso   1.00
F442   F     0.53641   0.76001   0.02613   0.00000  Uiso   1.00
H443   H     0.46885   0.90000   0.11073   0.00000  Uiso   1.00
H444   H     0.46898   0.76666   0.38879   0.00000  Uiso   1.00
H445   H     0.53150   0.89990   0.38905   0.00000  Uiso   1.00
H446   H     0.53135   0.76672   0.11143   0.00000  Uiso   1.00
H447   H     0.40301   0.80520   0.17580   0.00000  Uiso   1.00
H448   H     0.59696   0.86163   0.32415   0.00000  Uiso   1.00
H449   H     0.59597   0.80483   0.17595   0.00000  Uiso   1.00
H450   H     0.40400   0.86165   0.32411   0.00000  Uiso   1.00
N451   N     0.50000   0.95069   0.25000   0.00000  Uiso   1.00
N452   N     0.50000   0.71598   0.25000   0.00000  Uiso   1.00
O453   O     0.43988   0.87291   0.25000   0.00000  Uiso   1.00
O454   O     0.62618   0.87157   0.32308   0.00000  Uiso   1.00
O455   O     0.62525   0.79502   0.17695   0.00000  Uiso   1.00
O456   O     0.37475   0.87158   0.32306   0.00000  Uiso   1.00
O457   O     0.56012   0.79375   0.25000   0.00000  Uiso   1.00
O458   O     0.56012   0.87291   0.25000   0.00000  Uiso   1.00
O459   O     0.43988   0.79375   0.24999   0.00000  Uiso   1.00
O460   O     0.50000   0.87293   0.18573   0.00000  Uiso   1.00
O461   O     0.50000   0.79374   0.31427   0.00000  Uiso   1.00
O462   O     0.50000   0.87293   0.31427   0.00000  Uiso   1.00
O463   O     0.50000   0.79374   0.18573   0.00000  Uiso   1.00
O464   O     0.37382   0.79515   0.17690   0.00000  Uiso   1.00
C465   C     0.75421   0.83334   0.24998   0.00000  Uiso   1.00
C466   C     0.97876   0.85304   0.28623   0.00000  Uiso   1.00
C467   C     0.97830   0.81360   0.21379   0.00000  Uiso   1.00
C468   C     0.68836   0.85305   0.28622   0.00000  Uiso   1.00
C469   C     0.81581   0.87080   0.04734   0.00000  Uiso   1.00
C470   C     0.81587   0.79588   0.45239   0.00000  Uiso   1.00
C471   C     0.85140   0.87073   0.45255   0.00000  Uiso   1.00
C472   C     0.85133   0.79592   0.04773   0.00000  Uiso   1.00
C473   C     0.81612   0.87095   0.09337   0.00000  Uiso   1.00
C474   C     0.81623   0.79571   0.40637   0.00000  Uiso   1.00
C475   C     0.85094   0.87087   0.40651   0.00000  Uiso   1.00
C476   C     0.91245   0.83333   0.25002   0.00000  Uiso   1.00
C477   C     0.85081   0.79577   0.09376   0.00000  Uiso   1.00
C478   C     0.83340   0.83335   0.11674   0.00000  Uiso   1.00
C479   C     0.83353   0.83330   0.38327   0.00000  Uiso   1.00
C480   C     0.83361   0.83336   0.02426   0.00000  Uiso   1.00
C481   C     0.83364   0.83332   0.47574   0.00000  Uiso   1.00
C482   C     0.95702   0.83331   0.25002   0.00000  Uiso   1.00
C483   C     0.70964   0.83335   0.24998   0.00000  Uiso   1.00
C484   C     0.83332   0.83334   0.16499   0.00000  Uiso   1.00
C485   C     0.83341   0.83332   0.33501   0.00000  Uiso   1.00
C486   C     0.80764   0.69146   0.22236   0.00000  Uiso   1.00
C487   C     0.85904   0.97521   0.27763   0.00000  Uiso   1.00
C488   C     0.85903   0.69141   0.27763   0.00000  Uiso   1.00
C489   C     0.80763   0.97526   0.22237   0.00000  Uiso   1.00
C490   C     0.68790   0.81364   0.21376   0.00000  Uiso   1.00
Cu491  Cu    0.83333   0.88022   0.25000   0.00000  Uiso   1.00
Cu492  Cu    0.83333   0.78645   0.25000   0.00000  Uiso   1.00
F493   F     0.78179   0.71466   0.19455   0.00000  Uiso   1.00
F494   F     0.88491   0.95201   0.30542   0.00000  Uiso   1.00
F495   F     0.88489   0.71457   0.30544   0.00000  Uiso   1.00
F496   F     0.78175   0.95210   0.19459   0.00000  Uiso   1.00
F497   F     0.79748   0.90671   0.02533   0.00000  Uiso   1.00
F498   F     0.79751   0.75998   0.47411   0.00000  Uiso   1.00
F499   F     0.86980   0.90664   0.47443   0.00000  Uiso   1.00
F500   F     0.86975   0.76001   0.02613   0.00000  Uiso   1.00
H501   H     0.80218   0.90000   0.11073   0.00000  Uiso   1.00
H502   H     0.80231   0.76666   0.38879   0.00000  Uiso   1.00
H503   H     0.86483   0.89990   0.38905   0.00000  Uiso   1.00
H504   H     0.86468   0.76672   0.11143   0.00000  Uiso   1.00
H505   H     0.73635   0.80520   0.17580   0.00000  Uiso   1.00
H506   H     0.93029   0.86163   0.32415   0.00000  Uiso   1.00
H507   H     0.92931   0.80483   0.17595   0.00000  Uiso   1.00
H508   H     0.73733   0.86165   0.32411   0.00000  Uiso   1.00
N509   N     0.83333   0.95069   0.25000   0.00000  Uiso   1.00
N510   N     0.83333   0.71598   0.25000   0.00000  Uiso   1.00
O511   O     0.77321   0.87291   0.25000   0.00000  Uiso   1.00
O512   O     0.95951   0.87157   0.32308   0.00000  Uiso   1.00
O513   O     0.95858   0.79502   0.17695   0.00000  Uiso   1.00
O514   O     0.70809   0.87158   0.32306   0.00000  Uiso   1.00
O515   O     0.89345   0.79375   0.25000   0.00000  Uiso   1.00
O516   O     0.89345   0.87291   0.25000   0.00000  Uiso   1.00
O517   O     0.77321   0.79375   0.24999   0.00000  Uiso   1.00
O518   O     0.83333   0.87293   0.18573   0.00000  Uiso   1.00
O519   O     0.83334   0.79374   0.31427   0.00000  Uiso   1.00
O520   O     0.83334   0.87293   0.31427   0.00000  Uiso   1.00
O521   O     0.83333   0.79374   0.18573   0.00000  Uiso   1.00
O522   O     0.70715   0.79515   0.17690   0.00000  Uiso   1.00
C523   C     0.08755   0.16667   0.74998   0.00000  Uiso   1.00
C524   C     0.31210   0.18637   0.78623   0.00000  Uiso   1.00
C525   C     0.31163   0.14693   0.71379   0.00000  Uiso   1.00
C526   C     0.02169   0.18638   0.78622   0.00000  Uiso   1.00
C527   C     0.14914   0.20414   0.54734   0.00000  Uiso   1.00
C528   C     0.14920   0.12921   0.95239   0.00000  Uiso   1.00
C529   C     0.18473   0.20406   0.95255   0.00000  Uiso   1.00
C530   C     0.18466   0.12926   0.54773   0.00000  Uiso   1.00
C531   C     0.14945   0.20428   0.59337   0.00000  Uiso   1.00
C532   C     0.14956   0.12905   0.90637   0.00000  Uiso   1.00
C533   C     0.18427   0.20420   0.90651   0.00000  Uiso   1.00
C534   C     0.24579   0.16666   0.75002   0.00000  Uiso   1.00
C535   C     0.18414   0.12910   0.59376   0.00000  Uiso   1.00
C536   C     0.16674   0.16669   0.61674   0.00000  Uiso   1.00
C537   C     0.16686   0.16663   0.88327   0.00000  Uiso   1.00
C538   C     0.16695   0.16669   0.52426   0.00000  Uiso   1.00
C539   C     0.16698   0.16665   0.97574   0.00000  Uiso   1.00
C540   C     0.29036   0.16665   0.75002   0.00000  Uiso   1.00
C541   C     0.04297   0.16669   0.74998   0.00000  Uiso   1.00
C542   C     0.16665   0.16668   0.66499   0.00000  Uiso   1.00
C543   C     0.16675   0.16665   0.83501   0.00000  Uiso   1.00
C544   C     0.14097   0.02479   0.72236   0.00000  Uiso   1.00
C545   C     0.19237   0.30854   0.77763   0.00000  Uiso   1.00
C546   C     0.19236   0.02474   0.77763   0.00000  Uiso   1.00
C547   C     0.14096   0.30859   0.72237   0.00000  Uiso   1.00
C548   C     0.02123   0.14697   0.71376   0.00000  Uiso   1.00
Cu549  Cu    0.16667   0.21355   0.75000   0.00000  Uiso   1.00
Cu550  Cu    0.16667   0.11978   0.75000   0.00000  Uiso   1.00
F551   F     0.11512   0.04800   0.69455   0.00000  Uiso   1.00
F552   F     0.21825   0.28534   0.80542   0.00000  Uiso   1.00
F553   F     0.21822   0.04790   0.80544   0.00000  Uiso   1.00
F554   F     0.11508   0.28543   0.69459   0.00000  Uiso   1.00
F555   F     0.13081   0.24005   0.52533   0.00000  Uiso   1.00
F556   F     0.13084   0.09331   0.97411   0.00000  Uiso   1.00
F557   F     0.20313   0.23997   0.97443   0.00000  Uiso   1.00
F558   F     0.20308   0.09334   0.52613   0.00000  Uiso   1.00
H559   H     0.13552   0.23334   0.61073   0.00000  Uiso   1.00
H560   H     0.13564   0.10000   0.88879   0.00000  Uiso   1.00
H561   H     0.19816   0.23324   0.88905   0.00000  Uiso   1.00
H562   H     0.19801   0.10005   0.61143   0.00000  Uiso   1.00
H563   H     0.06968   0.13853   0.67580   0.00000  Uiso   1.00
H564   H     0.26362   0.19496   0.82415   0.00000  Uiso   1.00
H565   H     0.26264   0.13817   0.67595   0.00000  Uiso   1.00
H566   H     0.07066   0.19499   0.82411   0.00000  Uiso   1.00
N567   N     0.16667   0.28402   0.75000   0.00000  Uiso   1.00
N568   N     0.16667   0.04931   0.75000   0.00000  Uiso   1.00
O569   O     0.10655   0.20625   0.75000   0.00000  Uiso   1.00
O570   O     0.29284   0.20490   0.82308   0.00000  Uiso   1.00
O571   O     0.29191   0.12836   0.67695   0.00000  Uiso   1.00
O572   O     0.04142   0.20491   0.82306   0.00000  Uiso   1.00
O573   O     0.22679   0.12709   0.75000   0.00000  Uiso   1.00
O574   O     0.22679   0.20625   0.75000   0.00000  Uiso   1.00
O575   O     0.10655   0.12709   0.74999   0.00000  Uiso   1.00
O576   O     0.16666   0.20626   0.68573   0.00000  Uiso   1.00
O577   O     0.16667   0.12707   0.81427   0.00000  Uiso   1.00
O578   O     0.16667   0.20626   0.81427   0.00000  Uiso   1.00
O579   O     0.16666   0.12707   0.68573   0.00000  Uiso   1.00
O580   O     0.04049   0.12848   0.67690   0.00000  Uiso   1.00
C581   C     0.42088   0.16667   0.74998   0.00000  Uiso   1.00
C582   C     0.64543   0.18637   0.78623   0.00000  Uiso   1.00
C583   C     0.64497   0.14693   0.71379   0.00000  Uiso   1.00
C584   C     0.35503   0.18638   0.78622   0.00000  Uiso   1.00
C585   C     0.48247   0.20414   0.54734   0.00000  Uiso   1.00
C586   C     0.48253   0.12921   0.95239   0.00000  Uiso   1.00
C587   C     0.51807   0.20406   0.95255   0.00000  Uiso   1.00
C588   C     0.51800   0.12926   0.54773   0.00000  Uiso   1.00
C589   C     0.48278   0.20428   0.59337   0.00000  Uiso   1.00
C590   C     0.48290   0.12905   0.90637   0.00000  Uiso   1.00
C591   C     0.51760   0.20420   0.90651   0.00000  Uiso   1.00
C592   C     0.57912   0.16666   0.75002   0.00000  Uiso   1.00
C593   C     0.51748   0.12910   0.59376   0.00000  Uiso   1.00
C594   C     0.50007   0.16669   0.61674   0.00000  Uiso   1.00
C595   C     0.50019   0.16663   0.88327   0.00000  Uiso   1.00
C596   C     0.50028   0.16669   0.52426   0.00000  Uiso   1.00
C597   C     0.50031   0.16665   0.97574   0.00000  Uiso   1.00
C598   C     0.62369   0.16665   0.75002   0.00000  Uiso   1.00
C599   C     0.37630   0.16669   0.74998   0.00000  Uiso   1.00
C600   C     0.49998   0.16668   0.66499   0.00000  Uiso   1.00
C601   C     0.50008   0.16665   0.83501   0.00000  Uiso   1.00
C602   C     0.47431   0.02479   0.72236   0.00000  Uiso   1.00
C603   C     0.52570   0.30854   0.77763   0.00000  Uiso   1.00
C604   C     0.52570   0.02474   0.77763   0.00000  Uiso   1.00
C605   C     0.47430   0.30859   0.72237   0.00000  Uiso   1.00
C606   C     0.35456   0.14697   0.71376   0.00000  Uiso   1.00
Cu607  Cu    0.50000   0.21355   0.75000   0.00000  Uiso   1.00
Cu608  Cu    0.50000   0.11978   0.75000   0.00000  Uiso   1.00
F609   F     0.44845   0.04800   0.69455   0.00000  Uiso   1.00
F610   F     0.55158   0.28534   0.80542   0.00000  Uiso   1.00
F611   F     0.55155   0.04790   0.80544   0.00000  Uiso   1.00
F612   F     0.44842   0.28543   0.69459   0.00000  Uiso   1.00
F613   F     0.46414   0.24005   0.52533   0.00000  Uiso   1.00
F614   F     0.46417   0.09331   0.97411   0.00000  Uiso   1.00
F615   F     0.53646   0.23997   0.97443   0.00000  Uiso   1.00
F616   F     0.53641   0.09334   0.52613   0.00000  Uiso   1.00
H617   H     0.46885   0.23334   0.61073   0.00000  Uiso   1.00
H618   H     0.46898   0.10000   0.88879   0.00000  Uiso   1.00
H619   H     0.53150   0.23324   0.88905   0.00000  Uiso   1.00
H620   H     0.53135   0.10005   0.61143   0.00000  Uiso   1.00
H621   H     0.40301   0.13853   0.67580   0.00000  Uiso   1.00
H622   H     0.59696   0.19496   0.82415   0.00000  Uiso   1.00
H623   H     0.59597   0.13817   0.67595   0.00000  Uiso   1.00
H624   H     0.40400   0.19499   0.82411   0.00000  Uiso   1.00
N625   N     0.50000   0.28402   0.75000   0.00000  Uiso   1.00
N626   N     0.50000   0.04931   0.75000   0.00000  Uiso   1.00
O627   O     0.43988   0.20625   0.75000   0.00000  Uiso   1.00
O628   O     0.62618   0.20490   0.82308   0.00000  Uiso   1.00
O629   O     0.62525   0.12836   0.67695   0.00000  Uiso   1.00
O630   O     0.37475   0.20491   0.82306   0.00000  Uiso   1.00
O631   O     0.56012   0.12709   0.75000   0.00000  Uiso   1.00
O632   O     0.56012   0.20625   0.75000   0.00000  Uiso   1.00
O633   O     0.43988   0.12709   0.74999   0.00000  Uiso   1.00
O634   O     0.50000   0.20626   0.68573   0.00000  Uiso   1.00
O635   O     0.50000   0.12707   0.81427   0.00000  Uiso   1.00
O636   O     0.50000   0.20626   0.81427   0.00000  Uiso   1.00
O637   O     0.50000   0.12707   0.68573   0.00000  Uiso   1.00
O638   O     0.37382   0.12848   0.67690   0.00000  Uiso   1.00
C639   C     0.75421   0.16667   0.74998   0.00000  Uiso   1.00
C640   C     0.97876   0.18637   0.78623   0.00000  Uiso   1.00
C641   C     0.97830   0.14693   0.71379   0.00000  Uiso   1.00
C642   C     0.68836   0.18638   0.78622   0.00000  Uiso   1.00
C643   C     0.81581   0.20414   0.54734   0.00000  Uiso   1.00
C644   C     0.81587   0.12921   0.95239   0.00000  Uiso   1.00
C645   C     0.85140   0.20406   0.95255   0.00000  Uiso   1.00
C646   C     0.85133   0.12926   0.54773   0.00000  Uiso   1.00
C647   C     0.81612   0.20428   0.59337   0.00000  Uiso   1.00
C648   C     0.81623   0.12905   0.90637   0.00000  Uiso   1.00
C649   C     0.85094   0.20420   0.90651   0.00000  Uiso   1.00
C650   C     0.91245   0.16666   0.75002   0.00000  Uiso   1.00
C651   C     0.85081   0.12910   0.59376   0.00000  Uiso   1.00
C652   C     0.83340   0.16669   0.61674   0.00000  Uiso   1.00
C653   C     0.83353   0.16663   0.88327   0.00000  Uiso   1.00
C654   C     0.83361   0.16669   0.52426   0.00000  Uiso   1.00
C655   C     0.83364   0.16665   0.97574   0.00000  Uiso   1.00
C656   C     0.95702   0.16665   0.75002   0.00000  Uiso   1.00
C657   C     0.70964   0.16669   0.74998   0.00000  Uiso   1.00
C658   C     0.83332   0.16668   0.66499   0.00000  Uiso   1.00
C659   C     0.83341   0.16665   0.83501   0.00000  Uiso   1.00
C660   C     0.80764   0.02479   0.72236   0.00000  Uiso   1.00
C661   C     0.85904   0.30854   0.77763   0.00000  Uiso   1.00
C662   C     0.85903   0.02474   0.77763   0.00000  Uiso   1.00
C663   C     0.80763   0.30859   0.72237   0.00000  Uiso   1.00
C664   C     0.68790   0.14697   0.71376   0.00000  Uiso   1.00
Cu665  Cu    0.83333   0.21355   0.75000   0.00000  Uiso   1.00
Cu666  Cu    0.83333   0.11978   0.75000   0.00000  Uiso   1.00
F667   F     0.78179   0.04800   0.69455   0.00000  Uiso   1.00
F668   F     0.88491   0.28534   0.80542   0.00000  Uiso   1.00
F669   F     0.88489   0.04790   0.80544   0.00000  Uiso   1.00
F670   F     0.78175   0.28543   0.69459   0.00000  Uiso   1.00
F671   F     0.79748   0.24005   0.52533   0.00000  Uiso   1.00
F672   F     0.79751   0.09331   0.97411   0.00000  Uiso   1.00
F673   F     0.86980   0.23997   0.97443   0.00000  Uiso   1.00
F674   F     0.86975   0.09334   0.52613   0.00000  Uiso   1.00
H675   H     0.80218   0.23334   0.61073   0.00000  Uiso   1.00
H676   H     0.80231   0.10000   0.88879   0.00000  Uiso   1.00
H677   H     0.86483   0.23324   0.88905   0.00000  Uiso   1.00
H678   H     0.86468   0.10005   0.61143   0.00000  Uiso   1.00
H679   H     0.73635   0.13853   0.67580   0.00000  Uiso   1.00
H680   H     0.93029   0.19496   0.82415   0.00000  Uiso   1.00
H681   H     0.92931   0.13817   0.67595   0.00000  Uiso   1.00
H682   H     0.73733   0.19499   0.82411   0.00000  Uiso   1.00
N683   N     0.83333   0.28402   0.75000   0.00000  Uiso   1.00
N684   N     0.83333   0.04931   0.75000   0.00000  Uiso   1.00
O685   O     0.77321   0.20625   0.75000   0.00000  Uiso   1.00
O686   O     0.95951   0.20490   0.82308   0.00000  Uiso   1.00
O687   O     0.95858   0.12836   0.67695   0.00000  Uiso   1.00
O688   O     0.70809   0.20491   0.82306   0.00000  Uiso   1.00
O689   O     0.89345   0.12709   0.75000   0.00000  Uiso   1.00
O690   O     0.89345   0.20625   0.75000   0.00000  Uiso   1.00
O691   O     0.77321   0.12709   0.74999   0.00000  Uiso   1.00
O692   O     0.83333   0.20626   0.68573   0.00000  Uiso   1.00
O693   O     0.83334   0.12707   0.81427   0.00000  Uiso   1.00
O694   O     0.83334   0.20626   0.81427   0.00000  Uiso   1.00
O695   O     0.83333   0.12707   0.68573   0.00000  Uiso   1.00
O696   O     0.70715   0.12848   0.67690   0.00000  Uiso   1.00
C697   C     0.08755   0.50001   0.74998   0.00000  Uiso   1.00
C698   C     0.31210   0.51971   0.78623   0.00000  Uiso   1.00
C699   C     0.31163   0.48026   0.71379   0.00000  Uiso   1.00
C700   C     0.02169   0.51972   0.78622   0.00000  Uiso   1.00
C701   C     0.14914   0.53747   0.54734   0.00000  Uiso   1.00
C702   C     0.14920   0.46254   0.95239   0.00000  Uiso   1.00
C703   C     0.18473   0.53740   0.95255   0.00000  Uiso   1.00
C704   C     0.18466   0.46259   0.54773   0.00000  Uiso   1.00
C705   C     0.14945   0.53762   0.59337   0.00000  Uiso   1.00
C706   C     0.14956   0.46238   0.90637   0.00000  Uiso   1.00
C707   C     0.18427   0.53754   0.90651   0.00000  Uiso   1.00
C708   C     0.24579   0.49999   0.75002   0.00000  Uiso   1.00
C709   C     0.18414   0.46244   0.59376   0.00000  Uiso   1.00
C710   C     0.16674   0.50002   0.61674   0.00000  Uiso   1.00
C711   C     0.16686   0.49997   0.88327   0.00000  Uiso   1.00
C712   C     0.16695   0.50003   0.52426   0.00000  Uiso   1.00
C713   C     0.16698   0.49998   0.97574   0.00000  Uiso   1.00
C714   C     0.29036   0.49998   0.75002   0.00000  Uiso   1.00
C715   C     0.04297   0.50002   0.74998   0.00000  Uiso   1.00
C716   C     0.16665   0.50001   0.66499   0.00000  Uiso   1.00
C717   C     0.16675   0.49999   0.83501   0.00000  Uiso   1.00
C718   C     0.14097   0.35813   0.72236   0.00000  Uiso   1.00
C719   C     0.19237   0.64188   0.77763   0.00000  Uiso   1.00
C720   C     0.19236   0.35808   0.77763   0.00000  Uiso   1.00
C721   C     0.14096   0.64192   0.72237   0.00000  Uiso   1.00
C722   C     0.02123   0.48031   0.71376   0.00000  Uiso   1.00
Cu723  Cu    0.16667   0.54689   0.75000   0.00000  Uiso   1.00
Cu724  Cu    0.16667   0.45311   0.75000   0.00000  Uiso   1.00
F725   F     0.11512   0.38133   0.69455   0.00000  Uiso   1.00
F726   F     0.21825   0.61867   0.80542   0.00000  Uiso   1.00
F727   F     0.21822   0.38124   0.80544   0.00000  Uiso   1.00
F728   F     0.11508   0.61876   0.69459   0.00000  Uiso   1.00
F729   F     0.13081   0.57338   0.52533   0.00000  Uiso   1.00
F730   F     0.13084   0.42665   0.97411   0.00000  Uiso   1.00
F731   F     0.20313   0.57330   0.97443   0.00000  Uiso   1.00
F732   F     0.20308   0.42668   0.52613   0.00000  Uiso   1.00
H733   H     0.13552   0.56667   0.61073   0.00000  Uiso   1.00
H734   H     0.13564   0.43333   0.88879   0.00000  Uiso   1.00
H735   H     0.19816   0.56657   0.88905   0.00000  Uiso   1.00
H736   H     0.19801   0.43339   0.61143   0.00000  Uiso   1.00
H737   H     0.06968   0.47186   0.67580   0.00000  Uiso   1.00
H738   H     0.26362   0.52829   0.82415   0.00000  Uiso   1.00
H739   H     0.26264   0.47150   0.67595   0.00000  Uiso   1.00
H740   H     0.07066   0.52832   0.82411   0.00000  Uiso   1.00
N741   N     0.16667   0.61736   0.75000   0.00000  Uiso   1.00
N742   N     0.16667   0.38264   0.75000   0.00000  Uiso   1.00
O743   O     0.10655   0.53958   0.75000   0.00000  Uiso   1.00
O744   O     0.29284   0.53824   0.82308   0.00000  Uiso   1.00
O745   O     0.29191   0.46169   0.67695   0.00000  Uiso   1.00
O746   O     0.04142   0.53825   0.82306   0.00000  Uiso   1.00
O747   O     0.22679   0.46042   0.75000   0.00000  Uiso   1.00
O748   O     0.22679   0.53958   0.75000   0.00000  Uiso   1.00
O749   O     0.10655   0.46042   0.74999   0.00000  Uiso   1.00
O750   O     0.16666   0.53959   0.68573   0.00000  Uiso   1.00
O751   O     0.16667   0.46041   0.81427   0.00000  Uiso   1.00
O752   O     0.16667   0.53959   0.81427   0.00000  Uiso   1.00
O753   O     0.16666   0.46041   0.68573   0.00000  Uiso   1.00
O754   O     0.04049   0.46182   0.67690   0.00000  Uiso   1.00
C755   C     0.42088   0.50001   0.74998   0.00000  Uiso   1.00
C756   C     0.64543   0.51971   0.78623   0.00000  Uiso   1.00
C757   C     0.64497   0.48026   0.71379   0.00000  Uiso   1.00
C758   C     0.35503   0.51972   0.78622   0.00000  Uiso   1.00
C759   C     0.48247   0.53747   0.54734   0.00000  Uiso   1.00
C760   C     0.48253   0.46254   0.95239   0.00000  Uiso   1.00
C761   C     0.51807   0.53740   0.95255   0.00000  Uiso   1.00
C762   C     0.51800   0.46259   0.54773   0.00000  Uiso   1.00
C763   C     0.48278   0.53762   0.59337   0.00000  Uiso   1.00
C764   C     0.48290   0.46238   0.90637   0.00000  Uiso   1.00
C765   C     0.51760   0.53754   0.90651   0.00000  Uiso   1.00
C766   C     0.57912   0.49999   0.75002   0.00000  Uiso   1.00
C767   C     0.51748   0.46244   0.59376   0.00000  Uiso   1.00
C768   C     0.50007   0.50002   0.61674   0.00000  Uiso   1.00
C769   C     0.50019   0.49997   0.88327   0.00000  Uiso   1.00
C770   C     0.50028   0.50003   0.52426   0.00000  Uiso   1.00
C771   C     0.50031   0.49998   0.97574   0.00000  Uiso   1.00
C772   C     0.62369   0.49998   0.75002   0.00000  Uiso   1.00
C773   C     0.37630   0.50002   0.74998   0.00000  Uiso   1.00
C774   C     0.49998   0.50001   0.66499   0.00000  Uiso   1.00
C775   C     0.50008   0.49999   0.83501   0.00000  Uiso   1.00
C776   C     0.47431   0.35813   0.72236   0.00000  Uiso   1.00
C777   C     0.52570   0.64188   0.77763   0.00000  Uiso   1.00
C778   C     0.52570   0.35808   0.77763   0.00000  Uiso   1.00
C779   C     0.47430   0.64192   0.72237   0.00000  Uiso   1.00
C780   C     0.35456   0.48031   0.71376   0.00000  Uiso   1.00
Cu781  Cu    0.50000   0.54689   0.75000   0.00000  Uiso   1.00
Cu782  Cu    0.50000   0.45311   0.75000   0.00000  Uiso   1.00
F783   F     0.44845   0.38133   0.69455   0.00000  Uiso   1.00
F784   F     0.55158   0.61867   0.80542   0.00000  Uiso   1.00
F785   F     0.55155   0.38124   0.80544   0.00000  Uiso   1.00
F786   F     0.44842   0.61876   0.69459   0.00000  Uiso   1.00
F787   F     0.46414   0.57338   0.52533   0.00000  Uiso   1.00
F788   F     0.46417   0.42665   0.97411   0.00000  Uiso   1.00
F789   F     0.53646   0.57330   0.97443   0.00000  Uiso   1.00
F790   F     0.53641   0.42668   0.52613   0.00000  Uiso   1.00
H791   H     0.46885   0.56667   0.61073   0.00000  Uiso   1.00
H792   H     0.46898   0.43333   0.88879   0.00000  Uiso   1.00
H793   H     0.53150   0.56657   0.88905   0.00000  Uiso   1.00
H794   H     0.53135   0.43339   0.61143   0.00000  Uiso   1.00
H795   H     0.40301   0.47186   0.67580   0.00000  Uiso   1.00
H796   H     0.59696   0.52829   0.82415   0.00000  Uiso   1.00
H797   H     0.59597   0.47150   0.67595   0.00000  Uiso   1.00
H798   H     0.40400   0.52832   0.82411   0.00000  Uiso   1.00
N799   N     0.50000   0.61736   0.75000   0.00000  Uiso   1.00
N800   N     0.50000   0.38264   0.75000   0.00000  Uiso   1.00
O801   O     0.43988   0.53958   0.75000   0.00000  Uiso   1.00
O802   O     0.62618   0.53824   0.82308   0.00000  Uiso   1.00
O803   O     0.62525   0.46169   0.67695   0.00000  Uiso   1.00
O804   O     0.37475   0.53825   0.82306   0.00000  Uiso   1.00
O805   O     0.56012   0.46042   0.75000   0.00000  Uiso   1.00
O806   O     0.56012   0.53958   0.75000   0.00000  Uiso   1.00
O807   O     0.43988   0.46042   0.74999   0.00000  Uiso   1.00
O808   O     0.50000   0.53959   0.68573   0.00000  Uiso   1.00
O809   O     0.50000   0.46041   0.81427   0.00000  Uiso   1.00
O810   O     0.50000   0.53959   0.81427   0.00000  Uiso   1.00
O811   O     0.50000   0.46041   0.68573   0.00000  Uiso   1.00
O812   O     0.37382   0.46182   0.67690   0.00000  Uiso   1.00
C813   C     0.75421   0.50001   0.74998   0.00000  Uiso   1.00
C814   C     0.97876   0.51971   0.78623   0.00000  Uiso   1.00
C815   C     0.97830   0.48026   0.71379   0.00000  Uiso   1.00
C816   C     0.68836   0.51972   0.78622   0.00000  Uiso   1.00
C817   C     0.81581   0.53747   0.54734   0.00000  Uiso   1.00
C818   C     0.81587   0.46254   0.95239   0.00000  Uiso   1.00
C819   C     0.85140   0.53740   0.95255   0.00000  Uiso   1.00
C820   C     0.85133   0.46259   0.54773   0.00000  Uiso   1.00
C821   C     0.81612   0.53762   0.59337   0.00000  Uiso   1.00
C822   C     0.81623   0.46238   0.90637   0.00000  Uiso   1.00
C823   C     0.85094   0.53754   0.90651   0.00000  Uiso   1.00
C824   C     0.91245   0.49999   0.75002   0.00000  Uiso   1.00
C825   C     0.85081   0.46244   0.59376   0.00000  Uiso   1.00
C826   C     0.83340   0.50002   0.61674   0.00000  Uiso   1.00
C827   C     0.83353   0.49997   0.88327   0.00000  Uiso   1.00
C828   C     0.83361   0.50003   0.52426   0.00000  Uiso   1.00
C829   C     0.83364   0.49998   0.97574   0.00000  Uiso   1.00
C830   C     0.95702   0.49998   0.75002   0.00000  Uiso   1.00
C831   C     0.70964   0.50002   0.74998   0.00000  Uiso   1.00
C832   C     0.83332   0.50001   0.66499   0.00000  Uiso   1.00
C833   C     0.83341   0.49999   0.83501   0.00000  Uiso   1.00
C834   C     0.80764   0.35813   0.72236   0.00000  Uiso   1.00
C835   C     0.85904   0.64188   0.77763   0.00000  Uiso   1.00
C836   C     0.85903   0.35808   0.77763   0.00000  Uiso   1.00
C837   C     0.80763   0.64192   0.72237   0.00000  Uiso   1.00
C838   C     0.68790   0.48031   0.71376   0.00000  Uiso   1.00
Cu839  Cu    0.83333   0.54689   0.75000   0.00000  Uiso   1.00
Cu840  Cu    0.83333   0.45311   0.75000   0.00000  Uiso   1.00
F841   F     0.78179   0.38133   0.69455   0.00000  Uiso   1.00
F842   F     0.88491   0.61867   0.80542   0.00000  Uiso   1.00
F843   F     0.88489   0.38124   0.80544   0.00000  Uiso   1.00
F844   F     0.78175   0.61876   0.69459   0.00000  Uiso   1.00
F845   F     0.79748   0.57338   0.52533   0.00000  Uiso   1.00
F846   F     0.79751   0.42665   0.97411   0.00000  Uiso   1.00
F847   F     0.86980   0.57330   0.97443   0.00000  Uiso   1.00
F848   F     0.86975   0.42668   0.52613   0.00000  Uiso   1.00
H849   H     0.80218   0.56667   0.61073   0.00000  Uiso   1.00
H850   H     0.80231   0.43333   0.88879   0.00000  Uiso   1.00
H851   H     0.86483   0.56657   0.88905   0.00000  Uiso   1.00
H852   H     0.86468   0.43339   0.61143   0.00000  Uiso   1.00
H853   H     0.73635   0.47186   0.67580   0.00000  Uiso   1.00
H854   H     0.93029   0.52829   0.82415   0.00000  Uiso   1.00
H855   H     0.92931   0.47150   0.67595   0.00000  Uiso   1.00
H856   H     0.73733   0.52832   0.82411   0.00000  Uiso   1.00
N857   N     0.83333   0.61736   0.75000   0.00000  Uiso   1.00
N858   N     0.83333   0.38264   0.75000   0.00000  Uiso   1.00
O859   O     0.77321   0.53958   0.75000   0.00000  Uiso   1.00
O860   O     0.95951   0.53824   0.82308   0.00000  Uiso   1.00
O861   O     0.95858   0.46169   0.67695   0.00000  Uiso   1.00
O862   O     0.70809   0.53825   0.82306   0.00000  Uiso   1.00
O863   O     0.89345   0.46042   0.75000   0.00000  Uiso   1.00
O864   O     0.89345   0.53958   0.75000   0.00000  Uiso   1.00
O865   O     0.77321   0.46042   0.74999   0.00000  Uiso   1.00
O866   O     0.83333   0.53959   0.68573   0.00000  Uiso   1.00
O867   O     0.83334   0.46041   0.81427   0.00000  Uiso   1.00
O868   O     0.83334   0.53959   0.81427   0.00000  Uiso   1.00
O869   O     0.83333   0.46041   0.68573   0.00000  Uiso   1.00
O870   O     0.70715   0.46182   0.67690   0.00000  Uiso   1.00
C871   C     0.08755   0.83334   0.74998   0.00000  Uiso   1.00
C872   C     0.31210   0.85304   0.78623   0.00000  Uiso   1.00
C873   C     0.31163   0.81360   0.71379   0.00000  Uiso   1.00
C874   C     0.02169   0.85305   0.78622   0.00000  Uiso   1.00
C875   C     0.14914   0.87080   0.54734   0.00000  Uiso   1.00
C876   C     0.14920   0.79588   0.95239   0.00000  Uiso   1.00
C877   C     0.18473   0.87073   0.95255   0.00000  Uiso   1.00
C878   C     0.18466   0.79592   0.54773   0.00000  Uiso   1.00
C879   C     0.14945   0.87095   0.59337   0.00000  Uiso   1.00
C880   C     0.14956   0.79571   0.90637   0.00000  Uiso   1.00
C881   C     0.18427   0.87087   0.90651   0.00000  Uiso   1.00
C882   C     0.24579   0.83333   0.75002   0.00000  Uiso   1.00
C883   C     0.18414   0.79577   0.59376   0.00000  Uiso   1.00
C884   C     0.16674   0.83335   0.61674   0.00000  Uiso   1.00
C885   C     0.16686   0.83330   0.88327   0.00000  Uiso   1.00
C886   C     0.16695   0.83336   0.52426   0.00000  Uiso   1.00
C887   C     0.16698   0.83332   0.97574   0.00000  Uiso   1.00
C888   C     0.29036   0.83331   0.75002   0.00000  Uiso   1.00
C889   C     0.04297   0.83335   0.74998   0.00000  Uiso   1.00
C890   C     0.16665   0.83334   0.66499   0.00000  Uiso   1.00
C891   C     0.16675   0.83332   0.83501   0.00000  Uiso   1.00
C892   C     0.14097   0.69146   0.72236   0.00000  Uiso   1.00
C893   C     0.19237   0.97521   0.77763   0.00000  Uiso   1.00
C894   C     0.19236   0.69141   0.77763   0.00000  Uiso   1.00
C895   C     0.14096   0.97526   0.72237   0.00000  Uiso   1.00
C896   C     0.02123   0.81364   0.71376   0.00000  Uiso   1.00
Cu897  Cu    0.16667   0.88022   0.75000   0.00000  Uiso   1.00
Cu898  Cu    0.16667   0.78645   0.75000   0.00000  Uiso   1.00
F899   F     0.11512   0.71466   0.69455   0.00000  Uiso   1.00
F900   F     0.21825   0.95201   0.80542   0.00000  Uiso   1.00
F901   F     0.21822   0.71457   0.80544   0.00000  Uiso   1.00
F902   F     0.11508   0.95210   0.69459   0.00000  Uiso   1.00
F903   F     0.13081   0.90671   0.52533   0.00000  Uiso   1.00
F904   F     0.13084   0.75998   0.97411   0.00000  Uiso   1.00
F905   F     0.20313   0.90664   0.97443   0.00000  Uiso   1.00
F906   F     0.20308   0.76001   0.52613   0.00000  Uiso   1.00
H907   H     0.13552   0.90000   0.61073   0.00000  Uiso   1.00
H908   H     0.13564   0.76666   0.88879   0.00000  Uiso   1.00
H909   H     0.19816   0.89990   0.88905   0.00000  Uiso   1.00
H910   H     0.19801   0.76672   0.61143   0.00000  Uiso   1.00
H911   H     0.06968   0.80520   0.67580   0.00000  Uiso   1.00
H912   H     0.26362   0.86163   0.82415   0.00000  Uiso   1.00
H913   H     0.26264   0.80483   0.67595   0.00000  Uiso   1.00
H914   H     0.07066   0.86165   0.82411   0.00000  Uiso   1.00
N915   N     0.16667   0.95069   0.75000   0.00000  Uiso   1.00
N916   N     0.16667   0.71598   0.75000   0.00000  Uiso   1.00
O917   O     0.10655   0.87291   0.75000   0.00000  Uiso   1.00
O918   O     0.29284   0.87157   0.82308   0.00000  Uiso   1.00
O919   O     0.29191   0.79502   0.67695   0.00000  Uiso   1.00
O920   O     0.04142   0.87158   0.82306   0.00000  Uiso   1.00
O921   O     0.22679   0.79375   0.75000   0.00000  Uiso   1.00
O922   O     0.22679   0.87291   0.75000   0.00000  Uiso   1.00
O923   O     0.10655   0.79375   0.74999   0.00000  Uiso   1.00
O924   O     0.16666   0.87293   0.68573   0.00000  Uiso   1.00
O925   O     0.16667   0.79374   0.81427   0.00000  Uiso   1.00
O926   O     0.16667   0.87293   0.81427   0.00000  Uiso   1.00
O927   O     0.16666   0.79374   0.68573   0.00000  Uiso   1.00
O928   O     0.04049   0.79515   0.67690   0.00000  Uiso   1.00
C929   C     0.42088   0.83334   0.74998   0.00000  Uiso   1.00
C930   C     0.64543   0.85304   0.78623   0.00000  Uiso   1.00
C931   C     0.64497   0.81360   0.71379   0.00000  Uiso   1.00
C932   C     0.35503   0.85305   0.78622   0.00000  Uiso   1.00
C933   C     0.48247   0.87080   0.54734   0.00000  Uiso   1.00
C934   C     0.48253   0.79588   0.95239   0.00000  Uiso   1.00
C935   C     0.51807   0.87073   0.95255   0.00000  Uiso   1.00
C936   C     0.51800   0.79592   0.54773   0.00000  Uiso   1.00
C937   C     0.48278   0.87095   0.59337   0.00000  Uiso   1.00
C938   C     0.48290   0.79571   0.90637   0.00000  Uiso   1.00
C939   C     0.51760   0.87087   0.90651   0.00000  Uiso   1.00
C940   C     0.57912   0.83333   0.75002   0.00000  Uiso   1.00
C941   C     0.51748   0.79577   0.59376   0.00000  Uiso   1.00
C942   C     0.50007   0.83335   0.61674   0.00000  Uiso   1.00
C943   C     0.50019   0.83330   0.88327   0.00000  Uiso   1.00
C944   C     0.50028   0.83336   0.52426   0.00000  Uiso   1.00
C945   C     0.50031   0.83332   0.97574   0.00000  Uiso   1.00
C946   C     0.62369   0.83331   0.75002   0.00000  Uiso   1.00
C947   C     0.37630   0.83335   0.74998   0.00000  Uiso   1.00
C948   C     0.49998   0.83334   0.66499   0.00000  Uiso   1.00
C949   C     0.50008   0.83332   0.83501   0.00000  Uiso   1.00
C950   C     0.47431   0.69146   0.72236   0.00000  Uiso   1.00
C951   C     0.52570   0.97521   0.77763   0.00000  Uiso   1.00
C952   C     0.52570   0.69141   0.77763   0.00000  Uiso   1.00
C953   C     0.47430   0.97526   0.72237   0.00000  Uiso   1.00
C954   C     0.35456   0.81364   0.71376   0.00000  Uiso   1.00
Cu955  Cu    0.50000   0.88022   0.75000   0.00000  Uiso   1.00
Cu956  Cu    0.50000   0.78645   0.75000   0.00000  Uiso   1.00
F957   F     0.44845   0.71466   0.69455   0.00000  Uiso   1.00
F958   F     0.55158   0.95201   0.80542   0.00000  Uiso   1.00
F959   F     0.55155   0.71457   0.80544   0.00000  Uiso   1.00
F960   F     0.44842   0.95210   0.69459   0.00000  Uiso   1.00
F961   F     0.46414   0.90671   0.52533   0.00000  Uiso   1.00
F962   F     0.46417   0.75998   0.97411   0.00000  Uiso   1.00
F963   F     0.53646   0.90664   0.97443   0.00000  Uiso   1.00
F964   F     0.53641   0.76001   0.52613   0.00000  Uiso   1.00
H965   H     0.46885   0.90000   0.61073   0.00000  Uiso   1.00
H966   H     0.46898   0.76666   0.88879   0.00000  Uiso   1.00
H967   H     0.53150   0.89990   0.88905   0.00000  Uiso   1.00
H968   H     0.53135   0.76672   0.61143   0.00000  Uiso   1.00
H969   H     0.40301   0.80520   0.67580   0.00000  Uiso   1.00
H970   H     0.59696   0.86163   0.82415   0.00000  Uiso   1.00
H971   H     0.59597   0.80483   0.67595   0.00000  Uiso   1.00
H972   H     0.40400   0.86165   0.82411   0.00000  Uiso   1.00
N973   N     0.50000   0.95069   0.75000   0.00000  Uiso   1.00
N974   N     0.50000   0.71598   0.75000   0.00000  Uiso   1.00
O975   O     0.43988   0.87291   0.75000   0.00000  Uiso   1.00
O976   O     0.62618   0.87157   0.82308   0.00000  Uiso   1.00
O977   O     0.62525   0.79502   0.67695   0.00000  Uiso   1.00
O978   O     0.37475   0.87158   0.82306   0.00000  Uiso   1.00
O979   O     0.56012   0.79375   0.75000   0.00000  Uiso   1.00
O980   O     0.56012   0.87291   0.75000   0.00000  Uiso   1.00
O981   O     0.43988   0.79375   0.74999   0.00000  Uiso   1.00
O982   O     0.50000   0.87293   0.68573   0.00000  Uiso   1.00
O983   O     0.50000   0.79374   0.81427   0.00000  Uiso   1.00
O984   O     0.50000   0.87293   0.81427   0.00000  Uiso   1.00
O985   O     0.50000   0.79374   0.68573   0.00000  Uiso   1.00
O986   O     0.37382   0.79515   0.67690   0.00000  Uiso   1.00
C987   C     0.75421   0.83334   0.74998   0.00000  Uiso   1.00
C988   C     0.97876   0.85304   0.78623   0.00000  Uiso   1.00
C989   C     0.97830   0.81360   0.71379   0.00000  Uiso   1.00
C990   C     0.68836   0.85305   0.78622   0.00000  Uiso   1.00
C991   C     0.81581   0.87080   0.54734   0.00000  Uiso   1.00
C992   C     0.81587   0.79588   0.95239   0.00000  Uiso   1.00
C993   C     0.85140   0.87073   0.95255   0.00000  Uiso   1.00
C994   C     0.85133   0.79592   0.54773   0.00000  Uiso   1.00
C995   C     0.81612   0.87095   0.59337   0.00000  Uiso   1.00
C996   C     0.81623   0.79571   0.90637   0.00000  Uiso   1.00
C997   C     0.85094   0.87087   0.90651   0.00000  Uiso   1.00
C998   C     0.91245   0.83333   0.75002   0.00000  Uiso   1.00
C999   C     0.85081   0.79577   0.59376   0.00000  Uiso   1.00
C1000  C     0.83340   0.83335   0.61674   0.00000  Uiso   1.00
C1001  C     0.83353   0.83330   0.88327   0.00000  Uiso   1.00
C1002  C     0.83361   0.83336   0.52426   0.00000  Uiso   1.00
C1003  C     0.83364   0.83332   0.97574   0.00000  Uiso   1.00
C1004  C     0.95702   0.83331   0.75002   0.00000  Uiso   1.00
C1005  C     0.70964   0.83335   0.74998   0.00000  Uiso   1.00
C1006  C     0.83332   0.83334   0.66499   0.00000  Uiso   1.00
C1007  C     0.83341   0.83332   0.83501   0.00000  Uiso   1.00
C1008  C     0.80764   0.69146   0.72236   0.00000  Uiso   1.00
C1009  C     0.85904   0.97521   0.77763   0.00000  Uiso   1.00
C1010  C     0.85903   0.69141   0.77763   0.00000  Uiso   1.00
C1011  C     0.80763   0.97526   0.72237   0.00000  Uiso   1.00
C1012  C     0.68790   0.81364   0.71376   0.00000  Uiso   1.00
Cu1013 Cu    0.83333   0.88022   0.75000   0.00000  Uiso   1.00
Cu1014 Cu    0.83333   0.78645   0.75000   0.00000  Uiso   1.00
F1015  F     0.78179   0.71466   0.69455   0.00000  Uiso   1.00
F1016  F     0.88491   0.95201   0.80542   0.00000  Uiso   1.00
F1017  F     0.88489   0.71457   0.80544   0.00000  Uiso   1.00
F1018  F     0.78175   0.95210   0.69459   0.00000  Uiso   1.00
F1019  F     0.79748   0.90671   0.52533   0.00000  Uiso   1.00
F1020  F     0.79751   0.75998   0.97411   0.00000  Uiso   1.00
F1021  F     0.86980   0.90664   0.97443   0.00000  Uiso   1.00
F1022  F     0.86975   0.76001   0.52613   0.00000  Uiso   1.00
H1023  H     0.80218   0.90000   0.61073   0.00000  Uiso   1.00
H1024  H     0.80231   0.76666   0.88879   0.00000  Uiso   1.00
H1025  H     0.86483   0.89990   0.88905   0.00000  Uiso   1.00
H1026  H     0.86468   0.76672   0.61143   0.00000  Uiso   1.00
H1027  H     0.73635   0.80520   0.67580   0.00000  Uiso   1.00
H1028  H     0.93029   0.86163   0.82415   0.00000  Uiso   1.00
H1029  H     0.92931   0.80483   0.67595   0.00000  Uiso   1.00
H1030  H     0.73733   0.86165   0.82411   0.00000  Uiso   1.00
N1031  N     0.83333   0.95069   0.75000   0.00000  Uiso   1.00
N1032  N     0.83333   0.71598   0.75000   0.00000  Uiso   1.00
O1033  O     0.77321   0.87291   0.75000   0.00000  Uiso   1.00
O1034  O     0.95951   0.87157   0.82308   0.00000  Uiso   1.00
O1035  O     0.95858   0.79502   0.67695   0.00000  Uiso   1.00
O1036  O     0.70809   0.87158   0.82306   0.00000  Uiso   1.00
O1037  O     0.89345   0.79375   0.75000   0.00000  Uiso   1.00
O1038  O     0.89345   0.87291   0.75000   0.00000  Uiso   1.00
O1039  O     0.77321   0.79375   0.74999   0.00000  Uiso   1.00
O1040  O     0.83333   0.87293   0.68573   0.00000  Uiso   1.00
O1041  O     0.83334   0.79374   0.81427   0.00000  Uiso   1.00
O1042  O     0.83334   0.87293   0.81427   0.00000  Uiso   1.00
O1043  O     0.83333   0.79374   0.68573   0.00000  Uiso   1.00
O1044  O     0.70715   0.79515   0.67690   0.00000  Uiso   1.00
loop_
_geom_bond_atom_site_label_1
_geom_bond_atom_site_label_2
_geom_bond_distance
_geom_bond_site_symmetry_2
_ccdc_geom_bond_type
C1     C19     1.442   .     S
C1     O53     1.289   .     A
C1     O47     1.289   .     A
C2     C18     1.415   .     A
C2     O48     1.385   .     S
C2     C62     1.389   .     S
C3     O49     1.385   .     S
C3     C18     1.415   .     A
C3     C84     1.389   .     S
C4     C19     1.415   .     A
C4     O50     1.385   .     S
C4     C118    1.389   1_455 S
C5     C9      1.391   .     A
C5     F33     1.358   .     S
C5     C16     1.405   .     A
C6     C10     1.391   .     A
C6     C17     1.405   .     A
C6     F34     1.358   .     S
C7     C11     1.391   .     A
C7     F35     1.358   .     S
C7     C17     1.405   .     A
C8     C13     1.391   .     A
C8     C16     1.405   .     A
C8     F36     1.358   .     S
C9     C14     1.401   .     A
C9     H37     1.083   .     S
C10    H38     1.083   .     S
C10    C15     1.401   .     A
C11    H39     1.083   .     S
C11    C15     1.401   .     A
C12    O52     1.289   .     A
C12    O51     1.289   .     A
C12    C18     1.442   .     S
C13    C14     1.401   .     A
C13    H40     1.083   .     S
C14    C20     1.458   .     S
C15    C21     1.458   .     S
C16    C539    1.466   1_554 S
C17    C538    1.466   .     S
C19    C26     1.415   .     A
C20    O54     1.295   .     A
C20    O57     1.295   .     A
C21    O56     1.295   .     A
C21    O55     1.295   .     A
C22    F29     1.355   .     S
C22    N46     1.368   .     A
C22    C373    1.418   1_545 S
C23    N45     1.368   .     A
C23    F30     1.355   .     S
C23    C198    1.418   .     S
C24    N46     1.368   .     A
C24    F31     1.355   .     S
C24    C371    1.418   1_545 S
C25    N45     1.368   .     A
C25    F32     1.355   .     S
C25    C196    1.418   .     S
C26    O58     1.385   .     S
C26    C119    1.389   1_455 S
Cu27   N45     2.017   .     S
Cu27   O54     1.953   .     S
Cu27   O47     1.957   .     S
Cu27   O52     1.957   .     S
Cu27   Cu28    2.684   .     S
Cu27   O56     1.953   .     S
Cu28   O53     1.957   .     S
Cu28   N46     2.017   .     S
Cu28   O55     1.953   .     S
Cu28   O51     1.957   .     S
Cu28   O57     1.953   .     S
H41    O58     0.988   .     S
H42    O48     0.988   .     S
H43    O49     0.988   .     S
H44    O50     0.988   .     S
C59    C77     1.442   .     S
C59    O111    1.289   .     A
C59    O105    1.289   .     A
C60    C76     1.415   .     A
C60    O106    1.385   .     S
C60    C120    1.389   .     S
C61    O107    1.385   .     S
C61    C76     1.415   .     A
C61    C142    1.389   .     S
C62    C77     1.415   .     A
C62    O108    1.385   .     S
C63    C67     1.391   .     A
C63    F91     1.358   .     S
C63    C74     1.405   .     A
C64    C68     1.391   .     A
C64    C75     1.405   .     A
C64    F92     1.358   .     S
C65    C69     1.391   .     A
C65    F93     1.358   .     S
C65    C75     1.405   .     A
C66    C71     1.391   .     A
C66    C74     1.405   .     A
C66    F94     1.358   .     S
C67    C72     1.401   .     A
C67    H95     1.083   .     S
C68    H96     1.083   .     S
C68    C73     1.401   .     A
C69    H97     1.083   .     S
C69    C73     1.401   .     A
C70    O110    1.289   .     A
C70    O109    1.289   .     A
C70    C76     1.442   .     S
C71    C72     1.401   .     A
C71    H98     1.083   .     S
C72    C78     1.458   .     S
C73    C79     1.458   .     S
C74    C597    1.466   1_554 S
C75    C596    1.466   .     S
C77    C84     1.415   .     A
C78    O112    1.295   .     A
C78    O115    1.295   .     A
C79    O114    1.295   .     A
C79    O113    1.295   .     A
C80    F87     1.355   .     S
C80    N104    1.368   .     A
C80    C431    1.418   1_545 S
C81    N103    1.368   .     A
C81    F88     1.355   .     S
C81    C256    1.418   .     S
C82    N104    1.368   .     A
C82    F89     1.355   .     S
C82    C429    1.418   1_545 S
C83    N103    1.368   .     A
C83    F90     1.355   .     S
C83    C254    1.418   .     S
C84    O116    1.385   .     S
Cu85   N103    2.017   .     S
Cu85   O112    1.953   .     S
Cu85   O105    1.957   .     S
Cu85   O110    1.957   .     S
Cu85   Cu86    2.684   .     S
Cu85   O114    1.953   .     S
Cu86   O111    1.957   .     S
Cu86   N104    2.017   .     S
Cu86   O113    1.953   .     S
Cu86   O109    1.957   .     S
Cu86   O115    1.953   .     S
H99    O116    0.988   .     S
H100   O106    0.988   .     S
H101   O107    0.988   .     S
H102   O108    0.988   .     S
C117   C135    1.442   .     S
C117   O169    1.289   .     A
C117   O163    1.289   .     A
C118   C134    1.415   .     A
C118   O164    1.385   .     S
C118   C4      1.389   1_655 S
C119   O165    1.385   .     S
C119   C134    1.415   .     A
C119   C26     1.389   1_655 S
C120   C135    1.415   .     A
C120   O166    1.385   .     S
C121   C125    1.391   .     A
C121   F149    1.358   .     S
C121   C132    1.405   .     A
C122   C126    1.391   .     A
C122   C133    1.405   .     A
C122   F150    1.358   .     S
C123   C127    1.391   .     A
C123   F151    1.358   .     S
C123   C133    1.405   .     A
C124   C129    1.391   .     A
C124   C132    1.405   .     A
C124   F152    1.358   .     S
C125   C130    1.401   .     A
C125   H153    1.083   .     S
C126   H154    1.083   .     S
C126   C131    1.401   .     A
C127   H155    1.083   .     S
C127   C131    1.401   .     A
C128   O168    1.289   .     A
C128   O167    1.289   .     A
C128   C134    1.442   .     S
C129   C130    1.401   .     A
C129   H156    1.083   .     S
C130   C136    1.458   .     S
C131   C137    1.458   .     S
C132   C655    1.466   1_554 S
C133   C654    1.466   .     S
C135   C142    1.415   .     A
C136   O170    1.295   .     A
C136   O173    1.295   .     A
C137   O172    1.295   .     A
C137   O171    1.295   .     A
C138   F145    1.355   .     S
C138   N162    1.368   .     A
C138   C489    1.418   1_545 S
C139   N161    1.368   .     A
C139   F146    1.355   .     S
C139   C314    1.418   .     S
C140   N162    1.368   .     A
C140   F147    1.355   .     S
C140   C487    1.418   1_545 S
C141   N161    1.368   .     A
C141   F148    1.355   .     S
C141   C312    1.418   .     S
C142   O174    1.385   .     S
Cu143  N161    2.017   .     S
Cu143  O170    1.953   .     S
Cu143  O163    1.957   .     S
Cu143  O168    1.957   .     S
Cu143  Cu144   2.684   .     S
Cu143  O172    1.953   .     S
Cu144  O169    1.957   .     S
Cu144  N162    2.017   .     S
Cu144  O171    1.953   .     S
Cu144  O167    1.957   .     S
Cu144  O173    1.953   .     S
H157   O174    0.988   .     S
H158   O164    0.988   .     S
H159   O165    0.988   .     S
H160   O166    0.988   .     S
C175   C193    1.442   .     S
C175   O227    1.289   .     A
C175   O221    1.289   .     A
C176   C192    1.415   .     A
C176   O222    1.385   .     S
C176   C236    1.389   .     S
C177   O223    1.385   .     S
C177   C192    1.415   .     A
C177   C258    1.389   .     S
C178   C193    1.415   .     A
C178   O224    1.385   .     S
C178   C292    1.389   1_455 S
C179   C183    1.391   .     A
C179   F207    1.358   .     S
C179   C190    1.405   .     A
C180   C184    1.391   .     A
C180   C191    1.405   .     A
C180   F208    1.358   .     S
C181   C185    1.391   .     A
C181   F209    1.358   .     S
C181   C191    1.405   .     A
C182   C187    1.391   .     A
C182   C190    1.405   .     A
C182   F210    1.358   .     S
C183   C188    1.401   .     A
C183   H211    1.083   .     S
C184   H212    1.083   .     S
C184   C189    1.401   .     A
C185   H213    1.083   .     S
C185   C189    1.401   .     A
C186   O226    1.289   .     A
C186   O225    1.289   .     A
C186   C192    1.442   .     S
C187   C188    1.401   .     A
C187   H214    1.083   .     S
C188   C194    1.458   .     S
C189   C195    1.458   .     S
C190   C713    1.466   1_554 S
C191   C712    1.466   .     S
C193   C200    1.415   .     A
C194   O228    1.295   .     A
C194   O231    1.295   .     A
C195   O230    1.295   .     A
C195   O229    1.295   .     A
C196   F203    1.355   .     S
C196   N220    1.368   .     A
C197   N219    1.368   .     A
C197   F204    1.355   .     S
C197   C372    1.418   .     S
C198   N220    1.368   .     A
C198   F205    1.355   .     S
C199   N219    1.368   .     A
C199   F206    1.355   .     S
C199   C370    1.418   .     S
C200   O232    1.385   .     S
C200   C293    1.389   1_455 S
Cu201  N219    2.017   .     S
Cu201  O228    1.953   .     S
Cu201  O221    1.957   .     S
Cu201  O226    1.957   .     S
Cu201  Cu202   2.684   .     S
Cu201  O230    1.953   .     S
Cu202  O227    1.957   .     S
Cu202  N220    2.017   .     S
Cu202  O229    1.953   .     S
Cu202  O225    1.957   .     S
Cu202  O231    1.953   .     S
H215   O232    0.988   .     S
H216   O222    0.988   .     S
H217   O223    0.988   .     S
H218   O224    0.988   .     S
C233   C251    1.442   .     S
C233   O285    1.289   .     A
C233   O279    1.289   .     A
C234   C250    1.415   .     A
C234   O280    1.385   .     S
C234   C294    1.389   .     S
C235   O281    1.385   .     S
C235   C250    1.415   .     A
C235   C316    1.389   .     S
C236   C251    1.415   .     A
C236   O282    1.385   .     S
C237   C241    1.391   .     A
C237   F265    1.358   .     S
C237   C248    1.405   .     A
C238   C242    1.391   .     A
C238   C249    1.405   .     A
C238   F266    1.358   .     S
C239   C243    1.391   .     A
C239   F267    1.358   .     S
C239   C249    1.405   .     A
C240   C245    1.391   .     A
C240   C248    1.405   .     A
C240   F268    1.358   .     S
C241   C246    1.401   .     A
C241   H269    1.083   .     S
C242   H270    1.083   .     S
C242   C247    1.401   .     A
C243   H271    1.083   .     S
C243   C247    1.401   .     A
C244   O284    1.289   .     A
C244   O283    1.289   .     A
C244   C250    1.442   .     S
C245   C246    1.401   .     A
C245   H272    1.083   .     S
C246   C252    1.458   .     S
C247   C253    1.458   .     S
C248   C771    1.466   1_554 S
C249   C770    1.466   .     S
C251   C258    1.415   .     A
C252   O286    1.295   .     A
C252   O289    1.295   .     A
C253   O288    1.295   .     A
C253   O287    1.295   .     A
C254   F261    1.355   .     S
C254   N278    1.368   .     A
C255   N277    1.368   .     A
C255   F262    1.355   .     S
C255   C430    1.418   .     S
C256   N278    1.368   .     A
C256   F263    1.355   .     S
C257   N277    1.368   .     A
C257   F264    1.355   .     S
C257   C428    1.418   .     S
C258   O290    1.385   .     S
Cu259  N277    2.017   .     S
Cu259  O286    1.953   .     S
Cu259  O279    1.957   .     S
Cu259  O284    1.957   .     S
Cu259  Cu260   2.684   .     S
Cu259  O288    1.953   .     S
Cu260  O285    1.957   .     S
Cu260  N278    2.017   .     S
Cu260  O287    1.953   .     S
Cu260  O283    1.957   .     S
Cu260  O289    1.953   .     S
H273   O290    0.988   .     S
H274   O280    0.988   .     S
H275   O281    0.988   .     S
H276   O282    0.988   .     S
C291   C309    1.442   .     S
C291   O343    1.289   .     A
C291   O337    1.289   .     A
C292   C308    1.415   .     A
C292   O338    1.385   .     S
C292   C178    1.389   1_655 S
C293   O339    1.385   .     S
C293   C308    1.415   .     A
C293   C200    1.389   1_655 S
C294   C309    1.415   .     A
C294   O340    1.385   .     S
C295   C299    1.391   .     A
C295   F323    1.358   .     S
C295   C306    1.405   .     A
C296   C300    1.391   .     A
C296   C307    1.405   .     A
C296   F324    1.358   .     S
C297   C301    1.391   .     A
C297   F325    1.358   .     S
C297   C307    1.405   .     A
C298   C303    1.391   .     A
C298   C306    1.405   .     A
C298   F326    1.358   .     S
C299   C304    1.401   .     A
C299   H327    1.083   .     S
C300   H328    1.083   .     S
C300   C305    1.401   .     A
C301   H329    1.083   .     S
C301   C305    1.401   .     A
C302   O342    1.289   .     A
C302   O341    1.289   .     A
C302   C308    1.442   .     S
C303   C304    1.401   .     A
C303   H330    1.083   .     S
C304   C310    1.458   .     S
C305   C311    1.458   .     S
C306   C829    1.466   1_554 S
C307   C828    1.466   .     S
C309   C316    1.415   .     A
C310   O344    1.295   .     A
C310   O347    1.295   .     A
C311   O346    1.295   .     A
C311   O345    1.295   .     A
C312   F319    1.355   .     S
C312   N336    1.368   .     A
C313   N335    1.368   .     A
C313   F320    1.355   .     S
C313   C488    1.418   .     S
C314   N336    1.368   .     A
C314   F321    1.355   .     S
C315   N335    1.368   .     A
C315   F322    1.355   .     S
C315   C486    1.418   .     S
C316   O348    1.385   .     S
Cu317  N335    2.017   .     S
Cu317  O344    1.953   .     S
Cu317  O337    1.957   .     S
Cu317  O342    1.957   .     S
Cu317  Cu318   2.684   .     S
Cu317  O346    1.953   .     S
Cu318  O343    1.957   .     S
Cu318  N336    2.017   .     S
Cu318  O345    1.953   .     S
Cu318  O341    1.957   .     S
Cu318  O347    1.953   .     S
H331   O348    0.988   .     S
H332   O338    0.988   .     S
H333   O339    0.988   .     S
H334   O340    0.988   .     S
C349   C367    1.442   .     S
C349   O401    1.289   .     A
C349   O395    1.289   .     A
C350   C366    1.415   .     A
C350   O396    1.385   .     S
C350   C410    1.389   .     S
C351   O397    1.385   .     S
C351   C366    1.415   .     A
C351   C432    1.389   .     S
C352   C367    1.415   .     A
C352   O398    1.385   .     S
C352   C466    1.389   1_455 S
C353   C357    1.391   .     A
C353   F381    1.358   .     S
C353   C364    1.405   .     A
C354   C358    1.391   .     A
C354   C365    1.405   .     A
C354   F382    1.358   .     S
C355   C359    1.391   .     A
C355   F383    1.358   .     S
C355   C365    1.405   .     A
C356   C361    1.391   .     A
C356   C364    1.405   .     A
C356   F384    1.358   .     S
C357   C362    1.401   .     A
C357   H385    1.083   .     S
C358   H386    1.083   .     S
C358   C363    1.401   .     A
C359   H387    1.083   .     S
C359   C363    1.401   .     A
C360   O400    1.289   .     A
C360   O399    1.289   .     A
C360   C366    1.442   .     S
C361   C362    1.401   .     A
C361   H388    1.083   .     S
C362   C368    1.458   .     S
C363   C369    1.458   .     S
C364   C887    1.466   1_554 S
C365   C886    1.466   .     S
C367   C374    1.415   .     A
C368   O402    1.295   .     A
C368   O405    1.295   .     A
C369   O404    1.295   .     A
C369   O403    1.295   .     A
C370   F377    1.355   .     S
C370   N394    1.368   .     A
C371   N393    1.368   .     A
C371   F378    1.355   .     S
C371   C24     1.418   1_565 S
C372   N394    1.368   .     A
C372   F379    1.355   .     S
C373   N393    1.368   .     A
C373   F380    1.355   .     S
C373   C22     1.418   1_565 S
C374   O406    1.385   .     S
C374   C467    1.389   1_455 S
Cu375  N393    2.017   .     S
Cu375  O402    1.953   .     S
Cu375  O395    1.957   .     S
Cu375  O400    1.957   .     S
Cu375  Cu376   2.684   .     S
Cu375  O404    1.953   .     S
Cu376  O401    1.957   .     S
Cu376  N394    2.017   .     S
Cu376  O403    1.953   .     S
Cu376  O399    1.957   .     S
Cu376  O405    1.953   .     S
H389   O406    0.988   .     S
H390   O396    0.988   .     S
H391   O397    0.988   .     S
H392   O398    0.988   .     S
C407   C425    1.442   .     S
C407   O459    1.289   .     A
C407   O453    1.289   .     A
C408   C424    1.415   .     A
C408   O454    1.385   .     S
C408   C468    1.389   .     S
C409   O455    1.385   .     S
C409   C424    1.415   .     A
C409   C490    1.389   .     S
C410   C425    1.415   .     A
C410   O456    1.385   .     S
C411   C415    1.391   .     A
C411   F439    1.358   .     S
C411   C422    1.405   .     A
C412   C416    1.391   .     A
C412   C423    1.405   .     A
C412   F440    1.358   .     S
C413   C417    1.391   .     A
C413   F441    1.358   .     S
C413   C423    1.405   .     A
C414   C419    1.391   .     A
C414   C422    1.405   .     A
C414   F442    1.358   .     S
C415   C420    1.401   .     A
C415   H443    1.083   .     S
C416   H444    1.083   .     S
C416   C421    1.401   .     A
C417   H445    1.083   .     S
C417   C421    1.401   .     A
C418   O458    1.289   .     A
C418   O457    1.289   .     A
C418   C424    1.442   .     S
C419   C420    1.401   .     A
C419   H446    1.083   .     S
C420   C426    1.458   .     S
C421   C427    1.458   .     S
C422   C945    1.466   1_554 S
C423   C944    1.466   .     S
C425   C432    1.415   .     A
C426   O460    1.295   .     A
C426   O463    1.295   .     A
C427   O462    1.295   .     A
C427   O461    1.295   .     A
C428   F435    1.355   .     S
C428   N452    1.368   .     A
C429   N451    1.368   .     A
C429   F436    1.355   .     S
C429   C82     1.418   1_565 S
C430   N452    1.368   .     A
C430   F437    1.355   .     S
C431   N451    1.368   .     A
C431   F438    1.355   .     S
C431   C80     1.418   1_565 S
C432   O464    1.385   .     S
Cu433  N451    2.017   .     S
Cu433  O460    1.953   .     S
Cu433  O453    1.957   .     S
Cu433  O458    1.957   .     S
Cu433  Cu434   2.684   .     S
Cu433  O462    1.953   .     S
Cu434  O459    1.957   .     S
Cu434  N452    2.017   .     S
Cu434  O461    1.953   .     S
Cu434  O457    1.957   .     S
Cu434  O463    1.953   .     S
H447   O464    0.988   .     S
H448   O454    0.988   .     S
H449   O455    0.988   .     S
H450   O456    0.988   .     S
C465   C483    1.442   .     S
C465   O517    1.289   .     A
C465   O511    1.289   .     A
C466   C482    1.415   .     A
C466   O512    1.385   .     S
C466   C352    1.389   1_655 S
C467   O513    1.385   .     S
C467   C482    1.415   .     A
C467   C374    1.389   1_655 S
C468   C483    1.415   .     A
C468   O514    1.385   .     S
C469   C473    1.391   .     A
C469   F497    1.358   .     S
C469   C480    1.405   .     A
C470   C474    1.391   .     A
C470   C481    1.405   .     A
C470   F498    1.358   .     S
C471   C475    1.391   .     A
C471   F499    1.358   .     S
C471   C481    1.405   .     A
C472   C477    1.391   .     A
C472   C480    1.405   .     A
C472   F500    1.358   .     S
C473   C478    1.401   .     A
C473   H501    1.083   .     S
C474   H502    1.083   .     S
C474   C479    1.401   .     A
C475   H503    1.083   .     S
C475   C479    1.401   .     A
C476   O516    1.289   .     A
C476   O515    1.289   .     A
C476   C482    1.442   .     S
C477   C478    1.401   .     A
C477   H504    1.083   .     S
C478   C484    1.458   .     S
C479   C485    1.458   .     S
C480   C1003   1.466   1_554 S
C481   C1002   1.466   .     S
C483   C490    1.415   .     A
C484   O518    1.295   .     A
C484   O521    1.295   .     A
C485   O520    1.295   .     A
C485   O519    1.295   .     A
C486   F493    1.355   .     S
C486   N510    1.368   .     A
C487   N509    1.368   .     A
C487   F494    1.355   .     S
C487   C140    1.418   1_565 S
C488   N510    1.368   .     A
C488   F495    1.355   .     S
C489   N509    1.368   .     A
C489   F496    1.355   .     S
C489   C138    1.418   1_565 S
C490   O522    1.385   .     S
Cu491  N509    2.017   .     S
Cu491  O518    1.953   .     S
Cu491  O511    1.957   .     S
Cu491  O516    1.957   .     S
Cu491  Cu492   2.684   .     S
Cu491  O520    1.953   .     S
Cu492  O517    1.957   .     S
Cu492  N510    2.017   .     S
Cu492  O519    1.953   .     S
Cu492  O515    1.957   .     S
Cu492  O521    1.953   .     S
H505   O522    0.988   .     S
H506   O512    0.988   .     S
H507   O513    0.988   .     S
H508   O514    0.988   .     S
C523   C541    1.442   .     S
C523   O575    1.289   .     A
C523   O569    1.289   .     A
C524   C540    1.415   .     A
C524   O570    1.385   .     S
C524   C584    1.389   .     S
C525   O571    1.385   .     S
C525   C540    1.415   .     A
C525   C606    1.389   .     S
C526   C541    1.415   .     A
C526   O572    1.385   .     S
C526   C640    1.389   1_455 S
C527   C531    1.391   .     A
C527   F555    1.358   .     S
C527   C538    1.405   .     A
C528   C532    1.391   .     A
C528   C539    1.405   .     A
C528   F556    1.358   .     S
C529   C533    1.391   .     A
C529   F557    1.358   .     S
C529   C539    1.405   .     A
C530   C535    1.391   .     A
C530   C538    1.405   .     A
C530   F558    1.358   .     S
C531   C536    1.401   .     A
C531   H559    1.083   .     S
C532   H560    1.083   .     S
C532   C537    1.401   .     A
C533   H561    1.083   .     S
C533   C537    1.401   .     A
C534   O574    1.289   .     A
C534   O573    1.289   .     A
C534   C540    1.442   .     S
C535   C536    1.401   .     A
C535   H562    1.083   .     S
C536   C542    1.458   .     S
C537   C543    1.458   .     S
C539   C16     1.466   1_556 S
C541   C548    1.415   .     A
C542   O576    1.295   .     A
C542   O579    1.295   .     A
C543   O578    1.295   .     A
C543   O577    1.295   .     A
C544   F551    1.355   .     S
C544   N568    1.368   .     A
C544   C895    1.418   1_545 S
C545   N567    1.368   .     A
C545   F552    1.355   .     S
C545   C720    1.418   .     S
C546   N568    1.368   .     A
C546   F553    1.355   .     S
C546   C893    1.418   1_545 S
C547   N567    1.368   .     A
C547   F554    1.355   .     S
C547   C718    1.418   .     S
C548   O580    1.385   .     S
C548   C641    1.389   1_455 S
Cu549  N567    2.017   .     S
Cu549  O576    1.953   .     S
Cu549  O569    1.957   .     S
Cu549  O574    1.957   .     S
Cu549  Cu550   2.684   .     S
Cu549  O578    1.953   .     S
Cu550  O575    1.957   .     S
Cu550  N568    2.017   .     S
Cu550  O577    1.953   .     S
Cu550  O573    1.957   .     S
Cu550  O579    1.953   .     S
H563   O580    0.988   .     S
H564   O570    0.988   .     S
H565   O571    0.988   .     S
H566   O572    0.988   .     S
C581   C599    1.442   .     S
C581   O633    1.289   .     A
C581   O627    1.289   .     A
C582   C598    1.415   .     A
C582   O628    1.385   .     S
C582   C642    1.389   .     S
C583   O629    1.385   .     S
C583   C598    1.415   .     A
C583   C664    1.389   .     S
C584   C599    1.415   .     A
C584   O630    1.385   .     S
C585   C589    1.391   .     A
C585   F613    1.358   .     S
C585   C596    1.405   .     A
C586   C590    1.391   .     A
C586   C597    1.405   .     A
C586   F614    1.358   .     S
C587   C591    1.391   .     A
C587   F615    1.358   .     S
C587   C597    1.405   .     A
C588   C593    1.391   .     A
C588   C596    1.405   .     A
C588   F616    1.358   .     S
C589   C594    1.401   .     A
C589   H617    1.083   .     S
C590   H618    1.083   .     S
C590   C595    1.401   .     A
C591   H619    1.083   .     S
C591   C595    1.401   .     A
C592   O632    1.289   .     A
C592   O631    1.289   .     A
C592   C598    1.442   .     S
C593   C594    1.401   .     A
C593   H620    1.083   .     S
C594   C600    1.458   .     S
C595   C601    1.458   .     S
C597   C74     1.466   1_556 S
C599   C606    1.415   .     A
C600   O634    1.295   .     A
C600   O637    1.295   .     A
C601   O636    1.295   .     A
C601   O635    1.295   .     A
C602   F609    1.355   .     S
C602   N626    1.368   .     A
C602   C953    1.418   1_545 S
C603   N625    1.368   .     A
C603   F610    1.355   .     S
C603   C778    1.418   .     S
C604   N626    1.368   .     A
C604   F611    1.355   .     S
C604   C951    1.418   1_545 S
C605   N625    1.368   .     A
C605   F612    1.355   .     S
C605   C776    1.418   .     S
C606   O638    1.385   .     S
Cu607  N625    2.017   .     S
Cu607  O634    1.953   .     S
Cu607  O627    1.957   .     S
Cu607  O632    1.957   .     S
Cu607  Cu608   2.684   .     S
Cu607  O636    1.953   .     S
Cu608  O633    1.957   .     S
Cu608  N626    2.017   .     S
Cu608  O635    1.953   .     S
Cu608  O631    1.957   .     S
Cu608  O637    1.953   .     S
H621   O638    0.988   .     S
H622   O628    0.988   .     S
H623   O629    0.988   .     S
H624   O630    0.988   .     S
C639   C657    1.442   .     S
C639   O691    1.289   .     A
C639   O685    1.289   .     A
C640   C656    1.415   .     A
C640   O686    1.385   .     S
C640   C526    1.389   1_655 S
C641   O687    1.385   .     S
C641   C656    1.415   .     A
C641   C548    1.389   1_655 S
C642   C657    1.415   .     A
C642   O688    1.385   .     S
C643   C647    1.391   .     A
C643   F671    1.358   .     S
C643   C654    1.405   .     A
C644   C648    1.391   .     A
C644   C655    1.405   .     A
C644   F672    1.358   .     S
C645   C649    1.391   .     A
C645   F673    1.358   .     S
C645   C655    1.405   .     A
C646   C651    1.391   .     A
C646   C654    1.405   .     A
C646   F674    1.358   .     S
C647   C652    1.401   .     A
C647   H675    1.083   .     S
C648   H676    1.083   .     S
C648   C653    1.401   .     A
C649   H677    1.083   .     S
C649   C653    1.401   .     A
C650   O690    1.289   .     A
C650   O689    1.289   .     A
C650   C656    1.442   .     S
C651   C652    1.401   .     A
C651   H678    1.083   .     S
C652   C658    1.458   .     S
C653   C659    1.458   .     S
C655   C132    1.466   1_556 S
C657   C664    1.415   .     A
C658   O692    1.295   .     A
C658   O695    1.295   .     A
C659   O694    1.295   .     A
C659   O693    1.295   .     A
C660   F667    1.355   .     S
C660   N684    1.368   .     A
C660   C1011   1.418   1_545 S
C661   N683    1.368   .     A
C661   F668    1.355   .     S
C661   C836    1.418   .     S
C662   N684    1.368   .     A
C662   F669    1.355   .     S
C662   C1009   1.418   1_545 S
C663   N683    1.368   .     A
C663   F670    1.355   .     S
C663   C834    1.418   .     S
C664   O696    1.385   .     S
Cu665  N683    2.017   .     S
Cu665  O692    1.953   .     S
Cu665  O685    1.957   .     S
Cu665  O690    1.957   .     S
Cu665  Cu666   2.684   .     S
Cu665  O694    1.953   .     S
Cu666  O691    1.957   .     S
Cu666  N684    2.017   .     S
Cu666  O693    1.953   .     S
Cu666  O689    1.957   .     S
Cu666  O695    1.953   .     S
H679   O696    0.988   .     S
H680   O686    0.988   .     S
H681   O687    0.988   .     S
H682   O688    0.988   .     S
C697   C715    1.442   .     S
C697   O749    1.289   .     A
C697   O743    1.289   .     A
C698   C714    1.415   .     A
C698   O744    1.385   .     S
C698   C758    1.389   .     S
C699   O745    1.385   .     S
C699   C714    1.415   .     A
C699   C780    1.389   .     S
C700   C715    1.415   .     A
C700   O746    1.385   .     S
C700   C814    1.389   1_455 S
C701   C705    1.391   .     A
C701   F729    1.358   .     S
C701   C712    1.405   .     A
C702   C706    1.391   .     A
C702   C713    1.405   .     A
C702   F730    1.358   .     S
C703   C707    1.391   .     A
C703   F731    1.358   .     S
C703   C713    1.405   .     A
C704   C709    1.391   .     A
C704   C712    1.405   .     A
C704   F732    1.358   .     S
C705   C710    1.401   .     A
C705   H733    1.083   .     S
C706   H734    1.083   .     S
C706   C711    1.401   .     A
C707   H735    1.083   .     S
C707   C711    1.401   .     A
C708   O748    1.289   .     A
C708   O747    1.289   .     A
C708   C714    1.442   .     S
C709   C710    1.401   .     A
C709   H736    1.083   .     S
C710   C716    1.458   .     S
C711   C717    1.458   .     S
C713   C190    1.466   1_556 S
C715   C722    1.415   .     A
C716   O750    1.295   .     A
C716   O753    1.295   .     A
C717   O752    1.295   .     A
C717   O751    1.295   .     A
C718   F725    1.355   .     S
C718   N742    1.368   .     A
C719   N741    1.368   .     A
C719   F726    1.355   .     S
C719   C894    1.418   .     S
C720   N742    1.368   .     A
C720   F727    1.355   .     S
C721   N741    1.368   .     A
C721   F728    1.355   .     S
C721   C892    1.418   .     S
C722   O754    1.385   .     S
C722   C815    1.389   1_455 S
Cu723  N741    2.017   .     S
Cu723  O750    1.953   .     S
Cu723  O743    1.957   .     S
Cu723  O748    1.957   .     S
Cu723  Cu724   2.684   .     S
Cu723  O752    1.953   .     S
Cu724  O749    1.957   .     S
Cu724  N742    2.017   .     S
Cu724  O751    1.953   .     S
Cu724  O747    1.957   .     S
Cu724  O753    1.953   .     S
H737   O754    0.988   .     S
H738   O744    0.988   .     S
H739   O745    0.988   .     S
H740   O746    0.988   .     S
C755   C773    1.442   .     S
C755   O807    1.289   .     A
C755   O801    1.289   .     A
C756   C772    1.415   .     A
C756   O802    1.385   .     S
C756   C816    1.389   .     S
C757   O803    1.385   .     S
C757   C772    1.415   .     A
C757   C838    1.389   .     S
C758   C773    1.415   .     A
C758   O804    1.385   .     S
C759   C763    1.391   .     A
C759   F787    1.358   .     S
C759   C770    1.405   .     A
C760   C764    1.391   .     A
C760   C771    1.405   .     A
C760   F788    1.358   .     S
C761   C765    1.391   .     A
C761   F789    1.358   .     S
C761   C771    1.405   .     A
C762   C767    1.391   .     A
C762   C770    1.405   .     A
C762   F790    1.358   .     S
C763   C768    1.401   .     A
C763   H791    1.083   .     S
C764   H792    1.083   .     S
C764   C769    1.401   .     A
C765   H793    1.083   .     S
C765   C769    1.401   .     A
C766   O806    1.289   .     A
C766   O805    1.289   .     A
C766   C772    1.442   .     S
C767   C768    1.401   .     A
C767   H794    1.083   .     S
C768   C774    1.458   .     S
C769   C775    1.458   .     S
C771   C248    1.466   1_556 S
C773   C780    1.415   .     A
C774   O808    1.295   .     A
C774   O811    1.295   .     A
C775   O810    1.295   .     A
C775   O809    1.295   .     A
C776   F783    1.355   .     S
C776   N800    1.368   .     A
C777   N799    1.368   .     A
C777   F784    1.355   .     S
C777   C952    1.418   .     S
C778   N800    1.368   .     A
C778   F785    1.355   .     S
C779   N799    1.368   .     A
C779   F786    1.355   .     S
C779   C950    1.418   .     S
C780   O812    1.385   .     S
Cu781  N799    2.017   .     S
Cu781  O808    1.953   .     S
Cu781  O801    1.957   .     S
Cu781  O806    1.957   .     S
Cu781  Cu782   2.684   .     S
Cu781  O810    1.953   .     S
Cu782  O807    1.957   .     S
Cu782  N800    2.017   .     S
Cu782  O809    1.953   .     S
Cu782  O805    1.957   .     S
Cu782  O811    1.953   .     S
H795   O812    0.988   .     S
H796   O802    0.988   .     S
H797   O803    0.988   .     S
H798   O804    0.988   .     S
C813   C831    1.442   .     S
C813   O865    1.289   .     A
C813   O859    1.289   .     A
C814   C830    1.415   .     A
C814   O860    1.385   .     S
C814   C700    1.389   1_655 S
C815   O861    1.385   .     S
C815   C830    1.415   .     A
C815   C722    1.389   1_655 S
C816   C831    1.415   .     A
C816   O862    1.385   .     S
C817   C821    1.391   .     A
C817   F845    1.358   .     S
C817   C828    1.405   .     A
C818   C822    1.391   .     A
C818   C829    1.405   .     A
C818   F846    1.358   .     S
C819   C823    1.391   .     A
C819   F847    1.358   .     S
C819   C829    1.405   .     A
C820   C825    1.391   .     A
C820   C828    1.405   .     A
C820   F848    1.358   .     S
C821   C826    1.401   .     A
C821   H849    1.083   .     S
C822   H850    1.083   .     S
C822   C827    1.401   .     A
C823   H851    1.083   .     S
C823   C827    1.401   .     A
C824   O864    1.289   .     A
C824   O863    1.289   .     A
C824   C830    1.442   .     S
C825   C826    1.401   .     A
C825   H852    1.083   .     S
C826   C832    1.458   .     S
C827   C833    1.458   .     S
C829   C306    1.466   1_556 S
C831   C838    1.415   .     A
C832   O866    1.295   .     A
C832   O869    1.295   .     A
C833   O868    1.295   .     A
C833   O867    1.295   .     A
C834   F841    1.355   .     S
C834   N858    1.368   .     A
C835   N857    1.368   .     A
C835   F842    1.355   .     S
C835   C1010   1.418   .     S
C836   N858    1.368   .     A
C836   F843    1.355   .     S
C837   N857    1.368   .     A
C837   F844    1.355   .     S
C837   C1008   1.418   .     S
C838   O870    1.385   .     S
Cu839  N857    2.017   .     S
Cu839  O866    1.953   .     S
Cu839  O859    1.957   .     S
Cu839  O864    1.957   .     S
Cu839  Cu840   2.684   .     S
Cu839  O868    1.953   .     S
Cu840  O865    1.957   .     S
Cu840  N858    2.017   .     S
Cu840  O867    1.953   .     S
Cu840  O863    1.957   .     S
Cu840  O869    1.953   .     S
H853   O870    0.988   .     S
H854   O860    0.988   .     S
H855   O861    0.988   .     S
H856   O862    0.988   .     S
C871   C889    1.442   .     S
C871   O923    1.289   .     A
C871   O917    1.289   .     A
C872   C888    1.415   .     A
C872   O918    1.385   .     S
C872   C932    1.389   .     S
C873   O919    1.385   .     S
C873   C888    1.415   .     A
C873   C954    1.389   .     S
C874   C889    1.415   .     A
C874   O920    1.385   .     S
C874   C988    1.389   1_455 S
C875   C879    1.391   .     A
C875   F903    1.358   .     S
C875   C886    1.405   .     A
C876   C880    1.391   .     A
C876   C887    1.405   .     A
C876   F904    1.358   .     S
C877   C881    1.391   .     A
C877   F905    1.358   .     S
C877   C887    1.405   .     A
C878   C883    1.391   .     A
C878   C886    1.405   .     A
C878   F906    1.358   .     S
C879   C884    1.401   .     A
C879   H907    1.083   .     S
C880   H908    1.083   .     S
C880   C885    1.401   .     A
C881   H909    1.083   .     S
C881   C885    1.401   .     A
C882   O922    1.289   .     A
C882   O921    1.289   .     A
C882   C888    1.442   .     S
C883   C884    1.401   .     A
C883   H910    1.083   .     S
C884   C890    1.458   .     S
C885   C891    1.458   .     S
C887   C364    1.466   1_556 S
C889   C896    1.415   .     A
C890   O924    1.295   .     A
C890   O927    1.295   .     A
C891   O926    1.295   .     A
C891   O925    1.295   .     A
C892   F899    1.355   .     S
C892   N916    1.368   .     A
C893   N915    1.368   .     A
C893   F900    1.355   .     S
C893   C546    1.418   1_565 S
C894   N916    1.368   .     A
C894   F901    1.355   .     S
C895   N915    1.368   .     A
C895   F902    1.355   .     S
C895   C544    1.418   1_565 S
C896   O928    1.385   .     S
C896   C989    1.389   1_455 S
Cu897  N915    2.017   .     S
Cu897  O924    1.953   .     S
Cu897  O917    1.957   .     S
Cu897  O922    1.957   .     S
Cu897  Cu898   2.684   .     S
Cu897  O926    1.953   .     S
Cu898  O923    1.957   .     S
Cu898  N916    2.017   .     S
Cu898  O925    1.953   .     S
Cu898  O921    1.957   .     S
Cu898  O927    1.953   .     S
H911   O928    0.988   .     S
H912   O918    0.988   .     S
H913   O919    0.988   .     S
H914   O920    0.988   .     S
C929   C947    1.442   .     S
C929   O981    1.289   .     A
C929   O975    1.289   .     A
C930   C946    1.415   .     A
C930   O976    1.385   .     S
C930   C990    1.389   .     S
C931   O977    1.385   .     S
C931   C946    1.415   .     A
C931   C1012   1.389   .     S
C932   C947    1.415   .     A
C932   O978    1.385   .     S
C933   C937    1.391   .     A
C933   F961    1.358   .     S
C933   C944    1.405   .     A
C934   C938    1.391   .     A
C934   C945    1.405   .     A
C934   F962    1.358   .     S
C935   C939    1.391   .     A
C935   F963    1.358   .     S
C935   C945    1.405   .     A
C936   C941    1.391   .     A
C936   C944    1.405   .     A
C936   F964    1.358   .     S
C937   C942    1.401   .     A
C937   H965    1.083   .     S
C938   H966    1.083   .     S
C938   C943    1.401   .     A
C939   H967    1.083   .     S
C939   C943    1.401   .     A
C940   O980    1.289   .     A
C940   O979    1.289   .     A
C940   C946    1.442   .     S
C941   C942    1.401   .     A
C941   H968    1.083   .     S
C942   C948    1.458   .     S
C943   C949    1.458   .     S
C945   C422    1.466   1_556 S
C947   C954    1.415   .     A
C948   O982    1.295   .     A
C948   O985    1.295   .     A
C949   O984    1.295   .     A
C949   O983    1.295   .     A
C950   F957    1.355   .     S
C950   N974    1.368   .     A
C951   N973    1.368   .     A
C951   F958    1.355   .     S
C951   C604    1.418   1_565 S
C952   N974    1.368   .     A
C952   F959    1.355   .     S
C953   N973    1.368   .     A
C953   F960    1.355   .     S
C953   C602    1.418   1_565 S
C954   O986    1.385   .     S
Cu955  N973    2.017   .     S
Cu955  O982    1.953   .     S
Cu955  O975    1.957   .     S
Cu955  O980    1.957   .     S
Cu955  Cu956   2.684   .     S
Cu955  O984    1.953   .     S
Cu956  O981    1.957   .     S
Cu956  N974    2.017   .     S
Cu956  O983    1.953   .     S
Cu956  O979    1.957   .     S
Cu956  O985    1.953   .     S
H969   O986    0.988   .     S
H970   O976    0.988   .     S
H971   O977    0.988   .     S
H972   O978    0.988   .     S
C987   C1005   1.442   .     S
C987   O1039   1.289   .     A
C987   O1033   1.289   .     A
C988   C1004   1.415   .     A
C988   O1034   1.385   .     S
C988   C874    1.389   1_655 S
C989   O1035   1.385   .     S
C989   C1004   1.415   .     A
C989   C896    1.389   1_655 S
C990   C1005   1.415   .     A
C990   O1036   1.385   .     S
C991   C995    1.391   .     A
C991   F1019   1.358   .     S
C991   C1002   1.405   .     A
C992   C996    1.391   .     A
C992   C1003   1.405   .     A
C992   F1020   1.358   .     S
C993   C997    1.391   .     A
C993   F1021   1.358   .     S
C993   C1003   1.405   .     A
C994   C999    1.391   .     A
C994   C1002   1.405   .     A
C994   F1022   1.358   .     S
C995   C1000   1.401   .     A
C995   H1023   1.083   .     S
C996   H1024   1.083   .     S
C996   C1001   1.401   .     A
C997   H1025   1.083   .     S
C997   C1001   1.401   .     A
C998   O1038   1.289   .     A
C998   O1037   1.289   .     A
C998   C1004   1.442   .     S
C999   C1000   1.401   .     A
C999   H1026   1.083   .     S
C1000  C1006   1.458   .     S
C1001  C1007   1.458   .     S
C1003  C480    1.466   1_556 S
C1005  C1012   1.415   .     A
C1006  O1040   1.295   .     A
C1006  O1043   1.295   .     A
C1007  O1042   1.295   .     A
C1007  O1041   1.295   .     A
C1008  F1015   1.355   .     S
C1008  N1032   1.368   .     A
C1009  N1031   1.368   .     A
C1009  F1016   1.355   .     S
C1009  C662    1.418   1_565 S
C1010  N1032   1.368   .     A
C1010  F1017   1.355   .     S
C1011  N1031   1.368   .     A
C1011  F1018   1.355   .     S
C1011  C660    1.418   1_565 S
C1012  O1044   1.385   .     S
Cu1013 N1031   2.017   .     S
Cu1013 O1040   1.953   .     S
Cu1013 O1033   1.957   .     S
Cu1013 O1038   1.957   .     S
Cu1013 Cu1014  2.684   .     S
Cu1013 O1042   1.953   .     S
Cu1014 O1039   1.957   .     S
Cu1014 N1032   2.017   .     S
Cu1014 O1041   1.953   .     S
Cu1014 O1037   1.957   .     S
Cu1014 O1043   1.953   .     S
H1027  O1044   0.988   .     S
H1028  O1034   0.988   .     S
H1029  O1035   0.988   .     S
H1030  O1036   0.988   .     S
