data_str_m2_o10_o17_pcu_sym.221
_audit_creation_date              2020-01-03
_audit_creation_method            'Materials Studio'
_symmetry_space_group_name_H-M    'P1'
_symmetry_Int_Tables_number       1
_symmetry_cell_setting            triclinic
loop_
_symmetry_equiv_pos_as_xyz
  x,y,z
_cell_length_a                    29.8931
_cell_length_b                    26.4187
_cell_length_c                    22.8432
_cell_angle_alpha                 102.1307
_cell_angle_beta                  94.5556
_cell_angle_gamma                 94.2739
loop_
_atom_site_label
_atom_site_type_symbol
_atom_site_fract_x
_atom_site_fract_y
_atom_site_fract_z
_atom_site_U_iso_or_equiv
_atom_site_adp_type
_atom_site_occupancy
C1     C     0.24864   0.06717   0.15190   0.00000  Uiso   1.00
C2     C     0.25135   0.26616   0.18143   0.00000  Uiso   1.00
C3     C     0.01320   0.07448   0.11733   0.00000  Uiso   1.00
C4     C     0.48680   0.25885   0.21601   0.00000  Uiso   1.00
C5     C     0.25510   0.01314   0.14534   0.00000  Uiso   1.00
C6     C     0.24490   0.32020   0.18800   0.00000  Uiso   1.00
C7     C     0.16484   0.16616   0.16708   0.00000  Uiso   1.00
C8     C     0.33516   0.16718   0.16625   0.00000  Uiso   1.00
C9     C     0.41088   0.21460   0.19025   0.00000  Uiso   1.00
C10    C     0.08911   0.11874   0.14308   0.00000  Uiso   1.00
C11    C     0.38338   0.16855   0.16539   0.00000  Uiso   1.00
C12    C     0.11662   0.16478   0.16794   0.00000  Uiso   1.00
C13    C     0.40144   0.12280   0.14021   0.00000  Uiso   1.00
C14    C     0.09856   0.21053   0.19312   0.00000  Uiso   1.00
C15    C     0.44794   0.12127   0.14047   0.00000  Uiso   1.00
C16    C     0.05206   0.21207   0.19286   0.00000  Uiso   1.00
C17    C     0.47645   0.16713   0.16620   0.00000  Uiso   1.00
C18    C     0.02355   0.16621   0.16713   0.00000  Uiso   1.00
C19    C     0.45790   0.21394   0.19095   0.00000  Uiso   1.00
C20    C     0.04210   0.11939   0.14239   0.00000  Uiso   1.00
C21    C     0.46671   0.07502   0.11611   0.00000  Uiso   1.00
C22    C     0.03329   0.25831   0.21723   0.00000  Uiso   1.00
Cu23   Cu    0.25500   0.17246   0.22813   0.00000  Uiso   1.00
Cu24   Cu    0.24499   0.16087   0.10521   0.00000  Uiso   1.00
H25    H     0.37864   0.08842   0.12145   0.00000  Uiso   1.00
H26    H     0.12136   0.24491   0.21188   0.00000  Uiso   1.00
H27    H     0.02612   0.03826   0.09803   0.00000  Uiso   1.00
H28    H     0.47388   0.29507   0.23531   0.00000  Uiso   1.00
N29    N     0.23744   0.15214   0.01284   0.00000  Uiso   1.00
N30    N     0.26255   0.18119   0.32049   0.00000  Uiso   1.00
O31    O     0.25325   0.09538   0.20659   0.00000  Uiso   1.00
O32    O     0.24674   0.23796   0.12674   0.00000  Uiso   1.00
O33    O     0.24480   0.08559   0.10279   0.00000  Uiso   1.00
O34    O     0.25520   0.24774   0.23055   0.00000  Uiso   1.00
O35    O     0.18935   0.17155   0.21857   0.00000  Uiso   1.00
O36    O     0.31064   0.16179   0.11476   0.00000  Uiso   1.00
O37    O     0.18090   0.16176   0.11477   0.00000  Uiso   1.00
O38    O     0.31910   0.17157   0.21857   0.00000  Uiso   1.00
I39    I     0.37997   0.28453   0.22380   0.00000  Uiso   1.00
I40    I     0.12003   0.04881   0.10953   0.00000  Uiso   1.00
I41    I     0.42822   0.00340   0.07608   0.00000  Uiso   1.00
I42    I     0.07178   0.32993   0.25726   0.00000  Uiso   1.00
I43    I     0.29111   0.31945   0.07029   0.00000  Uiso   1.00
I44    I     0.20889   0.01389   0.26305   0.00000  Uiso   1.00
I45    I     0.16827   0.13626   0.31918   0.00000  Uiso   1.00
I46    I     0.33173   0.19708   0.01416   0.00000  Uiso   1.00
C47    C     0.74864   0.06717   0.15190   0.00000  Uiso   1.00
C48    C     0.75135   0.26616   0.18143   0.00000  Uiso   1.00
C49    C     0.51320   0.07448   0.11733   0.00000  Uiso   1.00
C50    C     0.98680   0.25885   0.21601   0.00000  Uiso   1.00
C51    C     0.75510   0.01314   0.14534   0.00000  Uiso   1.00
C52    C     0.74490   0.32020   0.18800   0.00000  Uiso   1.00
C53    C     0.66484   0.16616   0.16708   0.00000  Uiso   1.00
C54    C     0.83516   0.16718   0.16625   0.00000  Uiso   1.00
C55    C     0.91088   0.21460   0.19025   0.00000  Uiso   1.00
C56    C     0.58911   0.11874   0.14308   0.00000  Uiso   1.00
C57    C     0.88338   0.16855   0.16539   0.00000  Uiso   1.00
C58    C     0.61662   0.16478   0.16794   0.00000  Uiso   1.00
C59    C     0.90144   0.12280   0.14021   0.00000  Uiso   1.00
C60    C     0.59856   0.21053   0.19312   0.00000  Uiso   1.00
C61    C     0.94794   0.12127   0.14047   0.00000  Uiso   1.00
C62    C     0.55206   0.21207   0.19286   0.00000  Uiso   1.00
C63    C     0.97645   0.16713   0.16620   0.00000  Uiso   1.00
C64    C     0.52355   0.16621   0.16713   0.00000  Uiso   1.00
C65    C     0.95790   0.21394   0.19095   0.00000  Uiso   1.00
C66    C     0.54210   0.11939   0.14239   0.00000  Uiso   1.00
C67    C     0.96671   0.07502   0.11611   0.00000  Uiso   1.00
C68    C     0.53329   0.25831   0.21723   0.00000  Uiso   1.00
Cu69   Cu    0.75500   0.17246   0.22813   0.00000  Uiso   1.00
Cu70   Cu    0.74499   0.16087   0.10521   0.00000  Uiso   1.00
H71    H     0.87864   0.08842   0.12145   0.00000  Uiso   1.00
H72    H     0.62136   0.24491   0.21188   0.00000  Uiso   1.00
H73    H     0.52612   0.03826   0.09803   0.00000  Uiso   1.00
H74    H     0.97388   0.29507   0.23531   0.00000  Uiso   1.00
N75    N     0.73744   0.15214   0.01284   0.00000  Uiso   1.00
N76    N     0.76255   0.18119   0.32049   0.00000  Uiso   1.00
O77    O     0.75325   0.09538   0.20659   0.00000  Uiso   1.00
O78    O     0.74674   0.23796   0.12674   0.00000  Uiso   1.00
O79    O     0.74480   0.08559   0.10279   0.00000  Uiso   1.00
O80    O     0.75520   0.24774   0.23055   0.00000  Uiso   1.00
O81    O     0.68935   0.17155   0.21857   0.00000  Uiso   1.00
O82    O     0.81064   0.16179   0.11476   0.00000  Uiso   1.00
O83    O     0.68090   0.16176   0.11477   0.00000  Uiso   1.00
O84    O     0.81910   0.17157   0.21857   0.00000  Uiso   1.00
I85    I     0.87997   0.28453   0.22380   0.00000  Uiso   1.00
I86    I     0.62003   0.04881   0.10953   0.00000  Uiso   1.00
I87    I     0.92822   0.00340   0.07608   0.00000  Uiso   1.00
I88    I     0.57178   0.32993   0.25726   0.00000  Uiso   1.00
I89    I     0.79111   0.31945   0.07029   0.00000  Uiso   1.00
I90    I     0.70889   0.01389   0.26305   0.00000  Uiso   1.00
I91    I     0.66827   0.13626   0.31918   0.00000  Uiso   1.00
I92    I     0.83173   0.19708   0.01416   0.00000  Uiso   1.00
C93    C     0.24864   0.40050   0.15190   0.00000  Uiso   1.00
C94    C     0.25135   0.59950   0.18143   0.00000  Uiso   1.00
C95    C     0.01320   0.40781   0.11733   0.00000  Uiso   1.00
C96    C     0.48680   0.59218   0.21601   0.00000  Uiso   1.00
C97    C     0.25510   0.34647   0.14534   0.00000  Uiso   1.00
C98    C     0.24490   0.65353   0.18800   0.00000  Uiso   1.00
C99    C     0.16484   0.49949   0.16708   0.00000  Uiso   1.00
C100   C     0.33516   0.50051   0.16625   0.00000  Uiso   1.00
C101   C     0.41088   0.54793   0.19025   0.00000  Uiso   1.00
C102   C     0.08911   0.45207   0.14308   0.00000  Uiso   1.00
C103   C     0.38338   0.50188   0.16539   0.00000  Uiso   1.00
C104   C     0.11662   0.49812   0.16794   0.00000  Uiso   1.00
C105   C     0.40144   0.45613   0.14021   0.00000  Uiso   1.00
C106   C     0.09856   0.54387   0.19312   0.00000  Uiso   1.00
C107   C     0.44794   0.45460   0.14047   0.00000  Uiso   1.00
C108   C     0.05206   0.54540   0.19286   0.00000  Uiso   1.00
C109   C     0.47645   0.50046   0.16620   0.00000  Uiso   1.00
C110   C     0.02355   0.49954   0.16713   0.00000  Uiso   1.00
C111   C     0.45790   0.54727   0.19095   0.00000  Uiso   1.00
C112   C     0.04210   0.45272   0.14239   0.00000  Uiso   1.00
C113   C     0.46671   0.40835   0.11611   0.00000  Uiso   1.00
C114   C     0.03329   0.59164   0.21723   0.00000  Uiso   1.00
Cu115  Cu    0.25500   0.50579   0.22813   0.00000  Uiso   1.00
Cu116  Cu    0.24499   0.49421   0.10521   0.00000  Uiso   1.00
H117   H     0.37864   0.42175   0.12145   0.00000  Uiso   1.00
H118   H     0.12136   0.57824   0.21188   0.00000  Uiso   1.00
H119   H     0.02612   0.37159   0.09803   0.00000  Uiso   1.00
H120   H     0.47388   0.62841   0.23531   0.00000  Uiso   1.00
N121   N     0.23744   0.48547   0.01284   0.00000  Uiso   1.00
N122   N     0.26255   0.51453   0.32049   0.00000  Uiso   1.00
O123   O     0.25325   0.42871   0.20659   0.00000  Uiso   1.00
O124   O     0.24674   0.57129   0.12674   0.00000  Uiso   1.00
O125   O     0.24480   0.41892   0.10279   0.00000  Uiso   1.00
O126   O     0.25520   0.58108   0.23055   0.00000  Uiso   1.00
O127   O     0.18935   0.50488   0.21857   0.00000  Uiso   1.00
O128   O     0.31064   0.49512   0.11476   0.00000  Uiso   1.00
O129   O     0.18090   0.49510   0.11477   0.00000  Uiso   1.00
O130   O     0.31910   0.50490   0.21857   0.00000  Uiso   1.00
I131   I     0.37997   0.61786   0.22380   0.00000  Uiso   1.00
I132   I     0.12003   0.38214   0.10953   0.00000  Uiso   1.00
I133   I     0.42822   0.33674   0.07608   0.00000  Uiso   1.00
I134   I     0.07178   0.66326   0.25726   0.00000  Uiso   1.00
I135   I     0.29111   0.65278   0.07029   0.00000  Uiso   1.00
I136   I     0.20889   0.34722   0.26305   0.00000  Uiso   1.00
I137   I     0.16827   0.46959   0.31918   0.00000  Uiso   1.00
I138   I     0.33173   0.53041   0.01416   0.00000  Uiso   1.00
C139   C     0.74864   0.40050   0.15190   0.00000  Uiso   1.00
C140   C     0.75135   0.59950   0.18143   0.00000  Uiso   1.00
C141   C     0.51320   0.40781   0.11733   0.00000  Uiso   1.00
C142   C     0.98680   0.59218   0.21601   0.00000  Uiso   1.00
C143   C     0.75510   0.34647   0.14534   0.00000  Uiso   1.00
C144   C     0.74490   0.65353   0.18800   0.00000  Uiso   1.00
C145   C     0.66484   0.49949   0.16708   0.00000  Uiso   1.00
C146   C     0.83516   0.50051   0.16625   0.00000  Uiso   1.00
C147   C     0.91088   0.54793   0.19025   0.00000  Uiso   1.00
C148   C     0.58911   0.45207   0.14308   0.00000  Uiso   1.00
C149   C     0.88338   0.50188   0.16539   0.00000  Uiso   1.00
C150   C     0.61662   0.49812   0.16794   0.00000  Uiso   1.00
C151   C     0.90144   0.45613   0.14021   0.00000  Uiso   1.00
C152   C     0.59856   0.54387   0.19312   0.00000  Uiso   1.00
C153   C     0.94794   0.45460   0.14047   0.00000  Uiso   1.00
C154   C     0.55206   0.54540   0.19286   0.00000  Uiso   1.00
C155   C     0.97645   0.50046   0.16620   0.00000  Uiso   1.00
C156   C     0.52355   0.49954   0.16713   0.00000  Uiso   1.00
C157   C     0.95790   0.54727   0.19095   0.00000  Uiso   1.00
C158   C     0.54210   0.45272   0.14239   0.00000  Uiso   1.00
C159   C     0.96671   0.40835   0.11611   0.00000  Uiso   1.00
C160   C     0.53329   0.59164   0.21723   0.00000  Uiso   1.00
Cu161  Cu    0.75500   0.50579   0.22813   0.00000  Uiso   1.00
Cu162  Cu    0.74499   0.49421   0.10521   0.00000  Uiso   1.00
H163   H     0.87864   0.42175   0.12145   0.00000  Uiso   1.00
H164   H     0.62136   0.57824   0.21188   0.00000  Uiso   1.00
H165   H     0.52612   0.37159   0.09803   0.00000  Uiso   1.00
H166   H     0.97388   0.62841   0.23531   0.00000  Uiso   1.00
N167   N     0.73744   0.48547   0.01284   0.00000  Uiso   1.00
N168   N     0.76255   0.51453   0.32049   0.00000  Uiso   1.00
O169   O     0.75325   0.42871   0.20659   0.00000  Uiso   1.00
O170   O     0.74674   0.57129   0.12674   0.00000  Uiso   1.00
O171   O     0.74480   0.41892   0.10279   0.00000  Uiso   1.00
O172   O     0.75520   0.58108   0.23055   0.00000  Uiso   1.00
O173   O     0.68935   0.50488   0.21857   0.00000  Uiso   1.00
O174   O     0.81064   0.49512   0.11476   0.00000  Uiso   1.00
O175   O     0.68090   0.49510   0.11477   0.00000  Uiso   1.00
O176   O     0.81910   0.50490   0.21857   0.00000  Uiso   1.00
I177   I     0.87997   0.61786   0.22380   0.00000  Uiso   1.00
I178   I     0.62003   0.38214   0.10953   0.00000  Uiso   1.00
I179   I     0.92822   0.33674   0.07608   0.00000  Uiso   1.00
I180   I     0.57178   0.66326   0.25726   0.00000  Uiso   1.00
I181   I     0.79111   0.65278   0.07029   0.00000  Uiso   1.00
I182   I     0.70889   0.34722   0.26305   0.00000  Uiso   1.00
I183   I     0.66827   0.46959   0.31918   0.00000  Uiso   1.00
I184   I     0.83173   0.53041   0.01416   0.00000  Uiso   1.00
C185   C     0.24864   0.73384   0.15190   0.00000  Uiso   1.00
C186   C     0.25135   0.93283   0.18143   0.00000  Uiso   1.00
C187   C     0.01320   0.74115   0.11733   0.00000  Uiso   1.00
C188   C     0.48680   0.92552   0.21601   0.00000  Uiso   1.00
C189   C     0.25510   0.67980   0.14534   0.00000  Uiso   1.00
C190   C     0.24490   0.98686   0.18800   0.00000  Uiso   1.00
C191   C     0.16484   0.83282   0.16708   0.00000  Uiso   1.00
C192   C     0.33516   0.83384   0.16625   0.00000  Uiso   1.00
C193   C     0.41088   0.88126   0.19025   0.00000  Uiso   1.00
C194   C     0.08911   0.78540   0.14308   0.00000  Uiso   1.00
C195   C     0.38338   0.83522   0.16539   0.00000  Uiso   1.00
C196   C     0.11662   0.83145   0.16794   0.00000  Uiso   1.00
C197   C     0.40144   0.78946   0.14021   0.00000  Uiso   1.00
C198   C     0.09856   0.87720   0.19312   0.00000  Uiso   1.00
C199   C     0.44794   0.78793   0.14047   0.00000  Uiso   1.00
C200   C     0.05206   0.87873   0.19286   0.00000  Uiso   1.00
C201   C     0.47645   0.83379   0.16620   0.00000  Uiso   1.00
C202   C     0.02355   0.83287   0.16713   0.00000  Uiso   1.00
C203   C     0.45790   0.88061   0.19095   0.00000  Uiso   1.00
C204   C     0.04210   0.78606   0.14239   0.00000  Uiso   1.00
C205   C     0.46671   0.74169   0.11611   0.00000  Uiso   1.00
C206   C     0.03329   0.92498   0.21723   0.00000  Uiso   1.00
Cu207  Cu    0.25500   0.83913   0.22813   0.00000  Uiso   1.00
Cu208  Cu    0.24499   0.82754   0.10521   0.00000  Uiso   1.00
H209   H     0.37864   0.75509   0.12145   0.00000  Uiso   1.00
H210   H     0.12136   0.91158   0.21188   0.00000  Uiso   1.00
H211   H     0.02612   0.70492   0.09803   0.00000  Uiso   1.00
H212   H     0.47388   0.96174   0.23531   0.00000  Uiso   1.00
N213   N     0.23744   0.81881   0.01284   0.00000  Uiso   1.00
N214   N     0.26255   0.84786   0.32049   0.00000  Uiso   1.00
O215   O     0.25325   0.76204   0.20659   0.00000  Uiso   1.00
O216   O     0.24674   0.90462   0.12674   0.00000  Uiso   1.00
O217   O     0.24480   0.75226   0.10279   0.00000  Uiso   1.00
O218   O     0.25520   0.91441   0.23055   0.00000  Uiso   1.00
O219   O     0.18935   0.83821   0.21857   0.00000  Uiso   1.00
O220   O     0.31064   0.82845   0.11476   0.00000  Uiso   1.00
O221   O     0.18090   0.82843   0.11477   0.00000  Uiso   1.00
O222   O     0.31910   0.83824   0.21857   0.00000  Uiso   1.00
I223   I     0.37997   0.95119   0.22380   0.00000  Uiso   1.00
I224   I     0.12003   0.71547   0.10953   0.00000  Uiso   1.00
I225   I     0.42822   0.67007   0.07608   0.00000  Uiso   1.00
I226   I     0.07178   0.99659   0.25726   0.00000  Uiso   1.00
I227   I     0.29111   0.98611   0.07029   0.00000  Uiso   1.00
I228   I     0.20889   0.68055   0.26305   0.00000  Uiso   1.00
I229   I     0.16827   0.80292   0.31918   0.00000  Uiso   1.00
I230   I     0.33173   0.86374   0.01416   0.00000  Uiso   1.00
C231   C     0.74864   0.73384   0.15190   0.00000  Uiso   1.00
C232   C     0.75135   0.93283   0.18143   0.00000  Uiso   1.00
C233   C     0.51320   0.74115   0.11733   0.00000  Uiso   1.00
C234   C     0.98680   0.92552   0.21601   0.00000  Uiso   1.00
C235   C     0.75510   0.67980   0.14534   0.00000  Uiso   1.00
C236   C     0.74490   0.98686   0.18800   0.00000  Uiso   1.00
C237   C     0.66484   0.83282   0.16708   0.00000  Uiso   1.00
C238   C     0.83516   0.83384   0.16625   0.00000  Uiso   1.00
C239   C     0.91088   0.88126   0.19025   0.00000  Uiso   1.00
C240   C     0.58911   0.78540   0.14308   0.00000  Uiso   1.00
C241   C     0.88338   0.83522   0.16539   0.00000  Uiso   1.00
C242   C     0.61662   0.83145   0.16794   0.00000  Uiso   1.00
C243   C     0.90144   0.78946   0.14021   0.00000  Uiso   1.00
C244   C     0.59856   0.87720   0.19312   0.00000  Uiso   1.00
C245   C     0.94794   0.78793   0.14047   0.00000  Uiso   1.00
C246   C     0.55206   0.87873   0.19286   0.00000  Uiso   1.00
C247   C     0.97645   0.83379   0.16620   0.00000  Uiso   1.00
C248   C     0.52355   0.83287   0.16713   0.00000  Uiso   1.00
C249   C     0.95790   0.88061   0.19095   0.00000  Uiso   1.00
C250   C     0.54210   0.78606   0.14239   0.00000  Uiso   1.00
C251   C     0.96671   0.74169   0.11611   0.00000  Uiso   1.00
C252   C     0.53329   0.92498   0.21723   0.00000  Uiso   1.00
Cu253  Cu    0.75500   0.83913   0.22813   0.00000  Uiso   1.00
Cu254  Cu    0.74499   0.82754   0.10521   0.00000  Uiso   1.00
H255   H     0.87864   0.75509   0.12145   0.00000  Uiso   1.00
H256   H     0.62136   0.91158   0.21188   0.00000  Uiso   1.00
H257   H     0.52612   0.70492   0.09803   0.00000  Uiso   1.00
H258   H     0.97388   0.96174   0.23531   0.00000  Uiso   1.00
N259   N     0.73744   0.81881   0.01284   0.00000  Uiso   1.00
N260   N     0.76255   0.84786   0.32049   0.00000  Uiso   1.00
O261   O     0.75325   0.76204   0.20659   0.00000  Uiso   1.00
O262   O     0.74674   0.90462   0.12674   0.00000  Uiso   1.00
O263   O     0.74480   0.75226   0.10279   0.00000  Uiso   1.00
O264   O     0.75520   0.91441   0.23055   0.00000  Uiso   1.00
O265   O     0.68935   0.83821   0.21857   0.00000  Uiso   1.00
O266   O     0.81064   0.82845   0.11476   0.00000  Uiso   1.00
O267   O     0.68090   0.82843   0.11477   0.00000  Uiso   1.00
O268   O     0.81910   0.83824   0.21857   0.00000  Uiso   1.00
I269   I     0.87997   0.95119   0.22380   0.00000  Uiso   1.00
I270   I     0.62003   0.71547   0.10953   0.00000  Uiso   1.00
I271   I     0.92822   0.67007   0.07608   0.00000  Uiso   1.00
I272   I     0.57178   0.99659   0.25726   0.00000  Uiso   1.00
I273   I     0.79111   0.98611   0.07029   0.00000  Uiso   1.00
I274   I     0.70889   0.68055   0.26305   0.00000  Uiso   1.00
I275   I     0.66827   0.80292   0.31918   0.00000  Uiso   1.00
I276   I     0.83173   0.86374   0.01416   0.00000  Uiso   1.00
C277   C     0.24864   0.06717   0.48524   0.00000  Uiso   1.00
C278   C     0.25135   0.26616   0.51476   0.00000  Uiso   1.00
C279   C     0.01320   0.07448   0.45067   0.00000  Uiso   1.00
C280   C     0.48680   0.25885   0.54934   0.00000  Uiso   1.00
C281   C     0.25510   0.01314   0.47867   0.00000  Uiso   1.00
C282   C     0.24490   0.32020   0.52133   0.00000  Uiso   1.00
C283   C     0.16484   0.16616   0.50042   0.00000  Uiso   1.00
C284   C     0.33516   0.16718   0.49958   0.00000  Uiso   1.00
C285   C     0.41088   0.21460   0.52359   0.00000  Uiso   1.00
C286   C     0.08911   0.11874   0.47641   0.00000  Uiso   1.00
C287   C     0.38338   0.16855   0.49872   0.00000  Uiso   1.00
C288   C     0.11662   0.16478   0.50128   0.00000  Uiso   1.00
C289   C     0.40144   0.12280   0.47355   0.00000  Uiso   1.00
C290   C     0.09856   0.21053   0.52645   0.00000  Uiso   1.00
C291   C     0.44794   0.12127   0.47381   0.00000  Uiso   1.00
C292   C     0.05206   0.21207   0.52620   0.00000  Uiso   1.00
C293   C     0.47645   0.16713   0.49954   0.00000  Uiso   1.00
C294   C     0.02355   0.16621   0.50047   0.00000  Uiso   1.00
C295   C     0.45790   0.21394   0.52428   0.00000  Uiso   1.00
C296   C     0.04210   0.11939   0.47572   0.00000  Uiso   1.00
C297   C     0.46671   0.07502   0.44944   0.00000  Uiso   1.00
C298   C     0.03329   0.25831   0.55057   0.00000  Uiso   1.00
Cu299  Cu    0.25500   0.17246   0.56146   0.00000  Uiso   1.00
Cu300  Cu    0.24499   0.16087   0.43854   0.00000  Uiso   1.00
H301   H     0.37864   0.08842   0.45479   0.00000  Uiso   1.00
H302   H     0.12136   0.24491   0.54521   0.00000  Uiso   1.00
H303   H     0.02612   0.03826   0.43136   0.00000  Uiso   1.00
H304   H     0.47388   0.29507   0.56864   0.00000  Uiso   1.00
N305   N     0.23744   0.15214   0.34617   0.00000  Uiso   1.00
N306   N     0.26255   0.18119   0.65383   0.00000  Uiso   1.00
O307   O     0.25325   0.09538   0.53992   0.00000  Uiso   1.00
O308   O     0.24674   0.23796   0.46008   0.00000  Uiso   1.00
O309   O     0.24480   0.08559   0.43612   0.00000  Uiso   1.00
O310   O     0.25520   0.24774   0.56388   0.00000  Uiso   1.00
O311   O     0.18935   0.17155   0.55191   0.00000  Uiso   1.00
O312   O     0.31064   0.16179   0.44809   0.00000  Uiso   1.00
O313   O     0.18090   0.16176   0.44810   0.00000  Uiso   1.00
O314   O     0.31910   0.17157   0.55190   0.00000  Uiso   1.00
I315   I     0.37997   0.28453   0.55714   0.00000  Uiso   1.00
I316   I     0.12003   0.04881   0.44286   0.00000  Uiso   1.00
I317   I     0.42822   0.00340   0.40941   0.00000  Uiso   1.00
I318   I     0.07178   0.32993   0.59060   0.00000  Uiso   1.00
I319   I     0.29111   0.31945   0.40362   0.00000  Uiso   1.00
I320   I     0.20889   0.01389   0.59638   0.00000  Uiso   1.00
I321   I     0.16827   0.13626   0.65251   0.00000  Uiso   1.00
I322   I     0.33173   0.19708   0.34749   0.00000  Uiso   1.00
C323   C     0.74864   0.06717   0.48524   0.00000  Uiso   1.00
C324   C     0.75135   0.26616   0.51476   0.00000  Uiso   1.00
C325   C     0.51320   0.07448   0.45067   0.00000  Uiso   1.00
C326   C     0.98680   0.25885   0.54934   0.00000  Uiso   1.00
C327   C     0.75510   0.01314   0.47867   0.00000  Uiso   1.00
C328   C     0.74490   0.32020   0.52133   0.00000  Uiso   1.00
C329   C     0.66484   0.16616   0.50042   0.00000  Uiso   1.00
C330   C     0.83516   0.16718   0.49958   0.00000  Uiso   1.00
C331   C     0.91088   0.21460   0.52359   0.00000  Uiso   1.00
C332   C     0.58911   0.11874   0.47641   0.00000  Uiso   1.00
C333   C     0.88338   0.16855   0.49872   0.00000  Uiso   1.00
C334   C     0.61662   0.16478   0.50128   0.00000  Uiso   1.00
C335   C     0.90144   0.12280   0.47355   0.00000  Uiso   1.00
C336   C     0.59856   0.21053   0.52645   0.00000  Uiso   1.00
C337   C     0.94794   0.12127   0.47381   0.00000  Uiso   1.00
C338   C     0.55206   0.21207   0.52620   0.00000  Uiso   1.00
C339   C     0.97645   0.16713   0.49954   0.00000  Uiso   1.00
C340   C     0.52355   0.16621   0.50047   0.00000  Uiso   1.00
C341   C     0.95790   0.21394   0.52428   0.00000  Uiso   1.00
C342   C     0.54210   0.11939   0.47572   0.00000  Uiso   1.00
C343   C     0.96671   0.07502   0.44944   0.00000  Uiso   1.00
C344   C     0.53329   0.25831   0.55057   0.00000  Uiso   1.00
Cu345  Cu    0.75500   0.17246   0.56146   0.00000  Uiso   1.00
Cu346  Cu    0.74499   0.16087   0.43854   0.00000  Uiso   1.00
H347   H     0.87864   0.08842   0.45479   0.00000  Uiso   1.00
H348   H     0.62136   0.24491   0.54521   0.00000  Uiso   1.00
H349   H     0.52612   0.03826   0.43136   0.00000  Uiso   1.00
H350   H     0.97388   0.29507   0.56864   0.00000  Uiso   1.00
N351   N     0.73744   0.15214   0.34617   0.00000  Uiso   1.00
N352   N     0.76255   0.18119   0.65383   0.00000  Uiso   1.00
O353   O     0.75325   0.09538   0.53992   0.00000  Uiso   1.00
O354   O     0.74674   0.23796   0.46008   0.00000  Uiso   1.00
O355   O     0.74480   0.08559   0.43612   0.00000  Uiso   1.00
O356   O     0.75520   0.24774   0.56388   0.00000  Uiso   1.00
O357   O     0.68935   0.17155   0.55191   0.00000  Uiso   1.00
O358   O     0.81064   0.16179   0.44809   0.00000  Uiso   1.00
O359   O     0.68090   0.16176   0.44810   0.00000  Uiso   1.00
O360   O     0.81910   0.17157   0.55190   0.00000  Uiso   1.00
I361   I     0.87997   0.28453   0.55714   0.00000  Uiso   1.00
I362   I     0.62003   0.04881   0.44286   0.00000  Uiso   1.00
I363   I     0.92822   0.00340   0.40941   0.00000  Uiso   1.00
I364   I     0.57178   0.32993   0.59060   0.00000  Uiso   1.00
I365   I     0.79111   0.31945   0.40362   0.00000  Uiso   1.00
I366   I     0.70889   0.01389   0.59638   0.00000  Uiso   1.00
I367   I     0.66827   0.13626   0.65251   0.00000  Uiso   1.00
I368   I     0.83173   0.19708   0.34749   0.00000  Uiso   1.00
C369   C     0.24864   0.40050   0.48524   0.00000  Uiso   1.00
C370   C     0.25135   0.59950   0.51476   0.00000  Uiso   1.00
C371   C     0.01320   0.40781   0.45067   0.00000  Uiso   1.00
C372   C     0.48680   0.59218   0.54934   0.00000  Uiso   1.00
C373   C     0.25510   0.34647   0.47867   0.00000  Uiso   1.00
C374   C     0.24490   0.65353   0.52133   0.00000  Uiso   1.00
C375   C     0.16484   0.49949   0.50042   0.00000  Uiso   1.00
C376   C     0.33516   0.50051   0.49958   0.00000  Uiso   1.00
C377   C     0.41088   0.54793   0.52359   0.00000  Uiso   1.00
C378   C     0.08911   0.45207   0.47641   0.00000  Uiso   1.00
C379   C     0.38338   0.50188   0.49872   0.00000  Uiso   1.00
C380   C     0.11662   0.49812   0.50128   0.00000  Uiso   1.00
C381   C     0.40144   0.45613   0.47355   0.00000  Uiso   1.00
C382   C     0.09856   0.54387   0.52645   0.00000  Uiso   1.00
C383   C     0.44794   0.45460   0.47381   0.00000  Uiso   1.00
C384   C     0.05206   0.54540   0.52620   0.00000  Uiso   1.00
C385   C     0.47645   0.50046   0.49954   0.00000  Uiso   1.00
C386   C     0.02355   0.49954   0.50047   0.00000  Uiso   1.00
C387   C     0.45790   0.54727   0.52428   0.00000  Uiso   1.00
C388   C     0.04210   0.45272   0.47572   0.00000  Uiso   1.00
C389   C     0.46671   0.40835   0.44944   0.00000  Uiso   1.00
C390   C     0.03329   0.59164   0.55057   0.00000  Uiso   1.00
Cu391  Cu    0.25500   0.50579   0.56146   0.00000  Uiso   1.00
Cu392  Cu    0.24499   0.49421   0.43854   0.00000  Uiso   1.00
H393   H     0.37864   0.42175   0.45479   0.00000  Uiso   1.00
H394   H     0.12136   0.57824   0.54521   0.00000  Uiso   1.00
H395   H     0.02612   0.37159   0.43136   0.00000  Uiso   1.00
H396   H     0.47388   0.62841   0.56864   0.00000  Uiso   1.00
N397   N     0.23744   0.48547   0.34617   0.00000  Uiso   1.00
N398   N     0.26255   0.51453   0.65383   0.00000  Uiso   1.00
O399   O     0.25325   0.42871   0.53992   0.00000  Uiso   1.00
O400   O     0.24674   0.57129   0.46008   0.00000  Uiso   1.00
O401   O     0.24480   0.41892   0.43612   0.00000  Uiso   1.00
O402   O     0.25520   0.58108   0.56388   0.00000  Uiso   1.00
O403   O     0.18935   0.50488   0.55191   0.00000  Uiso   1.00
O404   O     0.31064   0.49512   0.44809   0.00000  Uiso   1.00
O405   O     0.18090   0.49510   0.44810   0.00000  Uiso   1.00
O406   O     0.31910   0.50490   0.55190   0.00000  Uiso   1.00
I407   I     0.37997   0.61786   0.55714   0.00000  Uiso   1.00
I408   I     0.12003   0.38214   0.44286   0.00000  Uiso   1.00
I409   I     0.42822   0.33674   0.40941   0.00000  Uiso   1.00
I410   I     0.07178   0.66326   0.59060   0.00000  Uiso   1.00
I411   I     0.29111   0.65278   0.40362   0.00000  Uiso   1.00
I412   I     0.20889   0.34722   0.59638   0.00000  Uiso   1.00
I413   I     0.16827   0.46959   0.65251   0.00000  Uiso   1.00
I414   I     0.33173   0.53041   0.34749   0.00000  Uiso   1.00
C415   C     0.74864   0.40050   0.48524   0.00000  Uiso   1.00
C416   C     0.75135   0.59950   0.51476   0.00000  Uiso   1.00
C417   C     0.51320   0.40781   0.45067   0.00000  Uiso   1.00
C418   C     0.98680   0.59218   0.54934   0.00000  Uiso   1.00
C419   C     0.75510   0.34647   0.47867   0.00000  Uiso   1.00
C420   C     0.74490   0.65353   0.52133   0.00000  Uiso   1.00
C421   C     0.66484   0.49949   0.50042   0.00000  Uiso   1.00
C422   C     0.83516   0.50051   0.49958   0.00000  Uiso   1.00
C423   C     0.91088   0.54793   0.52359   0.00000  Uiso   1.00
C424   C     0.58911   0.45207   0.47641   0.00000  Uiso   1.00
C425   C     0.88338   0.50188   0.49872   0.00000  Uiso   1.00
C426   C     0.61662   0.49812   0.50128   0.00000  Uiso   1.00
C427   C     0.90144   0.45613   0.47355   0.00000  Uiso   1.00
C428   C     0.59856   0.54387   0.52645   0.00000  Uiso   1.00
C429   C     0.94794   0.45460   0.47381   0.00000  Uiso   1.00
C430   C     0.55206   0.54540   0.52620   0.00000  Uiso   1.00
C431   C     0.97645   0.50046   0.49954   0.00000  Uiso   1.00
C432   C     0.52355   0.49954   0.50047   0.00000  Uiso   1.00
C433   C     0.95790   0.54727   0.52428   0.00000  Uiso   1.00
C434   C     0.54210   0.45272   0.47572   0.00000  Uiso   1.00
C435   C     0.96671   0.40835   0.44944   0.00000  Uiso   1.00
C436   C     0.53329   0.59164   0.55057   0.00000  Uiso   1.00
Cu437  Cu    0.75500   0.50579   0.56146   0.00000  Uiso   1.00
Cu438  Cu    0.74499   0.49421   0.43854   0.00000  Uiso   1.00
H439   H     0.87864   0.42175   0.45479   0.00000  Uiso   1.00
H440   H     0.62136   0.57824   0.54521   0.00000  Uiso   1.00
H441   H     0.52612   0.37159   0.43136   0.00000  Uiso   1.00
H442   H     0.97388   0.62841   0.56864   0.00000  Uiso   1.00
N443   N     0.73744   0.48547   0.34617   0.00000  Uiso   1.00
N444   N     0.76255   0.51453   0.65383   0.00000  Uiso   1.00
O445   O     0.75325   0.42871   0.53992   0.00000  Uiso   1.00
O446   O     0.74674   0.57129   0.46008   0.00000  Uiso   1.00
O447   O     0.74480   0.41892   0.43612   0.00000  Uiso   1.00
O448   O     0.75520   0.58108   0.56388   0.00000  Uiso   1.00
O449   O     0.68935   0.50488   0.55191   0.00000  Uiso   1.00
O450   O     0.81064   0.49512   0.44809   0.00000  Uiso   1.00
O451   O     0.68090   0.49510   0.44810   0.00000  Uiso   1.00
O452   O     0.81910   0.50490   0.55190   0.00000  Uiso   1.00
I453   I     0.87997   0.61786   0.55714   0.00000  Uiso   1.00
I454   I     0.62003   0.38214   0.44286   0.00000  Uiso   1.00
I455   I     0.92822   0.33674   0.40941   0.00000  Uiso   1.00
I456   I     0.57178   0.66326   0.59060   0.00000  Uiso   1.00
I457   I     0.79111   0.65278   0.40362   0.00000  Uiso   1.00
I458   I     0.70889   0.34722   0.59638   0.00000  Uiso   1.00
I459   I     0.66827   0.46959   0.65251   0.00000  Uiso   1.00
I460   I     0.83173   0.53041   0.34749   0.00000  Uiso   1.00
C461   C     0.24864   0.73384   0.48524   0.00000  Uiso   1.00
C462   C     0.25135   0.93283   0.51476   0.00000  Uiso   1.00
C463   C     0.01320   0.74115   0.45067   0.00000  Uiso   1.00
C464   C     0.48680   0.92552   0.54934   0.00000  Uiso   1.00
C465   C     0.25510   0.67980   0.47867   0.00000  Uiso   1.00
C466   C     0.24490   0.98686   0.52133   0.00000  Uiso   1.00
C467   C     0.16484   0.83282   0.50042   0.00000  Uiso   1.00
C468   C     0.33516   0.83384   0.49958   0.00000  Uiso   1.00
C469   C     0.41088   0.88126   0.52359   0.00000  Uiso   1.00
C470   C     0.08911   0.78540   0.47641   0.00000  Uiso   1.00
C471   C     0.38338   0.83522   0.49872   0.00000  Uiso   1.00
C472   C     0.11662   0.83145   0.50128   0.00000  Uiso   1.00
C473   C     0.40144   0.78946   0.47355   0.00000  Uiso   1.00
C474   C     0.09856   0.87720   0.52645   0.00000  Uiso   1.00
C475   C     0.44794   0.78793   0.47381   0.00000  Uiso   1.00
C476   C     0.05206   0.87873   0.52620   0.00000  Uiso   1.00
C477   C     0.47645   0.83379   0.49954   0.00000  Uiso   1.00
C478   C     0.02355   0.83287   0.50047   0.00000  Uiso   1.00
C479   C     0.45790   0.88061   0.52428   0.00000  Uiso   1.00
C480   C     0.04210   0.78606   0.47572   0.00000  Uiso   1.00
C481   C     0.46671   0.74169   0.44944   0.00000  Uiso   1.00
C482   C     0.03329   0.92498   0.55057   0.00000  Uiso   1.00
Cu483  Cu    0.25500   0.83913   0.56146   0.00000  Uiso   1.00
Cu484  Cu    0.24499   0.82754   0.43854   0.00000  Uiso   1.00
H485   H     0.37864   0.75509   0.45479   0.00000  Uiso   1.00
H486   H     0.12136   0.91158   0.54521   0.00000  Uiso   1.00
H487   H     0.02612   0.70492   0.43136   0.00000  Uiso   1.00
H488   H     0.47388   0.96174   0.56864   0.00000  Uiso   1.00
N489   N     0.23744   0.81881   0.34617   0.00000  Uiso   1.00
N490   N     0.26255   0.84786   0.65383   0.00000  Uiso   1.00
O491   O     0.25325   0.76204   0.53992   0.00000  Uiso   1.00
O492   O     0.24674   0.90462   0.46008   0.00000  Uiso   1.00
O493   O     0.24480   0.75226   0.43612   0.00000  Uiso   1.00
O494   O     0.25520   0.91441   0.56388   0.00000  Uiso   1.00
O495   O     0.18935   0.83821   0.55191   0.00000  Uiso   1.00
O496   O     0.31064   0.82845   0.44809   0.00000  Uiso   1.00
O497   O     0.18090   0.82843   0.44810   0.00000  Uiso   1.00
O498   O     0.31910   0.83824   0.55190   0.00000  Uiso   1.00
I499   I     0.37997   0.95119   0.55714   0.00000  Uiso   1.00
I500   I     0.12003   0.71547   0.44286   0.00000  Uiso   1.00
I501   I     0.42822   0.67007   0.40941   0.00000  Uiso   1.00
I502   I     0.07178   0.99659   0.59060   0.00000  Uiso   1.00
I503   I     0.29111   0.98611   0.40362   0.00000  Uiso   1.00
I504   I     0.20889   0.68055   0.59638   0.00000  Uiso   1.00
I505   I     0.16827   0.80292   0.65251   0.00000  Uiso   1.00
I506   I     0.33173   0.86374   0.34749   0.00000  Uiso   1.00
C507   C     0.74864   0.73384   0.48524   0.00000  Uiso   1.00
C508   C     0.75135   0.93283   0.51476   0.00000  Uiso   1.00
C509   C     0.51320   0.74115   0.45067   0.00000  Uiso   1.00
C510   C     0.98680   0.92552   0.54934   0.00000  Uiso   1.00
C511   C     0.75510   0.67980   0.47867   0.00000  Uiso   1.00
C512   C     0.74490   0.98686   0.52133   0.00000  Uiso   1.00
C513   C     0.66484   0.83282   0.50042   0.00000  Uiso   1.00
C514   C     0.83516   0.83384   0.49958   0.00000  Uiso   1.00
C515   C     0.91088   0.88126   0.52359   0.00000  Uiso   1.00
C516   C     0.58911   0.78540   0.47641   0.00000  Uiso   1.00
C517   C     0.88338   0.83522   0.49872   0.00000  Uiso   1.00
C518   C     0.61662   0.83145   0.50128   0.00000  Uiso   1.00
C519   C     0.90144   0.78946   0.47355   0.00000  Uiso   1.00
C520   C     0.59856   0.87720   0.52645   0.00000  Uiso   1.00
C521   C     0.94794   0.78793   0.47381   0.00000  Uiso   1.00
C522   C     0.55206   0.87873   0.52620   0.00000  Uiso   1.00
C523   C     0.97645   0.83379   0.49954   0.00000  Uiso   1.00
C524   C     0.52355   0.83287   0.50047   0.00000  Uiso   1.00
C525   C     0.95790   0.88061   0.52428   0.00000  Uiso   1.00
C526   C     0.54210   0.78606   0.47572   0.00000  Uiso   1.00
C527   C     0.96671   0.74169   0.44944   0.00000  Uiso   1.00
C528   C     0.53329   0.92498   0.55057   0.00000  Uiso   1.00
Cu529  Cu    0.75500   0.83913   0.56146   0.00000  Uiso   1.00
Cu530  Cu    0.74499   0.82754   0.43854   0.00000  Uiso   1.00
H531   H     0.87864   0.75509   0.45479   0.00000  Uiso   1.00
H532   H     0.62136   0.91158   0.54521   0.00000  Uiso   1.00
H533   H     0.52612   0.70492   0.43136   0.00000  Uiso   1.00
H534   H     0.97388   0.96174   0.56864   0.00000  Uiso   1.00
N535   N     0.73744   0.81881   0.34617   0.00000  Uiso   1.00
N536   N     0.76255   0.84786   0.65383   0.00000  Uiso   1.00
O537   O     0.75325   0.76204   0.53992   0.00000  Uiso   1.00
O538   O     0.74674   0.90462   0.46008   0.00000  Uiso   1.00
O539   O     0.74480   0.75226   0.43612   0.00000  Uiso   1.00
O540   O     0.75520   0.91441   0.56388   0.00000  Uiso   1.00
O541   O     0.68935   0.83821   0.55191   0.00000  Uiso   1.00
O542   O     0.81064   0.82845   0.44809   0.00000  Uiso   1.00
O543   O     0.68090   0.82843   0.44810   0.00000  Uiso   1.00
O544   O     0.81910   0.83824   0.55190   0.00000  Uiso   1.00
I545   I     0.87997   0.95119   0.55714   0.00000  Uiso   1.00
I546   I     0.62003   0.71547   0.44286   0.00000  Uiso   1.00
I547   I     0.92822   0.67007   0.40941   0.00000  Uiso   1.00
I548   I     0.57178   0.99659   0.59060   0.00000  Uiso   1.00
I549   I     0.79111   0.98611   0.40362   0.00000  Uiso   1.00
I550   I     0.70889   0.68055   0.59638   0.00000  Uiso   1.00
I551   I     0.66827   0.80292   0.65251   0.00000  Uiso   1.00
I552   I     0.83173   0.86374   0.34749   0.00000  Uiso   1.00
C553   C     0.24864   0.06717   0.81857   0.00000  Uiso   1.00
C554   C     0.25135   0.26616   0.84810   0.00000  Uiso   1.00
C555   C     0.01320   0.07448   0.78400   0.00000  Uiso   1.00
C556   C     0.48680   0.25885   0.88267   0.00000  Uiso   1.00
C557   C     0.25510   0.01314   0.81200   0.00000  Uiso   1.00
C558   C     0.24490   0.32020   0.85466   0.00000  Uiso   1.00
C559   C     0.16484   0.16616   0.83375   0.00000  Uiso   1.00
C560   C     0.33516   0.16718   0.83292   0.00000  Uiso   1.00
C561   C     0.41088   0.21460   0.85692   0.00000  Uiso   1.00
C562   C     0.08911   0.11874   0.80975   0.00000  Uiso   1.00
C563   C     0.38338   0.16855   0.83206   0.00000  Uiso   1.00
C564   C     0.11662   0.16478   0.83461   0.00000  Uiso   1.00
C565   C     0.40144   0.12280   0.80688   0.00000  Uiso   1.00
C566   C     0.09856   0.21053   0.85979   0.00000  Uiso   1.00
C567   C     0.44794   0.12127   0.80714   0.00000  Uiso   1.00
C568   C     0.05206   0.21207   0.85953   0.00000  Uiso   1.00
C569   C     0.47645   0.16713   0.83287   0.00000  Uiso   1.00
C570   C     0.02355   0.16621   0.83380   0.00000  Uiso   1.00
C571   C     0.45790   0.21394   0.85762   0.00000  Uiso   1.00
C572   C     0.04210   0.11939   0.80905   0.00000  Uiso   1.00
C573   C     0.46671   0.07502   0.78277   0.00000  Uiso   1.00
C574   C     0.03329   0.25831   0.88390   0.00000  Uiso   1.00
Cu575  Cu    0.25500   0.17246   0.89479   0.00000  Uiso   1.00
Cu576  Cu    0.24499   0.16087   0.77187   0.00000  Uiso   1.00
H577   H     0.37864   0.08842   0.78812   0.00000  Uiso   1.00
H578   H     0.12136   0.24491   0.87855   0.00000  Uiso   1.00
H579   H     0.02612   0.03826   0.76470   0.00000  Uiso   1.00
H580   H     0.47388   0.29507   0.90198   0.00000  Uiso   1.00
N581   N     0.23744   0.15214   0.67951   0.00000  Uiso   1.00
N582   N     0.26255   0.18119   0.98716   0.00000  Uiso   1.00
O583   O     0.25325   0.09538   0.87326   0.00000  Uiso   1.00
O584   O     0.24674   0.23796   0.79341   0.00000  Uiso   1.00
O585   O     0.24480   0.08559   0.76945   0.00000  Uiso   1.00
O586   O     0.25520   0.24774   0.89721   0.00000  Uiso   1.00
O587   O     0.18935   0.17155   0.88524   0.00000  Uiso   1.00
O588   O     0.31064   0.16179   0.78143   0.00000  Uiso   1.00
O589   O     0.18090   0.16176   0.78143   0.00000  Uiso   1.00
O590   O     0.31910   0.17157   0.88523   0.00000  Uiso   1.00
I591   I     0.37997   0.28453   0.89047   0.00000  Uiso   1.00
I592   I     0.12003   0.04881   0.77619   0.00000  Uiso   1.00
I593   I     0.42822   0.00340   0.74274   0.00000  Uiso   1.00
I594   I     0.07178   0.32993   0.92393   0.00000  Uiso   1.00
I595   I     0.29111   0.31945   0.73695   0.00000  Uiso   1.00
I596   I     0.20889   0.01389   0.92971   0.00000  Uiso   1.00
I597   I     0.16827   0.13626   0.98584   0.00000  Uiso   1.00
I598   I     0.33173   0.19708   0.68082   0.00000  Uiso   1.00
C599   C     0.74864   0.06717   0.81857   0.00000  Uiso   1.00
C600   C     0.75135   0.26616   0.84810   0.00000  Uiso   1.00
C601   C     0.51320   0.07448   0.78400   0.00000  Uiso   1.00
C602   C     0.98680   0.25885   0.88267   0.00000  Uiso   1.00
C603   C     0.75510   0.01314   0.81200   0.00000  Uiso   1.00
C604   C     0.74490   0.32020   0.85466   0.00000  Uiso   1.00
C605   C     0.66484   0.16616   0.83375   0.00000  Uiso   1.00
C606   C     0.83516   0.16718   0.83292   0.00000  Uiso   1.00
C607   C     0.91088   0.21460   0.85692   0.00000  Uiso   1.00
C608   C     0.58911   0.11874   0.80975   0.00000  Uiso   1.00
C609   C     0.88338   0.16855   0.83206   0.00000  Uiso   1.00
C610   C     0.61662   0.16478   0.83461   0.00000  Uiso   1.00
C611   C     0.90144   0.12280   0.80688   0.00000  Uiso   1.00
C612   C     0.59856   0.21053   0.85979   0.00000  Uiso   1.00
C613   C     0.94794   0.12127   0.80714   0.00000  Uiso   1.00
C614   C     0.55206   0.21207   0.85953   0.00000  Uiso   1.00
C615   C     0.97645   0.16713   0.83287   0.00000  Uiso   1.00
C616   C     0.52355   0.16621   0.83380   0.00000  Uiso   1.00
C617   C     0.95790   0.21394   0.85762   0.00000  Uiso   1.00
C618   C     0.54210   0.11939   0.80905   0.00000  Uiso   1.00
C619   C     0.96671   0.07502   0.78277   0.00000  Uiso   1.00
C620   C     0.53329   0.25831   0.88390   0.00000  Uiso   1.00
Cu621  Cu    0.75500   0.17246   0.89479   0.00000  Uiso   1.00
Cu622  Cu    0.74499   0.16087   0.77187   0.00000  Uiso   1.00
H623   H     0.87864   0.08842   0.78812   0.00000  Uiso   1.00
H624   H     0.62136   0.24491   0.87855   0.00000  Uiso   1.00
H625   H     0.52612   0.03826   0.76470   0.00000  Uiso   1.00
H626   H     0.97388   0.29507   0.90198   0.00000  Uiso   1.00
N627   N     0.73744   0.15214   0.67951   0.00000  Uiso   1.00
N628   N     0.76255   0.18119   0.98716   0.00000  Uiso   1.00
O629   O     0.75325   0.09538   0.87326   0.00000  Uiso   1.00
O630   O     0.74674   0.23796   0.79341   0.00000  Uiso   1.00
O631   O     0.74480   0.08559   0.76945   0.00000  Uiso   1.00
O632   O     0.75520   0.24774   0.89721   0.00000  Uiso   1.00
O633   O     0.68935   0.17155   0.88524   0.00000  Uiso   1.00
O634   O     0.81064   0.16179   0.78143   0.00000  Uiso   1.00
O635   O     0.68090   0.16176   0.78143   0.00000  Uiso   1.00
O636   O     0.81910   0.17157   0.88523   0.00000  Uiso   1.00
I637   I     0.87997   0.28453   0.89047   0.00000  Uiso   1.00
I638   I     0.62003   0.04881   0.77619   0.00000  Uiso   1.00
I639   I     0.92822   0.00340   0.74274   0.00000  Uiso   1.00
I640   I     0.57178   0.32993   0.92393   0.00000  Uiso   1.00
I641   I     0.79111   0.31945   0.73695   0.00000  Uiso   1.00
I642   I     0.70889   0.01389   0.92971   0.00000  Uiso   1.00
I643   I     0.66827   0.13626   0.98584   0.00000  Uiso   1.00
I644   I     0.83173   0.19708   0.68082   0.00000  Uiso   1.00
C645   C     0.24864   0.40050   0.81857   0.00000  Uiso   1.00
C646   C     0.25135   0.59950   0.84810   0.00000  Uiso   1.00
C647   C     0.01320   0.40781   0.78400   0.00000  Uiso   1.00
C648   C     0.48680   0.59218   0.88267   0.00000  Uiso   1.00
C649   C     0.25510   0.34647   0.81200   0.00000  Uiso   1.00
C650   C     0.24490   0.65353   0.85466   0.00000  Uiso   1.00
C651   C     0.16484   0.49949   0.83375   0.00000  Uiso   1.00
C652   C     0.33516   0.50051   0.83292   0.00000  Uiso   1.00
C653   C     0.41088   0.54793   0.85692   0.00000  Uiso   1.00
C654   C     0.08911   0.45207   0.80975   0.00000  Uiso   1.00
C655   C     0.38338   0.50188   0.83206   0.00000  Uiso   1.00
C656   C     0.11662   0.49812   0.83461   0.00000  Uiso   1.00
C657   C     0.40144   0.45613   0.80688   0.00000  Uiso   1.00
C658   C     0.09856   0.54387   0.85979   0.00000  Uiso   1.00
C659   C     0.44794   0.45460   0.80714   0.00000  Uiso   1.00
C660   C     0.05206   0.54540   0.85953   0.00000  Uiso   1.00
C661   C     0.47645   0.50046   0.83287   0.00000  Uiso   1.00
C662   C     0.02355   0.49954   0.83380   0.00000  Uiso   1.00
C663   C     0.45790   0.54727   0.85762   0.00000  Uiso   1.00
C664   C     0.04210   0.45272   0.80905   0.00000  Uiso   1.00
C665   C     0.46671   0.40835   0.78277   0.00000  Uiso   1.00
C666   C     0.03329   0.59164   0.88390   0.00000  Uiso   1.00
Cu667  Cu    0.25500   0.50579   0.89479   0.00000  Uiso   1.00
Cu668  Cu    0.24499   0.49421   0.77187   0.00000  Uiso   1.00
H669   H     0.37864   0.42175   0.78812   0.00000  Uiso   1.00
H670   H     0.12136   0.57824   0.87855   0.00000  Uiso   1.00
H671   H     0.02612   0.37159   0.76470   0.00000  Uiso   1.00
H672   H     0.47388   0.62841   0.90198   0.00000  Uiso   1.00
N673   N     0.23744   0.48547   0.67951   0.00000  Uiso   1.00
N674   N     0.26255   0.51453   0.98716   0.00000  Uiso   1.00
O675   O     0.25325   0.42871   0.87326   0.00000  Uiso   1.00
O676   O     0.24674   0.57129   0.79341   0.00000  Uiso   1.00
O677   O     0.24480   0.41892   0.76945   0.00000  Uiso   1.00
O678   O     0.25520   0.58108   0.89721   0.00000  Uiso   1.00
O679   O     0.18935   0.50488   0.88524   0.00000  Uiso   1.00
O680   O     0.31064   0.49512   0.78143   0.00000  Uiso   1.00
O681   O     0.18090   0.49510   0.78143   0.00000  Uiso   1.00
O682   O     0.31910   0.50490   0.88523   0.00000  Uiso   1.00
I683   I     0.37997   0.61786   0.89047   0.00000  Uiso   1.00
I684   I     0.12003   0.38214   0.77619   0.00000  Uiso   1.00
I685   I     0.42822   0.33674   0.74274   0.00000  Uiso   1.00
I686   I     0.07178   0.66326   0.92393   0.00000  Uiso   1.00
I687   I     0.29111   0.65278   0.73695   0.00000  Uiso   1.00
I688   I     0.20889   0.34722   0.92971   0.00000  Uiso   1.00
I689   I     0.16827   0.46959   0.98584   0.00000  Uiso   1.00
I690   I     0.33173   0.53041   0.68082   0.00000  Uiso   1.00
C691   C     0.74864   0.40050   0.81857   0.00000  Uiso   1.00
C692   C     0.75135   0.59950   0.84810   0.00000  Uiso   1.00
C693   C     0.51320   0.40781   0.78400   0.00000  Uiso   1.00
C694   C     0.98680   0.59218   0.88267   0.00000  Uiso   1.00
C695   C     0.75510   0.34647   0.81200   0.00000  Uiso   1.00
C696   C     0.74490   0.65353   0.85466   0.00000  Uiso   1.00
C697   C     0.66484   0.49949   0.83375   0.00000  Uiso   1.00
C698   C     0.83516   0.50051   0.83292   0.00000  Uiso   1.00
C699   C     0.91088   0.54793   0.85692   0.00000  Uiso   1.00
C700   C     0.58911   0.45207   0.80975   0.00000  Uiso   1.00
C701   C     0.88338   0.50188   0.83206   0.00000  Uiso   1.00
C702   C     0.61662   0.49812   0.83461   0.00000  Uiso   1.00
C703   C     0.90144   0.45613   0.80688   0.00000  Uiso   1.00
C704   C     0.59856   0.54387   0.85979   0.00000  Uiso   1.00
C705   C     0.94794   0.45460   0.80714   0.00000  Uiso   1.00
C706   C     0.55206   0.54540   0.85953   0.00000  Uiso   1.00
C707   C     0.97645   0.50046   0.83287   0.00000  Uiso   1.00
C708   C     0.52355   0.49954   0.83380   0.00000  Uiso   1.00
C709   C     0.95790   0.54727   0.85762   0.00000  Uiso   1.00
C710   C     0.54210   0.45272   0.80905   0.00000  Uiso   1.00
C711   C     0.96671   0.40835   0.78277   0.00000  Uiso   1.00
C712   C     0.53329   0.59164   0.88390   0.00000  Uiso   1.00
Cu713  Cu    0.75500   0.50579   0.89479   0.00000  Uiso   1.00
Cu714  Cu    0.74499   0.49421   0.77187   0.00000  Uiso   1.00
H715   H     0.87864   0.42175   0.78812   0.00000  Uiso   1.00
H716   H     0.62136   0.57824   0.87855   0.00000  Uiso   1.00
H717   H     0.52612   0.37159   0.76470   0.00000  Uiso   1.00
H718   H     0.97388   0.62841   0.90198   0.00000  Uiso   1.00
N719   N     0.73744   0.48547   0.67951   0.00000  Uiso   1.00
N720   N     0.76255   0.51453   0.98716   0.00000  Uiso   1.00
O721   O     0.75325   0.42871   0.87326   0.00000  Uiso   1.00
O722   O     0.74674   0.57129   0.79341   0.00000  Uiso   1.00
O723   O     0.74480   0.41892   0.76945   0.00000  Uiso   1.00
O724   O     0.75520   0.58108   0.89721   0.00000  Uiso   1.00
O725   O     0.68935   0.50488   0.88524   0.00000  Uiso   1.00
O726   O     0.81064   0.49512   0.78143   0.00000  Uiso   1.00
O727   O     0.68090   0.49510   0.78143   0.00000  Uiso   1.00
O728   O     0.81910   0.50490   0.88523   0.00000  Uiso   1.00
I729   I     0.87997   0.61786   0.89047   0.00000  Uiso   1.00
I730   I     0.62003   0.38214   0.77619   0.00000  Uiso   1.00
I731   I     0.92822   0.33674   0.74274   0.00000  Uiso   1.00
I732   I     0.57178   0.66326   0.92393   0.00000  Uiso   1.00
I733   I     0.79111   0.65278   0.73695   0.00000  Uiso   1.00
I734   I     0.70889   0.34722   0.92971   0.00000  Uiso   1.00
I735   I     0.66827   0.46959   0.98584   0.00000  Uiso   1.00
I736   I     0.83173   0.53041   0.68082   0.00000  Uiso   1.00
C737   C     0.24864   0.73384   0.81857   0.00000  Uiso   1.00
C738   C     0.25135   0.93283   0.84810   0.00000  Uiso   1.00
C739   C     0.01320   0.74115   0.78400   0.00000  Uiso   1.00
C740   C     0.48680   0.92552   0.88267   0.00000  Uiso   1.00
C741   C     0.25510   0.67980   0.81200   0.00000  Uiso   1.00
C742   C     0.24490   0.98686   0.85466   0.00000  Uiso   1.00
C743   C     0.16484   0.83282   0.83375   0.00000  Uiso   1.00
C744   C     0.33516   0.83384   0.83292   0.00000  Uiso   1.00
C745   C     0.41088   0.88126   0.85692   0.00000  Uiso   1.00
C746   C     0.08911   0.78540   0.80975   0.00000  Uiso   1.00
C747   C     0.38338   0.83522   0.83206   0.00000  Uiso   1.00
C748   C     0.11662   0.83145   0.83461   0.00000  Uiso   1.00
C749   C     0.40144   0.78946   0.80688   0.00000  Uiso   1.00
C750   C     0.09856   0.87720   0.85979   0.00000  Uiso   1.00
C751   C     0.44794   0.78793   0.80714   0.00000  Uiso   1.00
C752   C     0.05206   0.87873   0.85953   0.00000  Uiso   1.00
C753   C     0.47645   0.83379   0.83287   0.00000  Uiso   1.00
C754   C     0.02355   0.83287   0.83380   0.00000  Uiso   1.00
C755   C     0.45790   0.88061   0.85762   0.00000  Uiso   1.00
C756   C     0.04210   0.78606   0.80905   0.00000  Uiso   1.00
C757   C     0.46671   0.74169   0.78277   0.00000  Uiso   1.00
C758   C     0.03329   0.92498   0.88390   0.00000  Uiso   1.00
Cu759  Cu    0.25500   0.83913   0.89479   0.00000  Uiso   1.00
Cu760  Cu    0.24499   0.82754   0.77187   0.00000  Uiso   1.00
H761   H     0.37864   0.75509   0.78812   0.00000  Uiso   1.00
H762   H     0.12136   0.91158   0.87855   0.00000  Uiso   1.00
H763   H     0.02612   0.70492   0.76470   0.00000  Uiso   1.00
H764   H     0.47388   0.96174   0.90198   0.00000  Uiso   1.00
N765   N     0.23744   0.81881   0.67951   0.00000  Uiso   1.00
N766   N     0.26255   0.84786   0.98716   0.00000  Uiso   1.00
O767   O     0.25325   0.76204   0.87326   0.00000  Uiso   1.00
O768   O     0.24674   0.90462   0.79341   0.00000  Uiso   1.00
O769   O     0.24480   0.75226   0.76945   0.00000  Uiso   1.00
O770   O     0.25520   0.91441   0.89721   0.00000  Uiso   1.00
O771   O     0.18935   0.83821   0.88524   0.00000  Uiso   1.00
O772   O     0.31064   0.82845   0.78143   0.00000  Uiso   1.00
O773   O     0.18090   0.82843   0.78143   0.00000  Uiso   1.00
O774   O     0.31910   0.83824   0.88523   0.00000  Uiso   1.00
I775   I     0.37997   0.95119   0.89047   0.00000  Uiso   1.00
I776   I     0.12003   0.71547   0.77619   0.00000  Uiso   1.00
I777   I     0.42822   0.67007   0.74274   0.00000  Uiso   1.00
I778   I     0.07178   0.99659   0.92393   0.00000  Uiso   1.00
I779   I     0.29111   0.98611   0.73695   0.00000  Uiso   1.00
I780   I     0.20889   0.68055   0.92971   0.00000  Uiso   1.00
I781   I     0.16827   0.80292   0.98584   0.00000  Uiso   1.00
I782   I     0.33173   0.86374   0.68082   0.00000  Uiso   1.00
C783   C     0.74864   0.73384   0.81857   0.00000  Uiso   1.00
C784   C     0.75135   0.93283   0.84810   0.00000  Uiso   1.00
C785   C     0.51320   0.74115   0.78400   0.00000  Uiso   1.00
C786   C     0.98680   0.92552   0.88267   0.00000  Uiso   1.00
C787   C     0.75510   0.67980   0.81200   0.00000  Uiso   1.00
C788   C     0.74490   0.98686   0.85466   0.00000  Uiso   1.00
C789   C     0.66484   0.83282   0.83375   0.00000  Uiso   1.00
C790   C     0.83516   0.83384   0.83292   0.00000  Uiso   1.00
C791   C     0.91088   0.88126   0.85692   0.00000  Uiso   1.00
C792   C     0.58911   0.78540   0.80975   0.00000  Uiso   1.00
C793   C     0.88338   0.83522   0.83206   0.00000  Uiso   1.00
C794   C     0.61662   0.83145   0.83461   0.00000  Uiso   1.00
C795   C     0.90144   0.78946   0.80688   0.00000  Uiso   1.00
C796   C     0.59856   0.87720   0.85979   0.00000  Uiso   1.00
C797   C     0.94794   0.78793   0.80714   0.00000  Uiso   1.00
C798   C     0.55206   0.87873   0.85953   0.00000  Uiso   1.00
C799   C     0.97645   0.83379   0.83287   0.00000  Uiso   1.00
C800   C     0.52355   0.83287   0.83380   0.00000  Uiso   1.00
C801   C     0.95790   0.88061   0.85762   0.00000  Uiso   1.00
C802   C     0.54210   0.78606   0.80905   0.00000  Uiso   1.00
C803   C     0.96671   0.74169   0.78277   0.00000  Uiso   1.00
C804   C     0.53329   0.92498   0.88390   0.00000  Uiso   1.00
Cu805  Cu    0.75500   0.83913   0.89479   0.00000  Uiso   1.00
Cu806  Cu    0.74499   0.82754   0.77187   0.00000  Uiso   1.00
H807   H     0.87864   0.75509   0.78812   0.00000  Uiso   1.00
H808   H     0.62136   0.91158   0.87855   0.00000  Uiso   1.00
H809   H     0.52612   0.70492   0.76470   0.00000  Uiso   1.00
H810   H     0.97388   0.96174   0.90198   0.00000  Uiso   1.00
N811   N     0.73744   0.81881   0.67951   0.00000  Uiso   1.00
N812   N     0.76255   0.84786   0.98716   0.00000  Uiso   1.00
O813   O     0.75325   0.76204   0.87326   0.00000  Uiso   1.00
O814   O     0.74674   0.90462   0.79341   0.00000  Uiso   1.00
O815   O     0.74480   0.75226   0.76945   0.00000  Uiso   1.00
O816   O     0.75520   0.91441   0.89721   0.00000  Uiso   1.00
O817   O     0.68935   0.83821   0.88524   0.00000  Uiso   1.00
O818   O     0.81064   0.82845   0.78143   0.00000  Uiso   1.00
O819   O     0.68090   0.82843   0.78143   0.00000  Uiso   1.00
O820   O     0.81910   0.83824   0.88523   0.00000  Uiso   1.00
I821   I     0.87997   0.95119   0.89047   0.00000  Uiso   1.00
I822   I     0.62003   0.71547   0.77619   0.00000  Uiso   1.00
I823   I     0.92822   0.67007   0.74274   0.00000  Uiso   1.00
I824   I     0.57178   0.99659   0.92393   0.00000  Uiso   1.00
I825   I     0.79111   0.98611   0.73695   0.00000  Uiso   1.00
I826   I     0.70889   0.68055   0.92971   0.00000  Uiso   1.00
I827   I     0.66827   0.80292   0.98584   0.00000  Uiso   1.00
I828   I     0.83173   0.86374   0.68082   0.00000  Uiso   1.00
loop_
_geom_bond_atom_site_label_1
_geom_bond_atom_site_label_2
_geom_bond_distance
_geom_bond_site_symmetry_2
_ccdc_geom_bond_type
C1     O31     1.304   .     A
C1     O33     1.314   .     A
C1     C5      1.433   .     S
C2     O34     1.314   .     A
C2     O32     1.304   .     A
C2     C6      1.433   .     S
C3     H27     1.079   .     S
C3     C20     1.402   .     A
C3     C67     1.389   1_455 S
C4     H28     1.079   .     S
C4     C19     1.402   .     A
C4     C68     1.389   .     S
C5     C190    1.351   1_545 S
C5     I227    2.122   1_545 S
C6     C97     1.351   .     S
C6     I136    2.122   .     S
C7     O37     1.309   .     A
C7     C12     1.441   .     S
C7     O35     1.311   .     A
C8     O38     1.309   .     A
C8     C11     1.441   .     S
C8     O36     1.311   .     A
C9     C11     1.402   .     A
C9     I39     2.151   .     S
C9     C19     1.406   .     A
C10    C12     1.402   .     A
C10    I40     2.151   .     S
C10    C20     1.406   .     A
C11    C13     1.392   .     A
C12    C14     1.392   .     A
C13    H25     1.082   .     S
C13    C15     1.393   .     A
C14    H26     1.082   .     S
C14    C16     1.393   .     A
C15    C21     1.408   .     A
C15    C17     1.417   .     A
C16    C18     1.417   .     A
C16    C22     1.408   .     A
C17    C19     1.419   .     A
C17    C64     1.409   .     S
C18    C20     1.419   .     A
C18    C63     1.409   1_455 S
C21    I41     2.126   .     S
C21    C49     1.389   .     S
C22    I42     2.126   .     S
C22    C50     1.389   1_455 S
Cu23   Cu24    2.749   .     S
Cu23   O38     1.947   .     S
Cu23   O34     1.978   .     S
Cu23   O35     1.955   .     S
Cu23   N30     2.066   .     S
Cu23   O31     1.988   .     S
Cu24   O32     1.988   .     S
Cu24   O33     1.978   .     S
Cu24   O37     1.947   .     S
Cu24   O36     1.955   .     S
Cu24   N29     2.066   .     S
N29    N582    1.292   1_554 S
N29    I597    2.096   1_554 S
N30    N305    1.292   .     S
N30    I322    2.096   .     S
I43    C97     2.122   .     S
I44    C190    2.122   1_545 S
I45    N305    2.096   .     S
I46    N582    2.096   1_554 S
C47    O77     1.304   .     A
C47    O79     1.314   .     A
C47    C51     1.433   .     S
C48    O80     1.314   .     A
C48    O78     1.304   .     A
C48    C52     1.433   .     S
C49    H73     1.079   .     S
C49    C66     1.402   .     A
C50    H74     1.079   .     S
C50    C65     1.402   .     A
C50    C22     1.389   1_655 S
C51    C236    1.351   1_545 S
C51    I273    2.122   1_545 S
C52    C143    1.351   .     S
C52    I182    2.122   .     S
C53    O83     1.309   .     A
C53    C58     1.441   .     S
C53    O81     1.311   .     A
C54    O84     1.309   .     A
C54    C57     1.441   .     S
C54    O82     1.311   .     A
C55    C57     1.402   .     A
C55    I85     2.151   .     S
C55    C65     1.406   .     A
C56    C58     1.402   .     A
C56    I86     2.151   .     S
C56    C66     1.406   .     A
C57    C59     1.392   .     A
C58    C60     1.392   .     A
C59    H71     1.082   .     S
C59    C61     1.393   .     A
C60    H72     1.082   .     S
C60    C62     1.393   .     A
C61    C67     1.408   .     A
C61    C63     1.417   .     A
C62    C64     1.417   .     A
C62    C68     1.408   .     A
C63    C65     1.419   .     A
C63    C18     1.409   1_655 S
C64    C66     1.419   .     A
C67    I87     2.126   .     S
C67    C3      1.389   1_655 S
C68    I88     2.126   .     S
Cu69   Cu70    2.749   .     S
Cu69   O84     1.947   .     S
Cu69   O80     1.978   .     S
Cu69   O81     1.955   .     S
Cu69   N76     2.066   .     S
Cu69   O77     1.988   .     S
Cu70   O78     1.988   .     S
Cu70   O79     1.978   .     S
Cu70   O83     1.947   .     S
Cu70   O82     1.955   .     S
Cu70   N75     2.066   .     S
N75    N628    1.292   1_554 S
N75    I643    2.096   1_554 S
N76    N351    1.292   .     S
N76    I368    2.096   .     S
I89    C143    2.122   .     S
I90    C236    2.122   1_545 S
I91    N351    2.096   .     S
I92    N628    2.096   1_554 S
C93    O123    1.304   .     A
C93    O125    1.314   .     A
C93    C97     1.433   .     S
C94    O126    1.314   .     A
C94    O124    1.304   .     A
C94    C98     1.433   .     S
C95    H119    1.079   .     S
C95    C112    1.402   .     A
C95    C159    1.389   1_455 S
C96    H120    1.079   .     S
C96    C111    1.402   .     A
C96    C160    1.389   .     S
C98    C189    1.351   .     S
C98    I228    2.122   .     S
C99    O129    1.309   .     A
C99    C104    1.441   .     S
C99    O127    1.311   .     A
C100   O130    1.309   .     A
C100   C103    1.441   .     S
C100   O128    1.311   .     A
C101   C103    1.402   .     A
C101   I131    2.151   .     S
C101   C111    1.406   .     A
C102   C104    1.402   .     A
C102   I132    2.151   .     S
C102   C112    1.406   .     A
C103   C105    1.392   .     A
C104   C106    1.392   .     A
C105   H117    1.082   .     S
C105   C107    1.393   .     A
C106   H118    1.082   .     S
C106   C108    1.393   .     A
C107   C113    1.408   .     A
C107   C109    1.417   .     A
C108   C110    1.417   .     A
C108   C114    1.408   .     A
C109   C111    1.419   .     A
C109   C156    1.409   .     S
C110   C112    1.419   .     A
C110   C155    1.409   1_455 S
C113   I133    2.126   .     S
C113   C141    1.389   .     S
C114   I134    2.126   .     S
C114   C142    1.389   1_455 S
Cu115  Cu116   2.749   .     S
Cu115  O130    1.947   .     S
Cu115  O126    1.978   .     S
Cu115  O127    1.955   .     S
Cu115  N122    2.066   .     S
Cu115  O123    1.988   .     S
Cu116  O124    1.988   .     S
Cu116  O125    1.978   .     S
Cu116  O129    1.947   .     S
Cu116  O128    1.955   .     S
Cu116  N121    2.066   .     S
N121   N674    1.292   1_554 S
N121   I689    2.096   1_554 S
N122   N397    1.292   .     S
N122   I414    2.096   .     S
I135   C189    2.122   .     S
I137   N397    2.096   .     S
I138   N674    2.096   1_554 S
C139   O169    1.304   .     A
C139   O171    1.314   .     A
C139   C143    1.433   .     S
C140   O172    1.314   .     A
C140   O170    1.304   .     A
C140   C144    1.433   .     S
C141   H165    1.079   .     S
C141   C158    1.402   .     A
C142   H166    1.079   .     S
C142   C157    1.402   .     A
C142   C114    1.389   1_655 S
C144   C235    1.351   .     S
C144   I274    2.122   .     S
C145   O175    1.309   .     A
C145   C150    1.441   .     S
C145   O173    1.311   .     A
C146   O176    1.309   .     A
C146   C149    1.441   .     S
C146   O174    1.311   .     A
C147   C149    1.402   .     A
C147   I177    2.151   .     S
C147   C157    1.406   .     A
C148   C150    1.402   .     A
C148   I178    2.151   .     S
C148   C158    1.406   .     A
C149   C151    1.392   .     A
C150   C152    1.392   .     A
C151   H163    1.082   .     S
C151   C153    1.393   .     A
C152   H164    1.082   .     S
C152   C154    1.393   .     A
C153   C159    1.408   .     A
C153   C155    1.417   .     A
C154   C156    1.417   .     A
C154   C160    1.408   .     A
C155   C157    1.419   .     A
C155   C110    1.409   1_655 S
C156   C158    1.419   .     A
C159   I179    2.126   .     S
C159   C95     1.389   1_655 S
C160   I180    2.126   .     S
Cu161  Cu162   2.749   .     S
Cu161  O176    1.947   .     S
Cu161  O172    1.978   .     S
Cu161  O173    1.955   .     S
Cu161  N168    2.066   .     S
Cu161  O169    1.988   .     S
Cu162  O170    1.988   .     S
Cu162  O171    1.978   .     S
Cu162  O175    1.947   .     S
Cu162  O174    1.955   .     S
Cu162  N167    2.066   .     S
N167   N720    1.292   1_554 S
N167   I735    2.096   1_554 S
N168   N443    1.292   .     S
N168   I460    2.096   .     S
I181   C235    2.122   .     S
I183   N443    2.096   .     S
I184   N720    2.096   1_554 S
C185   O215    1.304   .     A
C185   O217    1.314   .     A
C185   C189    1.433   .     S
C186   O218    1.314   .     A
C186   O216    1.304   .     A
C186   C190    1.433   .     S
C187   H211    1.079   .     S
C187   C204    1.402   .     A
C187   C251    1.389   1_455 S
C188   H212    1.079   .     S
C188   C203    1.402   .     A
C188   C252    1.389   .     S
C190   C5      1.351   1_565 S
C190   I44     2.122   1_565 S
C191   O221    1.309   .     A
C191   C196    1.441   .     S
C191   O219    1.311   .     A
C192   O222    1.309   .     A
C192   C195    1.441   .     S
C192   O220    1.311   .     A
C193   C195    1.402   .     A
C193   I223    2.151   .     S
C193   C203    1.406   .     A
C194   C196    1.402   .     A
C194   I224    2.151   .     S
C194   C204    1.406   .     A
C195   C197    1.392   .     A
C196   C198    1.392   .     A
C197   H209    1.082   .     S
C197   C199    1.393   .     A
C198   H210    1.082   .     S
C198   C200    1.393   .     A
C199   C205    1.408   .     A
C199   C201    1.417   .     A
C200   C202    1.417   .     A
C200   C206    1.408   .     A
C201   C203    1.419   .     A
C201   C248    1.409   .     S
C202   C204    1.419   .     A
C202   C247    1.409   1_455 S
C205   I225    2.126   .     S
C205   C233    1.389   .     S
C206   I226    2.126   .     S
C206   C234    1.389   1_455 S
Cu207  Cu208   2.749   .     S
Cu207  O222    1.947   .     S
Cu207  O218    1.978   .     S
Cu207  O219    1.955   .     S
Cu207  N214    2.066   .     S
Cu207  O215    1.988   .     S
Cu208  O216    1.988   .     S
Cu208  O217    1.978   .     S
Cu208  O221    1.947   .     S
Cu208  O220    1.955   .     S
Cu208  N213    2.066   .     S
N213   N766    1.292   1_554 S
N213   I781    2.096   1_554 S
N214   N489    1.292   .     S
N214   I506    2.096   .     S
I227   C5      2.122   1_565 S
I229   N489    2.096   .     S
I230   N766    2.096   1_554 S
C231   O261    1.304   .     A
C231   O263    1.314   .     A
C231   C235    1.433   .     S
C232   O264    1.314   .     A
C232   O262    1.304   .     A
C232   C236    1.433   .     S
C233   H257    1.079   .     S
C233   C250    1.402   .     A
C234   H258    1.079   .     S
C234   C249    1.402   .     A
C234   C206    1.389   1_655 S
C236   C51     1.351   1_565 S
C236   I90     2.122   1_565 S
C237   O267    1.309   .     A
C237   C242    1.441   .     S
C237   O265    1.311   .     A
C238   O268    1.309   .     A
C238   C241    1.441   .     S
C238   O266    1.311   .     A
C239   C241    1.402   .     A
C239   I269    2.151   .     S
C239   C249    1.406   .     A
C240   C242    1.402   .     A
C240   I270    2.151   .     S
C240   C250    1.406   .     A
C241   C243    1.392   .     A
C242   C244    1.392   .     A
C243   H255    1.082   .     S
C243   C245    1.393   .     A
C244   H256    1.082   .     S
C244   C246    1.393   .     A
C245   C251    1.408   .     A
C245   C247    1.417   .     A
C246   C248    1.417   .     A
C246   C252    1.408   .     A
C247   C249    1.419   .     A
C247   C202    1.409   1_655 S
C248   C250    1.419   .     A
C251   I271    2.126   .     S
C251   C187    1.389   1_655 S
C252   I272    2.126   .     S
Cu253  Cu254   2.749   .     S
Cu253  O268    1.947   .     S
Cu253  O264    1.978   .     S
Cu253  O265    1.955   .     S
Cu253  N260    2.066   .     S
Cu253  O261    1.988   .     S
Cu254  O262    1.988   .     S
Cu254  O263    1.978   .     S
Cu254  O267    1.947   .     S
Cu254  O266    1.955   .     S
Cu254  N259    2.066   .     S
N259   N812    1.292   1_554 S
N259   I827    2.096   1_554 S
N260   N535    1.292   .     S
N260   I552    2.096   .     S
I273   C51     2.122   1_565 S
I275   N535    2.096   .     S
I276   N812    2.096   1_554 S
C277   O307    1.304   .     A
C277   O309    1.314   .     A
C277   C281    1.433   .     S
C278   O310    1.314   .     A
C278   O308    1.304   .     A
C278   C282    1.433   .     S
C279   H303    1.079   .     S
C279   C296    1.402   .     A
C279   C343    1.389   1_455 S
C280   H304    1.079   .     S
C280   C295    1.402   .     A
C280   C344    1.389   .     S
C281   C466    1.351   1_545 S
C281   I503    2.122   1_545 S
C282   C373    1.351   .     S
C282   I412    2.122   .     S
C283   O313    1.309   .     A
C283   C288    1.441   .     S
C283   O311    1.311   .     A
C284   O314    1.309   .     A
C284   C287    1.441   .     S
C284   O312    1.311   .     A
C285   C287    1.402   .     A
C285   I315    2.151   .     S
C285   C295    1.406   .     A
C286   C288    1.402   .     A
C286   I316    2.151   .     S
C286   C296    1.406   .     A
C287   C289    1.392   .     A
C288   C290    1.392   .     A
C289   H301    1.082   .     S
C289   C291    1.393   .     A
C290   H302    1.082   .     S
C290   C292    1.393   .     A
C291   C297    1.408   .     A
C291   C293    1.417   .     A
C292   C294    1.417   .     A
C292   C298    1.408   .     A
C293   C295    1.419   .     A
C293   C340    1.409   .     S
C294   C296    1.419   .     A
C294   C339    1.409   1_455 S
C297   I317    2.126   .     S
C297   C325    1.389   .     S
C298   I318    2.126   .     S
C298   C326    1.389   1_455 S
Cu299  Cu300   2.749   .     S
Cu299  O314    1.947   .     S
Cu299  O310    1.978   .     S
Cu299  O311    1.955   .     S
Cu299  N306    2.066   .     S
Cu299  O307    1.988   .     S
Cu300  O308    1.988   .     S
Cu300  O309    1.978   .     S
Cu300  O313    1.947   .     S
Cu300  O312    1.955   .     S
Cu300  N305    2.066   .     S
N306   N581    1.292   .     S
N306   I598    2.096   .     S
I319   C373    2.122   .     S
I320   C466    2.122   1_545 S
I321   N581    2.096   .     S
C323   O353    1.304   .     A
C323   O355    1.314   .     A
C323   C327    1.433   .     S
C324   O356    1.314   .     A
C324   O354    1.304   .     A
C324   C328    1.433   .     S
C325   H349    1.079   .     S
C325   C342    1.402   .     A
C326   H350    1.079   .     S
C326   C341    1.402   .     A
C326   C298    1.389   1_655 S
C327   C512    1.351   1_545 S
C327   I549    2.122   1_545 S
C328   C419    1.351   .     S
C328   I458    2.122   .     S
C329   O359    1.309   .     A
C329   C334    1.441   .     S
C329   O357    1.311   .     A
C330   O360    1.309   .     A
C330   C333    1.441   .     S
C330   O358    1.311   .     A
C331   C333    1.402   .     A
C331   I361    2.151   .     S
C331   C341    1.406   .     A
C332   C334    1.402   .     A
C332   I362    2.151   .     S
C332   C342    1.406   .     A
C333   C335    1.392   .     A
C334   C336    1.392   .     A
C335   H347    1.082   .     S
C335   C337    1.393   .     A
C336   H348    1.082   .     S
C336   C338    1.393   .     A
C337   C343    1.408   .     A
C337   C339    1.417   .     A
C338   C340    1.417   .     A
C338   C344    1.408   .     A
C339   C341    1.419   .     A
C339   C294    1.409   1_655 S
C340   C342    1.419   .     A
C343   I363    2.126   .     S
C343   C279    1.389   1_655 S
C344   I364    2.126   .     S
Cu345  Cu346   2.749   .     S
Cu345  O360    1.947   .     S
Cu345  O356    1.978   .     S
Cu345  O357    1.955   .     S
Cu345  N352    2.066   .     S
Cu345  O353    1.988   .     S
Cu346  O354    1.988   .     S
Cu346  O355    1.978   .     S
Cu346  O359    1.947   .     S
Cu346  O358    1.955   .     S
Cu346  N351    2.066   .     S
N352   N627    1.292   .     S
N352   I644    2.096   .     S
I365   C419    2.122   .     S
I366   C512    2.122   1_545 S
I367   N627    2.096   .     S
C369   O399    1.304   .     A
C369   O401    1.314   .     A
C369   C373    1.433   .     S
C370   O402    1.314   .     A
C370   O400    1.304   .     A
C370   C374    1.433   .     S
C371   H395    1.079   .     S
C371   C388    1.402   .     A
C371   C435    1.389   1_455 S
C372   H396    1.079   .     S
C372   C387    1.402   .     A
C372   C436    1.389   .     S
C374   C465    1.351   .     S
C374   I504    2.122   .     S
C375   O405    1.309   .     A
C375   C380    1.441   .     S
C375   O403    1.311   .     A
C376   O406    1.309   .     A
C376   C379    1.441   .     S
C376   O404    1.311   .     A
C377   C379    1.402   .     A
C377   I407    2.151   .     S
C377   C387    1.406   .     A
C378   C380    1.402   .     A
C378   I408    2.151   .     S
C378   C388    1.406   .     A
C379   C381    1.392   .     A
C380   C382    1.392   .     A
C381   H393    1.082   .     S
C381   C383    1.393   .     A
C382   H394    1.082   .     S
C382   C384    1.393   .     A
C383   C389    1.408   .     A
C383   C385    1.417   .     A
C384   C386    1.417   .     A
C384   C390    1.408   .     A
C385   C387    1.419   .     A
C385   C432    1.409   .     S
C386   C388    1.419   .     A
C386   C431    1.409   1_455 S
C389   I409    2.126   .     S
C389   C417    1.389   .     S
C390   I410    2.126   .     S
C390   C418    1.389   1_455 S
Cu391  Cu392   2.749   .     S
Cu391  O406    1.947   .     S
Cu391  O402    1.978   .     S
Cu391  O403    1.955   .     S
Cu391  N398    2.066   .     S
Cu391  O399    1.988   .     S
Cu392  O400    1.988   .     S
Cu392  O401    1.978   .     S
Cu392  O405    1.947   .     S
Cu392  O404    1.955   .     S
Cu392  N397    2.066   .     S
N398   N673    1.292   .     S
N398   I690    2.096   .     S
I411   C465    2.122   .     S
I413   N673    2.096   .     S
C415   O445    1.304   .     A
C415   O447    1.314   .     A
C415   C419    1.433   .     S
C416   O448    1.314   .     A
C416   O446    1.304   .     A
C416   C420    1.433   .     S
C417   H441    1.079   .     S
C417   C434    1.402   .     A
C418   H442    1.079   .     S
C418   C433    1.402   .     A
C418   C390    1.389   1_655 S
C420   C511    1.351   .     S
C420   I550    2.122   .     S
C421   O451    1.309   .     A
C421   C426    1.441   .     S
C421   O449    1.311   .     A
C422   O452    1.309   .     A
C422   C425    1.441   .     S
C422   O450    1.311   .     A
C423   C425    1.402   .     A
C423   I453    2.151   .     S
C423   C433    1.406   .     A
C424   C426    1.402   .     A
C424   I454    2.151   .     S
C424   C434    1.406   .     A
C425   C427    1.392   .     A
C426   C428    1.392   .     A
C427   H439    1.082   .     S
C427   C429    1.393   .     A
C428   H440    1.082   .     S
C428   C430    1.393   .     A
C429   C435    1.408   .     A
C429   C431    1.417   .     A
C430   C432    1.417   .     A
C430   C436    1.408   .     A
C431   C433    1.419   .     A
C431   C386    1.409   1_655 S
C432   C434    1.419   .     A
C435   I455    2.126   .     S
C435   C371    1.389   1_655 S
C436   I456    2.126   .     S
Cu437  Cu438   2.749   .     S
Cu437  O452    1.947   .     S
Cu437  O448    1.978   .     S
Cu437  O449    1.955   .     S
Cu437  N444    2.066   .     S
Cu437  O445    1.988   .     S
Cu438  O446    1.988   .     S
Cu438  O447    1.978   .     S
Cu438  O451    1.947   .     S
Cu438  O450    1.955   .     S
Cu438  N443    2.066   .     S
N444   N719    1.292   .     S
N444   I736    2.096   .     S
I457   C511    2.122   .     S
I459   N719    2.096   .     S
C461   O491    1.304   .     A
C461   O493    1.314   .     A
C461   C465    1.433   .     S
C462   O494    1.314   .     A
C462   O492    1.304   .     A
C462   C466    1.433   .     S
C463   H487    1.079   .     S
C463   C480    1.402   .     A
C463   C527    1.389   1_455 S
C464   H488    1.079   .     S
C464   C479    1.402   .     A
C464   C528    1.389   .     S
C466   C281    1.351   1_565 S
C466   I320    2.122   1_565 S
C467   O497    1.309   .     A
C467   C472    1.441   .     S
C467   O495    1.311   .     A
C468   O498    1.309   .     A
C468   C471    1.441   .     S
C468   O496    1.311   .     A
C469   C471    1.402   .     A
C469   I499    2.151   .     S
C469   C479    1.406   .     A
C470   C472    1.402   .     A
C470   I500    2.151   .     S
C470   C480    1.406   .     A
C471   C473    1.392   .     A
C472   C474    1.392   .     A
C473   H485    1.082   .     S
C473   C475    1.393   .     A
C474   H486    1.082   .     S
C474   C476    1.393   .     A
C475   C481    1.408   .     A
C475   C477    1.417   .     A
C476   C478    1.417   .     A
C476   C482    1.408   .     A
C477   C479    1.419   .     A
C477   C524    1.409   .     S
C478   C480    1.419   .     A
C478   C523    1.409   1_455 S
C481   I501    2.126   .     S
C481   C509    1.389   .     S
C482   I502    2.126   .     S
C482   C510    1.389   1_455 S
Cu483  Cu484   2.749   .     S
Cu483  O498    1.947   .     S
Cu483  O494    1.978   .     S
Cu483  O495    1.955   .     S
Cu483  N490    2.066   .     S
Cu483  O491    1.988   .     S
Cu484  O492    1.988   .     S
Cu484  O493    1.978   .     S
Cu484  O497    1.947   .     S
Cu484  O496    1.955   .     S
Cu484  N489    2.066   .     S
N490   N765    1.292   .     S
N490   I782    2.096   .     S
I503   C281    2.122   1_565 S
I505   N765    2.096   .     S
C507   O537    1.304   .     A
C507   O539    1.314   .     A
C507   C511    1.433   .     S
C508   O540    1.314   .     A
C508   O538    1.304   .     A
C508   C512    1.433   .     S
C509   H533    1.079   .     S
C509   C526    1.402   .     A
C510   H534    1.079   .     S
C510   C525    1.402   .     A
C510   C482    1.389   1_655 S
C512   C327    1.351   1_565 S
C512   I366    2.122   1_565 S
C513   O543    1.309   .     A
C513   C518    1.441   .     S
C513   O541    1.311   .     A
C514   O544    1.309   .     A
C514   C517    1.441   .     S
C514   O542    1.311   .     A
C515   C517    1.402   .     A
C515   I545    2.151   .     S
C515   C525    1.406   .     A
C516   C518    1.402   .     A
C516   I546    2.151   .     S
C516   C526    1.406   .     A
C517   C519    1.392   .     A
C518   C520    1.392   .     A
C519   H531    1.082   .     S
C519   C521    1.393   .     A
C520   H532    1.082   .     S
C520   C522    1.393   .     A
C521   C527    1.408   .     A
C521   C523    1.417   .     A
C522   C524    1.417   .     A
C522   C528    1.408   .     A
C523   C525    1.419   .     A
C523   C478    1.409   1_655 S
C524   C526    1.419   .     A
C527   I547    2.126   .     S
C527   C463    1.389   1_655 S
C528   I548    2.126   .     S
Cu529  Cu530   2.749   .     S
Cu529  O544    1.947   .     S
Cu529  O540    1.978   .     S
Cu529  O541    1.955   .     S
Cu529  N536    2.066   .     S
Cu529  O537    1.988   .     S
Cu530  O538    1.988   .     S
Cu530  O539    1.978   .     S
Cu530  O543    1.947   .     S
Cu530  O542    1.955   .     S
Cu530  N535    2.066   .     S
N536   N811    1.292   .     S
N536   I828    2.096   .     S
I549   C327    2.122   1_565 S
I551   N811    2.096   .     S
C553   O583    1.304   .     A
C553   O585    1.314   .     A
C553   C557    1.433   .     S
C554   O586    1.314   .     A
C554   O584    1.304   .     A
C554   C558    1.433   .     S
C555   H579    1.079   .     S
C555   C572    1.402   .     A
C555   C619    1.389   1_455 S
C556   H580    1.079   .     S
C556   C571    1.402   .     A
C556   C620    1.389   .     S
C557   C742    1.351   1_545 S
C557   I779    2.122   1_545 S
C558   C649    1.351   .     S
C558   I688    2.122   .     S
C559   O589    1.309   .     A
C559   C564    1.441   .     S
C559   O587    1.311   .     A
C560   O590    1.309   .     A
C560   C563    1.441   .     S
C560   O588    1.311   .     A
C561   C563    1.402   .     A
C561   I591    2.151   .     S
C561   C571    1.406   .     A
C562   C564    1.402   .     A
C562   I592    2.151   .     S
C562   C572    1.406   .     A
C563   C565    1.392   .     A
C564   C566    1.392   .     A
C565   H577    1.082   .     S
C565   C567    1.393   .     A
C566   H578    1.082   .     S
C566   C568    1.393   .     A
C567   C573    1.408   .     A
C567   C569    1.417   .     A
C568   C570    1.417   .     A
C568   C574    1.408   .     A
C569   C571    1.419   .     A
C569   C616    1.409   .     S
C570   C572    1.419   .     A
C570   C615    1.409   1_455 S
C573   I593    2.126   .     S
C573   C601    1.389   .     S
C574   I594    2.126   .     S
C574   C602    1.389   1_455 S
Cu575  Cu576   2.749   .     S
Cu575  O590    1.947   .     S
Cu575  O586    1.978   .     S
Cu575  O587    1.955   .     S
Cu575  N582    2.066   .     S
Cu575  O583    1.988   .     S
Cu576  O584    1.988   .     S
Cu576  O585    1.978   .     S
Cu576  O589    1.947   .     S
Cu576  O588    1.955   .     S
Cu576  N581    2.066   .     S
N582   N29     1.292   1_556 S
N582   I46     2.096   1_556 S
I595   C649    2.122   .     S
I596   C742    2.122   1_545 S
I597   N29     2.096   1_556 S
C599   O629    1.304   .     A
C599   O631    1.314   .     A
C599   C603    1.433   .     S
C600   O632    1.314   .     A
C600   O630    1.304   .     A
C600   C604    1.433   .     S
C601   H625    1.079   .     S
C601   C618    1.402   .     A
C602   H626    1.079   .     S
C602   C617    1.402   .     A
C602   C574    1.389   1_655 S
C603   C788    1.351   1_545 S
C603   I825    2.122   1_545 S
C604   C695    1.351   .     S
C604   I734    2.122   .     S
C605   O635    1.309   .     A
C605   C610    1.441   .     S
C605   O633    1.311   .     A
C606   O636    1.309   .     A
C606   C609    1.441   .     S
C606   O634    1.311   .     A
C607   C609    1.402   .     A
C607   I637    2.151   .     S
C607   C617    1.406   .     A
C608   C610    1.402   .     A
C608   I638    2.151   .     S
C608   C618    1.406   .     A
C609   C611    1.392   .     A
C610   C612    1.392   .     A
C611   H623    1.082   .     S
C611   C613    1.393   .     A
C612   H624    1.082   .     S
C612   C614    1.393   .     A
C613   C619    1.408   .     A
C613   C615    1.417   .     A
C614   C616    1.417   .     A
C614   C620    1.408   .     A
C615   C617    1.419   .     A
C615   C570    1.409   1_655 S
C616   C618    1.419   .     A
C619   I639    2.126   .     S
C619   C555    1.389   1_655 S
C620   I640    2.126   .     S
Cu621  Cu622   2.749   .     S
Cu621  O636    1.947   .     S
Cu621  O632    1.978   .     S
Cu621  O633    1.955   .     S
Cu621  N628    2.066   .     S
Cu621  O629    1.988   .     S
Cu622  O630    1.988   .     S
Cu622  O631    1.978   .     S
Cu622  O635    1.947   .     S
Cu622  O634    1.955   .     S
Cu622  N627    2.066   .     S
N628   N75     1.292   1_556 S
N628   I92     2.096   1_556 S
I641   C695    2.122   .     S
I642   C788    2.122   1_545 S
I643   N75     2.096   1_556 S
C645   O675    1.304   .     A
C645   O677    1.314   .     A
C645   C649    1.433   .     S
C646   O678    1.314   .     A
C646   O676    1.304   .     A
C646   C650    1.433   .     S
C647   H671    1.079   .     S
C647   C664    1.402   .     A
C647   C711    1.389   1_455 S
C648   H672    1.079   .     S
C648   C663    1.402   .     A
C648   C712    1.389   .     S
C650   C741    1.351   .     S
C650   I780    2.122   .     S
C651   O681    1.309   .     A
C651   C656    1.441   .     S
C651   O679    1.311   .     A
C652   O682    1.309   .     A
C652   C655    1.441   .     S
C652   O680    1.311   .     A
C653   C655    1.402   .     A
C653   I683    2.151   .     S
C653   C663    1.406   .     A
C654   C656    1.402   .     A
C654   I684    2.151   .     S
C654   C664    1.406   .     A
C655   C657    1.392   .     A
C656   C658    1.392   .     A
C657   H669    1.082   .     S
C657   C659    1.393   .     A
C658   H670    1.082   .     S
C658   C660    1.393   .     A
C659   C665    1.408   .     A
C659   C661    1.417   .     A
C660   C662    1.417   .     A
C660   C666    1.408   .     A
C661   C663    1.419   .     A
C661   C708    1.409   .     S
C662   C664    1.419   .     A
C662   C707    1.409   1_455 S
C665   I685    2.126   .     S
C665   C693    1.389   .     S
C666   I686    2.126   .     S
C666   C694    1.389   1_455 S
Cu667  Cu668   2.749   .     S
Cu667  O682    1.947   .     S
Cu667  O678    1.978   .     S
Cu667  O679    1.955   .     S
Cu667  N674    2.066   .     S
Cu667  O675    1.988   .     S
Cu668  O676    1.988   .     S
Cu668  O677    1.978   .     S
Cu668  O681    1.947   .     S
Cu668  O680    1.955   .     S
Cu668  N673    2.066   .     S
N674   N121    1.292   1_556 S
N674   I138    2.096   1_556 S
I687   C741    2.122   .     S
I689   N121    2.096   1_556 S
C691   O721    1.304   .     A
C691   O723    1.314   .     A
C691   C695    1.433   .     S
C692   O724    1.314   .     A
C692   O722    1.304   .     A
C692   C696    1.433   .     S
C693   H717    1.079   .     S
C693   C710    1.402   .     A
C694   H718    1.079   .     S
C694   C709    1.402   .     A
C694   C666    1.389   1_655 S
C696   C787    1.351   .     S
C696   I826    2.122   .     S
C697   O727    1.309   .     A
C697   C702    1.441   .     S
C697   O725    1.311   .     A
C698   O728    1.309   .     A
C698   C701    1.441   .     S
C698   O726    1.311   .     A
C699   C701    1.402   .     A
C699   I729    2.151   .     S
C699   C709    1.406   .     A
C700   C702    1.402   .     A
C700   I730    2.151   .     S
C700   C710    1.406   .     A
C701   C703    1.392   .     A
C702   C704    1.392   .     A
C703   H715    1.082   .     S
C703   C705    1.393   .     A
C704   H716    1.082   .     S
C704   C706    1.393   .     A
C705   C711    1.408   .     A
C705   C707    1.417   .     A
C706   C708    1.417   .     A
C706   C712    1.408   .     A
C707   C709    1.419   .     A
C707   C662    1.409   1_655 S
C708   C710    1.419   .     A
C711   I731    2.126   .     S
C711   C647    1.389   1_655 S
C712   I732    2.126   .     S
Cu713  Cu714   2.749   .     S
Cu713  O728    1.947   .     S
Cu713  O724    1.978   .     S
Cu713  O725    1.955   .     S
Cu713  N720    2.066   .     S
Cu713  O721    1.988   .     S
Cu714  O722    1.988   .     S
Cu714  O723    1.978   .     S
Cu714  O727    1.947   .     S
Cu714  O726    1.955   .     S
Cu714  N719    2.066   .     S
N720   N167    1.292   1_556 S
N720   I184    2.096   1_556 S
I733   C787    2.122   .     S
I735   N167    2.096   1_556 S
C737   O767    1.304   .     A
C737   O769    1.314   .     A
C737   C741    1.433   .     S
C738   O770    1.314   .     A
C738   O768    1.304   .     A
C738   C742    1.433   .     S
C739   H763    1.079   .     S
C739   C756    1.402   .     A
C739   C803    1.389   1_455 S
C740   H764    1.079   .     S
C740   C755    1.402   .     A
C740   C804    1.389   .     S
C742   C557    1.351   1_565 S
C742   I596    2.122   1_565 S
C743   O773    1.309   .     A
C743   C748    1.441   .     S
C743   O771    1.311   .     A
C744   O774    1.309   .     A
C744   C747    1.441   .     S
C744   O772    1.311   .     A
C745   C747    1.402   .     A
C745   I775    2.151   .     S
C745   C755    1.406   .     A
C746   C748    1.402   .     A
C746   I776    2.151   .     S
C746   C756    1.406   .     A
C747   C749    1.392   .     A
C748   C750    1.392   .     A
C749   H761    1.082   .     S
C749   C751    1.393   .     A
C750   H762    1.082   .     S
C750   C752    1.393   .     A
C751   C757    1.408   .     A
C751   C753    1.417   .     A
C752   C754    1.417   .     A
C752   C758    1.408   .     A
C753   C755    1.419   .     A
C753   C800    1.409   .     S
C754   C756    1.419   .     A
C754   C799    1.409   1_455 S
C757   I777    2.126   .     S
C757   C785    1.389   .     S
C758   I778    2.126   .     S
C758   C786    1.389   1_455 S
Cu759  Cu760   2.749   .     S
Cu759  O774    1.947   .     S
Cu759  O770    1.978   .     S
Cu759  O771    1.955   .     S
Cu759  N766    2.066   .     S
Cu759  O767    1.988   .     S
Cu760  O768    1.988   .     S
Cu760  O769    1.978   .     S
Cu760  O773    1.947   .     S
Cu760  O772    1.955   .     S
Cu760  N765    2.066   .     S
N766   N213    1.292   1_556 S
N766   I230    2.096   1_556 S
I779   C557    2.122   1_565 S
I781   N213    2.096   1_556 S
C783   O813    1.304   .     A
C783   O815    1.314   .     A
C783   C787    1.433   .     S
C784   O816    1.314   .     A
C784   O814    1.304   .     A
C784   C788    1.433   .     S
C785   H809    1.079   .     S
C785   C802    1.402   .     A
C786   H810    1.079   .     S
C786   C801    1.402   .     A
C786   C758    1.389   1_655 S
C788   C603    1.351   1_565 S
C788   I642    2.122   1_565 S
C789   O819    1.309   .     A
C789   C794    1.441   .     S
C789   O817    1.311   .     A
C790   O820    1.309   .     A
C790   C793    1.441   .     S
C790   O818    1.311   .     A
C791   C793    1.402   .     A
C791   I821    2.151   .     S
C791   C801    1.406   .     A
C792   C794    1.402   .     A
C792   I822    2.151   .     S
C792   C802    1.406   .     A
C793   C795    1.392   .     A
C794   C796    1.392   .     A
C795   H807    1.082   .     S
C795   C797    1.393   .     A
C796   H808    1.082   .     S
C796   C798    1.393   .     A
C797   C803    1.408   .     A
C797   C799    1.417   .     A
C798   C800    1.417   .     A
C798   C804    1.408   .     A
C799   C801    1.419   .     A
C799   C754    1.409   1_655 S
C800   C802    1.419   .     A
C803   I823    2.126   .     S
C803   C739    1.389   1_655 S
C804   I824    2.126   .     S
Cu805  Cu806   2.749   .     S
Cu805  O820    1.947   .     S
Cu805  O816    1.978   .     S
Cu805  O817    1.955   .     S
Cu805  N812    2.066   .     S
Cu805  O813    1.988   .     S
Cu806  O814    1.988   .     S
Cu806  O815    1.978   .     S
Cu806  O819    1.947   .     S
Cu806  O818    1.955   .     S
Cu806  N811    2.066   .     S
N812   N259    1.292   1_556 S
N812   I276    2.096   1_556 S
I825   C603    2.122   1_565 S
I827   N259    2.096   1_556 S
