data_str_m2_o10_o16_pcu_sym.65
_audit_creation_date              2020-01-03
_audit_creation_method            'Materials Studio'
_symmetry_space_group_name_H-M    'P1'
_symmetry_Int_Tables_number       1
_symmetry_cell_setting            triclinic
loop_
_symmetry_equiv_pos_as_xyz
  x,y,z
_cell_length_a                    22.2441
_cell_length_b                    26.2992
_cell_length_c                    26.7866
_cell_angle_alpha                 93.7896
_cell_angle_beta                  77.1136
_cell_angle_gamma                 102.8256
loop_
_atom_site_label
_atom_site_type_symbol
_atom_site_fract_x
_atom_site_fract_y
_atom_site_fract_z
_atom_site_U_iso_or_equiv
_atom_site_adp_type
_atom_site_occupancy
C1     C     0.18128   0.26652   0.25202   0.00000  Uiso   1.00
C2     C     0.11210   0.16533   0.40362   0.00000  Uiso   1.00
C3     C     0.18672   0.32209   0.25776   0.00000  Uiso   1.00
C4     C     0.13299   0.16593   0.34731   0.00000  Uiso   1.00
C5     C     0.14850   0.01191   0.23850   0.00000  Uiso   1.00
C6     C     0.15241   0.06684   0.24717   0.00000  Uiso   1.00
C7     C     0.20101   0.17207   0.15287   0.00000  Uiso   1.00
C8     C     0.29513   0.22873   0.02415   0.00000  Uiso   1.00
C9     C     0.22213   0.18324   0.09766   0.00000  Uiso   1.00
C10    C     0.05086   0.13861   0.42530   0.00000  Uiso   1.00
C11    C     0.03332   0.12907   0.47746   0.00000  Uiso   1.00
C12    C     0.13977   0.17077   0.48787   0.00000  Uiso   1.00
C13    C     0.07721   0.14389   0.00838   0.00000  Uiso   1.00
C14    C     0.10514   0.31889   0.20501   0.00000  Uiso   1.00
C15    C     0.15502   0.18560   0.43584   0.00000  Uiso   1.00
C16    C     0.18747   0.18404   0.01731   0.00000  Uiso   1.00
C17    C     0.24730   0.21542   0.49578   0.00000  Uiso   1.00
C18    C     0.25814   0.23448   0.44638   0.00000  Uiso   1.00
C19    C     0.21248   0.22075   0.41742   0.00000  Uiso   1.00
C20    C     0.17759   0.16646   0.06730   0.00000  Uiso   1.00
C21    C     0.28167   0.21454   0.07601   0.00000  Uiso   1.00
Cu22   Cu    0.10710   0.16105   0.24436   0.00000  Uiso   1.00
Cu23   Cu    0.22623   0.17228   0.25565   0.00000  Uiso   1.00
H24    H     0.00374   0.20577   0.28935   0.00000  Uiso   1.00
H25    H     0.01753   0.30543   0.19102   0.00000  Uiso   1.00
H26    H     0.05034   0.26092   0.02357   0.00000  Uiso   1.00
H27    H     0.24687   0.32702   0.30253   0.00000  Uiso   1.00
H28    H     0.32959   0.12760   0.21063   0.00000  Uiso   1.00
H29    H     0.30209   0.26057   0.42972   0.00000  Uiso   1.00
H30    H     0.13457   0.13993   0.08418   0.00000  Uiso   1.00
H31    H     0.01695   0.12369   0.40165   0.00000  Uiso   1.00
H32    H     0.06004   0.13488   0.04837   0.00000  Uiso   1.00
H33    H     0.31905   0.10876   0.49391   0.00000  Uiso   1.00
H34    H     0.22259   0.23909   0.38067   0.00000  Uiso   1.00
H35    H     0.30406   0.24806   0.13698   0.00000  Uiso   1.00
N36    N     0.31574   0.18074   0.26416   0.00000  Uiso   1.00
N37    N     0.01759   0.15259   0.23584   0.00000  Uiso   1.00
O38    O     0.12797   0.23807   0.24633   0.00000  Uiso   1.00
O39    O     0.12496   0.29467   0.16654   0.00000  Uiso   1.00
O40    O     0.04210   0.32348   0.21707   0.00000  Uiso   1.00
O41    O     0.02013   0.25784   0.00087   0.00000  Uiso   1.00
O42    O     0.22732   0.01731   0.28705   0.00000  Uiso   1.00
O43    O     0.22858   0.24755   0.25587   0.00000  Uiso   1.00
O44    O     0.09181   0.15960   0.31840   0.00000  Uiso   1.00
O45    O     0.19242   0.16908   0.32793   0.00000  Uiso   1.00
O46    O     0.10476   0.08578   0.24414   0.00000  Uiso   1.00
O47    O     0.20536   0.09526   0.25367   0.00000  Uiso   1.00
O48    O     0.14092   0.16425   0.17207   0.00000  Uiso   1.00
O49    O     0.24152   0.17373   0.18160   0.00000  Uiso   1.00
O50    O     0.32615   0.23374   0.10479   0.00000  Uiso   1.00
C51    C     0.51461   0.26652   0.25202   0.00000  Uiso   1.00
C52    C     0.44543   0.16533   0.40362   0.00000  Uiso   1.00
C53    C     0.52005   0.32209   0.25776   0.00000  Uiso   1.00
C54    C     0.46632   0.16593   0.34731   0.00000  Uiso   1.00
C55    C     0.48183   0.01191   0.23850   0.00000  Uiso   1.00
C56    C     0.48574   0.06684   0.24717   0.00000  Uiso   1.00
C57    C     0.53434   0.17207   0.15287   0.00000  Uiso   1.00
C58    C     0.62847   0.22873   0.02415   0.00000  Uiso   1.00
C59    C     0.55547   0.18324   0.09766   0.00000  Uiso   1.00
C60    C     0.38420   0.13861   0.42530   0.00000  Uiso   1.00
C61    C     0.36666   0.12907   0.47746   0.00000  Uiso   1.00
C62    C     0.47311   0.17077   0.48787   0.00000  Uiso   1.00
C63    C     0.41054   0.14389   0.00838   0.00000  Uiso   1.00
C64    C     0.43848   0.31889   0.20501   0.00000  Uiso   1.00
C65    C     0.48835   0.18560   0.43584   0.00000  Uiso   1.00
C66    C     0.52081   0.18404   0.01731   0.00000  Uiso   1.00
C67    C     0.58064   0.21542   0.49578   0.00000  Uiso   1.00
C68    C     0.59148   0.23448   0.44638   0.00000  Uiso   1.00
C69    C     0.54581   0.22075   0.41742   0.00000  Uiso   1.00
C70    C     0.51093   0.16646   0.06730   0.00000  Uiso   1.00
C71    C     0.61500   0.21454   0.07601   0.00000  Uiso   1.00
Cu72   Cu    0.44043   0.16105   0.24436   0.00000  Uiso   1.00
Cu73   Cu    0.55957   0.17228   0.25565   0.00000  Uiso   1.00
H74    H     0.33707   0.20577   0.28935   0.00000  Uiso   1.00
H75    H     0.35086   0.30543   0.19102   0.00000  Uiso   1.00
H76    H     0.38368   0.26092   0.02357   0.00000  Uiso   1.00
H77    H     0.58021   0.32702   0.30253   0.00000  Uiso   1.00
H78    H     0.66293   0.12760   0.21063   0.00000  Uiso   1.00
H79    H     0.63543   0.26057   0.42972   0.00000  Uiso   1.00
H80    H     0.46790   0.13993   0.08418   0.00000  Uiso   1.00
H81    H     0.35028   0.12369   0.40165   0.00000  Uiso   1.00
H82    H     0.39337   0.13488   0.04837   0.00000  Uiso   1.00
H83    H     0.65238   0.10876   0.49391   0.00000  Uiso   1.00
H84    H     0.55592   0.23909   0.38067   0.00000  Uiso   1.00
H85    H     0.63740   0.24806   0.13698   0.00000  Uiso   1.00
N86    N     0.64908   0.18074   0.26416   0.00000  Uiso   1.00
N87    N     0.35092   0.15259   0.23584   0.00000  Uiso   1.00
O88    O     0.46131   0.23807   0.24633   0.00000  Uiso   1.00
O89    O     0.45829   0.29467   0.16654   0.00000  Uiso   1.00
O90    O     0.37543   0.32348   0.21707   0.00000  Uiso   1.00
O91    O     0.35346   0.25784   0.00087   0.00000  Uiso   1.00
O92    O     0.56066   0.01731   0.28705   0.00000  Uiso   1.00
O93    O     0.56191   0.24755   0.25587   0.00000  Uiso   1.00
O94    O     0.42515   0.15960   0.31840   0.00000  Uiso   1.00
O95    O     0.52575   0.16908   0.32793   0.00000  Uiso   1.00
O96    O     0.43809   0.08578   0.24414   0.00000  Uiso   1.00
O97    O     0.53869   0.09526   0.25367   0.00000  Uiso   1.00
O98    O     0.47425   0.16425   0.17207   0.00000  Uiso   1.00
O99    O     0.57485   0.17373   0.18160   0.00000  Uiso   1.00
O100   O     0.65948   0.23374   0.10479   0.00000  Uiso   1.00
C101   C     0.84794   0.26652   0.25202   0.00000  Uiso   1.00
C102   C     0.77877   0.16533   0.40362   0.00000  Uiso   1.00
C103   C     0.85339   0.32209   0.25776   0.00000  Uiso   1.00
C104   C     0.79965   0.16593   0.34731   0.00000  Uiso   1.00
C105   C     0.81516   0.01191   0.23850   0.00000  Uiso   1.00
C106   C     0.81907   0.06684   0.24717   0.00000  Uiso   1.00
C107   C     0.86768   0.17207   0.15287   0.00000  Uiso   1.00
C108   C     0.96180   0.22873   0.02415   0.00000  Uiso   1.00
C109   C     0.88880   0.18324   0.09766   0.00000  Uiso   1.00
C110   C     0.71753   0.13861   0.42530   0.00000  Uiso   1.00
C111   C     0.69999   0.12907   0.47746   0.00000  Uiso   1.00
C112   C     0.80644   0.17077   0.48787   0.00000  Uiso   1.00
C113   C     0.74387   0.14389   0.00838   0.00000  Uiso   1.00
C114   C     0.77181   0.31889   0.20501   0.00000  Uiso   1.00
C115   C     0.82169   0.18560   0.43584   0.00000  Uiso   1.00
C116   C     0.85414   0.18404   0.01731   0.00000  Uiso   1.00
C117   C     0.91397   0.21542   0.49578   0.00000  Uiso   1.00
C118   C     0.92481   0.23448   0.44638   0.00000  Uiso   1.00
C119   C     0.87915   0.22075   0.41742   0.00000  Uiso   1.00
C120   C     0.84426   0.16646   0.06730   0.00000  Uiso   1.00
C121   C     0.94833   0.21454   0.07601   0.00000  Uiso   1.00
Cu122  Cu    0.77377   0.16105   0.24436   0.00000  Uiso   1.00
Cu123  Cu    0.89290   0.17228   0.25565   0.00000  Uiso   1.00
H124   H     0.67041   0.20577   0.28935   0.00000  Uiso   1.00
H125   H     0.68419   0.30543   0.19102   0.00000  Uiso   1.00
H126   H     0.71701   0.26092   0.02357   0.00000  Uiso   1.00
H127   H     0.91354   0.32702   0.30253   0.00000  Uiso   1.00
H128   H     0.99626   0.12760   0.21063   0.00000  Uiso   1.00
H129   H     0.96876   0.26057   0.42972   0.00000  Uiso   1.00
H130   H     0.80124   0.13993   0.08418   0.00000  Uiso   1.00
H131   H     0.68361   0.12369   0.40165   0.00000  Uiso   1.00
H132   H     0.72671   0.13488   0.04837   0.00000  Uiso   1.00
H133   H     0.98572   0.10876   0.49391   0.00000  Uiso   1.00
H134   H     0.88925   0.23909   0.38067   0.00000  Uiso   1.00
H135   H     0.97073   0.24806   0.13698   0.00000  Uiso   1.00
N136   N     0.98241   0.18074   0.26416   0.00000  Uiso   1.00
N137   N     0.68426   0.15259   0.23584   0.00000  Uiso   1.00
O138   O     0.79464   0.23807   0.24633   0.00000  Uiso   1.00
O139   O     0.79163   0.29467   0.16654   0.00000  Uiso   1.00
O140   O     0.70876   0.32348   0.21707   0.00000  Uiso   1.00
O141   O     0.68679   0.25784   0.00087   0.00000  Uiso   1.00
O142   O     0.89399   0.01731   0.28705   0.00000  Uiso   1.00
O143   O     0.89524   0.24755   0.25587   0.00000  Uiso   1.00
O144   O     0.75848   0.15960   0.31840   0.00000  Uiso   1.00
O145   O     0.85908   0.16908   0.32793   0.00000  Uiso   1.00
O146   O     0.77142   0.08578   0.24414   0.00000  Uiso   1.00
O147   O     0.87203   0.09526   0.25367   0.00000  Uiso   1.00
O148   O     0.80758   0.16425   0.17207   0.00000  Uiso   1.00
O149   O     0.90819   0.17373   0.18160   0.00000  Uiso   1.00
O150   O     0.99282   0.23374   0.10479   0.00000  Uiso   1.00
C151   C     0.18128   0.59985   0.25202   0.00000  Uiso   1.00
C152   C     0.11210   0.49866   0.40362   0.00000  Uiso   1.00
C153   C     0.18672   0.65542   0.25776   0.00000  Uiso   1.00
C154   C     0.13299   0.49926   0.34731   0.00000  Uiso   1.00
C155   C     0.14850   0.34524   0.23850   0.00000  Uiso   1.00
C156   C     0.15241   0.40018   0.24717   0.00000  Uiso   1.00
C157   C     0.20101   0.50540   0.15287   0.00000  Uiso   1.00
C158   C     0.29513   0.56207   0.02415   0.00000  Uiso   1.00
C159   C     0.22213   0.51657   0.09766   0.00000  Uiso   1.00
C160   C     0.05086   0.47194   0.42530   0.00000  Uiso   1.00
C161   C     0.03332   0.46241   0.47746   0.00000  Uiso   1.00
C162   C     0.13977   0.50410   0.48787   0.00000  Uiso   1.00
C163   C     0.07721   0.47722   0.00838   0.00000  Uiso   1.00
C164   C     0.10514   0.65222   0.20501   0.00000  Uiso   1.00
C165   C     0.15502   0.51894   0.43584   0.00000  Uiso   1.00
C166   C     0.18747   0.51737   0.01731   0.00000  Uiso   1.00
C167   C     0.24730   0.54876   0.49578   0.00000  Uiso   1.00
C168   C     0.25814   0.56782   0.44638   0.00000  Uiso   1.00
C169   C     0.21248   0.55408   0.41742   0.00000  Uiso   1.00
C170   C     0.17759   0.49979   0.06730   0.00000  Uiso   1.00
C171   C     0.28167   0.54788   0.07601   0.00000  Uiso   1.00
Cu172  Cu    0.10710   0.49439   0.24436   0.00000  Uiso   1.00
Cu173  Cu    0.22623   0.50561   0.25565   0.00000  Uiso   1.00
H174   H     0.00374   0.53910   0.28935   0.00000  Uiso   1.00
H175   H     0.01753   0.63877   0.19102   0.00000  Uiso   1.00
H176   H     0.05034   0.59425   0.02357   0.00000  Uiso   1.00
H177   H     0.24687   0.66035   0.30253   0.00000  Uiso   1.00
H178   H     0.32959   0.46093   0.21063   0.00000  Uiso   1.00
H179   H     0.30209   0.59390   0.42972   0.00000  Uiso   1.00
H180   H     0.13457   0.47326   0.08418   0.00000  Uiso   1.00
H181   H     0.01695   0.45702   0.40165   0.00000  Uiso   1.00
H182   H     0.06004   0.46822   0.04837   0.00000  Uiso   1.00
H183   H     0.31905   0.44209   0.49391   0.00000  Uiso   1.00
H184   H     0.22259   0.57243   0.38067   0.00000  Uiso   1.00
H185   H     0.30406   0.58139   0.13698   0.00000  Uiso   1.00
N186   N     0.31574   0.51407   0.26416   0.00000  Uiso   1.00
N187   N     0.01759   0.48593   0.23584   0.00000  Uiso   1.00
O188   O     0.12797   0.57141   0.24633   0.00000  Uiso   1.00
O189   O     0.12496   0.62801   0.16654   0.00000  Uiso   1.00
O190   O     0.04210   0.65681   0.21707   0.00000  Uiso   1.00
O191   O     0.02013   0.59117   0.00087   0.00000  Uiso   1.00
O192   O     0.22732   0.35064   0.28705   0.00000  Uiso   1.00
O193   O     0.22858   0.58089   0.25587   0.00000  Uiso   1.00
O194   O     0.09181   0.49293   0.31840   0.00000  Uiso   1.00
O195   O     0.19242   0.50241   0.32793   0.00000  Uiso   1.00
O196   O     0.10476   0.41911   0.24414   0.00000  Uiso   1.00
O197   O     0.20536   0.42859   0.25367   0.00000  Uiso   1.00
O198   O     0.14092   0.49759   0.17207   0.00000  Uiso   1.00
O199   O     0.24152   0.50707   0.18160   0.00000  Uiso   1.00
O200   O     0.32615   0.56708   0.10479   0.00000  Uiso   1.00
C201   C     0.51461   0.59985   0.25202   0.00000  Uiso   1.00
C202   C     0.44543   0.49866   0.40362   0.00000  Uiso   1.00
C203   C     0.52005   0.65542   0.25776   0.00000  Uiso   1.00
C204   C     0.46632   0.49926   0.34731   0.00000  Uiso   1.00
C205   C     0.48183   0.34524   0.23850   0.00000  Uiso   1.00
C206   C     0.48574   0.40018   0.24717   0.00000  Uiso   1.00
C207   C     0.53434   0.50540   0.15287   0.00000  Uiso   1.00
C208   C     0.62847   0.56207   0.02415   0.00000  Uiso   1.00
C209   C     0.55547   0.51657   0.09766   0.00000  Uiso   1.00
C210   C     0.38420   0.47194   0.42530   0.00000  Uiso   1.00
C211   C     0.36666   0.46241   0.47746   0.00000  Uiso   1.00
C212   C     0.47311   0.50410   0.48787   0.00000  Uiso   1.00
C213   C     0.41054   0.47722   0.00838   0.00000  Uiso   1.00
C214   C     0.43848   0.65222   0.20501   0.00000  Uiso   1.00
C215   C     0.48835   0.51894   0.43584   0.00000  Uiso   1.00
C216   C     0.52081   0.51737   0.01731   0.00000  Uiso   1.00
C217   C     0.58064   0.54876   0.49578   0.00000  Uiso   1.00
C218   C     0.59148   0.56782   0.44638   0.00000  Uiso   1.00
C219   C     0.54581   0.55408   0.41742   0.00000  Uiso   1.00
C220   C     0.51093   0.49979   0.06730   0.00000  Uiso   1.00
C221   C     0.61500   0.54788   0.07601   0.00000  Uiso   1.00
Cu222  Cu    0.44043   0.49439   0.24436   0.00000  Uiso   1.00
Cu223  Cu    0.55957   0.50561   0.25565   0.00000  Uiso   1.00
H224   H     0.33707   0.53910   0.28935   0.00000  Uiso   1.00
H225   H     0.35086   0.63877   0.19102   0.00000  Uiso   1.00
H226   H     0.38368   0.59425   0.02357   0.00000  Uiso   1.00
H227   H     0.58021   0.66035   0.30253   0.00000  Uiso   1.00
H228   H     0.66293   0.46093   0.21063   0.00000  Uiso   1.00
H229   H     0.63543   0.59390   0.42972   0.00000  Uiso   1.00
H230   H     0.46790   0.47326   0.08418   0.00000  Uiso   1.00
H231   H     0.35028   0.45702   0.40165   0.00000  Uiso   1.00
H232   H     0.39337   0.46822   0.04837   0.00000  Uiso   1.00
H233   H     0.65238   0.44209   0.49391   0.00000  Uiso   1.00
H234   H     0.55592   0.57243   0.38067   0.00000  Uiso   1.00
H235   H     0.63740   0.58139   0.13698   0.00000  Uiso   1.00
N236   N     0.64908   0.51407   0.26416   0.00000  Uiso   1.00
N237   N     0.35092   0.48593   0.23584   0.00000  Uiso   1.00
O238   O     0.46131   0.57141   0.24633   0.00000  Uiso   1.00
O239   O     0.45829   0.62801   0.16654   0.00000  Uiso   1.00
O240   O     0.37543   0.65681   0.21707   0.00000  Uiso   1.00
O241   O     0.35346   0.59117   0.00087   0.00000  Uiso   1.00
O242   O     0.56066   0.35064   0.28705   0.00000  Uiso   1.00
O243   O     0.56191   0.58089   0.25587   0.00000  Uiso   1.00
O244   O     0.42515   0.49293   0.31840   0.00000  Uiso   1.00
O245   O     0.52575   0.50241   0.32793   0.00000  Uiso   1.00
O246   O     0.43809   0.41911   0.24414   0.00000  Uiso   1.00
O247   O     0.53869   0.42859   0.25367   0.00000  Uiso   1.00
O248   O     0.47425   0.49759   0.17207   0.00000  Uiso   1.00
O249   O     0.57485   0.50707   0.18160   0.00000  Uiso   1.00
O250   O     0.65948   0.56708   0.10479   0.00000  Uiso   1.00
C251   C     0.84794   0.59985   0.25202   0.00000  Uiso   1.00
C252   C     0.77877   0.49866   0.40362   0.00000  Uiso   1.00
C253   C     0.85339   0.65542   0.25776   0.00000  Uiso   1.00
C254   C     0.79965   0.49926   0.34731   0.00000  Uiso   1.00
C255   C     0.81516   0.34524   0.23850   0.00000  Uiso   1.00
C256   C     0.81907   0.40018   0.24717   0.00000  Uiso   1.00
C257   C     0.86768   0.50540   0.15287   0.00000  Uiso   1.00
C258   C     0.96180   0.56207   0.02415   0.00000  Uiso   1.00
C259   C     0.88880   0.51657   0.09766   0.00000  Uiso   1.00
C260   C     0.71753   0.47194   0.42530   0.00000  Uiso   1.00
C261   C     0.69999   0.46241   0.47746   0.00000  Uiso   1.00
C262   C     0.80644   0.50410   0.48787   0.00000  Uiso   1.00
C263   C     0.74387   0.47722   0.00838   0.00000  Uiso   1.00
C264   C     0.77181   0.65222   0.20501   0.00000  Uiso   1.00
C265   C     0.82169   0.51894   0.43584   0.00000  Uiso   1.00
C266   C     0.85414   0.51737   0.01731   0.00000  Uiso   1.00
C267   C     0.91397   0.54876   0.49578   0.00000  Uiso   1.00
C268   C     0.92481   0.56782   0.44638   0.00000  Uiso   1.00
C269   C     0.87915   0.55408   0.41742   0.00000  Uiso   1.00
C270   C     0.84426   0.49979   0.06730   0.00000  Uiso   1.00
C271   C     0.94833   0.54788   0.07601   0.00000  Uiso   1.00
Cu272  Cu    0.77377   0.49439   0.24436   0.00000  Uiso   1.00
Cu273  Cu    0.89290   0.50561   0.25565   0.00000  Uiso   1.00
H274   H     0.67041   0.53910   0.28935   0.00000  Uiso   1.00
H275   H     0.68419   0.63877   0.19102   0.00000  Uiso   1.00
H276   H     0.71701   0.59425   0.02357   0.00000  Uiso   1.00
H277   H     0.91354   0.66035   0.30253   0.00000  Uiso   1.00
H278   H     0.99626   0.46093   0.21063   0.00000  Uiso   1.00
H279   H     0.96876   0.59390   0.42972   0.00000  Uiso   1.00
H280   H     0.80124   0.47326   0.08418   0.00000  Uiso   1.00
H281   H     0.68361   0.45702   0.40165   0.00000  Uiso   1.00
H282   H     0.72671   0.46822   0.04837   0.00000  Uiso   1.00
H283   H     0.98572   0.44209   0.49391   0.00000  Uiso   1.00
H284   H     0.88925   0.57243   0.38067   0.00000  Uiso   1.00
H285   H     0.97073   0.58139   0.13698   0.00000  Uiso   1.00
N286   N     0.98241   0.51407   0.26416   0.00000  Uiso   1.00
N287   N     0.68426   0.48593   0.23584   0.00000  Uiso   1.00
O288   O     0.79464   0.57141   0.24633   0.00000  Uiso   1.00
O289   O     0.79163   0.62801   0.16654   0.00000  Uiso   1.00
O290   O     0.70876   0.65681   0.21707   0.00000  Uiso   1.00
O291   O     0.68679   0.59117   0.00087   0.00000  Uiso   1.00
O292   O     0.89399   0.35064   0.28705   0.00000  Uiso   1.00
O293   O     0.89524   0.58089   0.25587   0.00000  Uiso   1.00
O294   O     0.75848   0.49293   0.31840   0.00000  Uiso   1.00
O295   O     0.85908   0.50241   0.32793   0.00000  Uiso   1.00
O296   O     0.77142   0.41911   0.24414   0.00000  Uiso   1.00
O297   O     0.87203   0.42859   0.25367   0.00000  Uiso   1.00
O298   O     0.80758   0.49759   0.17207   0.00000  Uiso   1.00
O299   O     0.90819   0.50707   0.18160   0.00000  Uiso   1.00
O300   O     0.99282   0.56708   0.10479   0.00000  Uiso   1.00
C301   C     0.18128   0.93319   0.25202   0.00000  Uiso   1.00
C302   C     0.11210   0.83200   0.40362   0.00000  Uiso   1.00
C303   C     0.18672   0.98876   0.25776   0.00000  Uiso   1.00
C304   C     0.13299   0.83259   0.34731   0.00000  Uiso   1.00
C305   C     0.14850   0.67858   0.23850   0.00000  Uiso   1.00
C306   C     0.15241   0.73351   0.24717   0.00000  Uiso   1.00
C307   C     0.20101   0.83873   0.15287   0.00000  Uiso   1.00
C308   C     0.29513   0.89540   0.02415   0.00000  Uiso   1.00
C309   C     0.22213   0.84991   0.09766   0.00000  Uiso   1.00
C310   C     0.05086   0.80528   0.42530   0.00000  Uiso   1.00
C311   C     0.03332   0.79574   0.47746   0.00000  Uiso   1.00
C312   C     0.13977   0.83744   0.48787   0.00000  Uiso   1.00
C313   C     0.07721   0.81055   0.00838   0.00000  Uiso   1.00
C314   C     0.10514   0.98556   0.20501   0.00000  Uiso   1.00
C315   C     0.15502   0.85227   0.43584   0.00000  Uiso   1.00
C316   C     0.18747   0.85070   0.01731   0.00000  Uiso   1.00
C317   C     0.24730   0.88209   0.49578   0.00000  Uiso   1.00
C318   C     0.25814   0.90115   0.44638   0.00000  Uiso   1.00
C319   C     0.21248   0.88742   0.41742   0.00000  Uiso   1.00
C320   C     0.17759   0.83312   0.06730   0.00000  Uiso   1.00
C321   C     0.28167   0.88121   0.07601   0.00000  Uiso   1.00
Cu322  Cu    0.10710   0.82772   0.24436   0.00000  Uiso   1.00
Cu323  Cu    0.22623   0.83895   0.25565   0.00000  Uiso   1.00
H324   H     0.00374   0.87244   0.28935   0.00000  Uiso   1.00
H325   H     0.01753   0.97210   0.19102   0.00000  Uiso   1.00
H326   H     0.05034   0.92758   0.02357   0.00000  Uiso   1.00
H327   H     0.24687   0.99369   0.30253   0.00000  Uiso   1.00
H328   H     0.32959   0.79426   0.21063   0.00000  Uiso   1.00
H329   H     0.30209   0.92723   0.42972   0.00000  Uiso   1.00
H330   H     0.13457   0.80660   0.08418   0.00000  Uiso   1.00
H331   H     0.01695   0.79035   0.40165   0.00000  Uiso   1.00
H332   H     0.06004   0.80155   0.04837   0.00000  Uiso   1.00
H333   H     0.31905   0.77543   0.49391   0.00000  Uiso   1.00
H334   H     0.22259   0.90576   0.38067   0.00000  Uiso   1.00
H335   H     0.30406   0.91473   0.13698   0.00000  Uiso   1.00
N336   N     0.31574   0.84741   0.26416   0.00000  Uiso   1.00
N337   N     0.01759   0.81926   0.23584   0.00000  Uiso   1.00
O338   O     0.12797   0.90474   0.24633   0.00000  Uiso   1.00
O339   O     0.12496   0.96134   0.16654   0.00000  Uiso   1.00
O340   O     0.04210   0.99015   0.21707   0.00000  Uiso   1.00
O341   O     0.02013   0.92450   0.00087   0.00000  Uiso   1.00
O342   O     0.22732   0.68398   0.28705   0.00000  Uiso   1.00
O343   O     0.22858   0.91422   0.25587   0.00000  Uiso   1.00
O344   O     0.09181   0.82627   0.31840   0.00000  Uiso   1.00
O345   O     0.19242   0.83575   0.32793   0.00000  Uiso   1.00
O346   O     0.10476   0.75245   0.24414   0.00000  Uiso   1.00
O347   O     0.20536   0.76193   0.25367   0.00000  Uiso   1.00
O348   O     0.14092   0.83092   0.17207   0.00000  Uiso   1.00
O349   O     0.24152   0.84040   0.18160   0.00000  Uiso   1.00
O350   O     0.32615   0.90041   0.10479   0.00000  Uiso   1.00
C351   C     0.51461   0.93319   0.25202   0.00000  Uiso   1.00
C352   C     0.44543   0.83200   0.40362   0.00000  Uiso   1.00
C353   C     0.52005   0.98876   0.25776   0.00000  Uiso   1.00
C354   C     0.46632   0.83259   0.34731   0.00000  Uiso   1.00
C355   C     0.48183   0.67858   0.23850   0.00000  Uiso   1.00
C356   C     0.48574   0.73351   0.24717   0.00000  Uiso   1.00
C357   C     0.53434   0.83873   0.15287   0.00000  Uiso   1.00
C358   C     0.62847   0.89540   0.02415   0.00000  Uiso   1.00
C359   C     0.55547   0.84991   0.09766   0.00000  Uiso   1.00
C360   C     0.38420   0.80528   0.42530   0.00000  Uiso   1.00
C361   C     0.36666   0.79574   0.47746   0.00000  Uiso   1.00
C362   C     0.47311   0.83744   0.48787   0.00000  Uiso   1.00
C363   C     0.41054   0.81055   0.00838   0.00000  Uiso   1.00
C364   C     0.43848   0.98556   0.20501   0.00000  Uiso   1.00
C365   C     0.48835   0.85227   0.43584   0.00000  Uiso   1.00
C366   C     0.52081   0.85070   0.01731   0.00000  Uiso   1.00
C367   C     0.58064   0.88209   0.49578   0.00000  Uiso   1.00
C368   C     0.59148   0.90115   0.44638   0.00000  Uiso   1.00
C369   C     0.54581   0.88742   0.41742   0.00000  Uiso   1.00
C370   C     0.51093   0.83312   0.06730   0.00000  Uiso   1.00
C371   C     0.61500   0.88121   0.07601   0.00000  Uiso   1.00
Cu372  Cu    0.44043   0.82772   0.24436   0.00000  Uiso   1.00
Cu373  Cu    0.55957   0.83895   0.25565   0.00000  Uiso   1.00
H374   H     0.33707   0.87244   0.28935   0.00000  Uiso   1.00
H375   H     0.35086   0.97210   0.19102   0.00000  Uiso   1.00
H376   H     0.38368   0.92758   0.02357   0.00000  Uiso   1.00
H377   H     0.58021   0.99369   0.30253   0.00000  Uiso   1.00
H378   H     0.66293   0.79426   0.21063   0.00000  Uiso   1.00
H379   H     0.63543   0.92723   0.42972   0.00000  Uiso   1.00
H380   H     0.46790   0.80660   0.08418   0.00000  Uiso   1.00
H381   H     0.35028   0.79035   0.40165   0.00000  Uiso   1.00
H382   H     0.39337   0.80155   0.04837   0.00000  Uiso   1.00
H383   H     0.65238   0.77543   0.49391   0.00000  Uiso   1.00
H384   H     0.55592   0.90576   0.38067   0.00000  Uiso   1.00
H385   H     0.63740   0.91473   0.13698   0.00000  Uiso   1.00
N386   N     0.64908   0.84741   0.26416   0.00000  Uiso   1.00
N387   N     0.35092   0.81926   0.23584   0.00000  Uiso   1.00
O388   O     0.46131   0.90474   0.24633   0.00000  Uiso   1.00
O389   O     0.45829   0.96134   0.16654   0.00000  Uiso   1.00
O390   O     0.37543   0.99015   0.21707   0.00000  Uiso   1.00
O391   O     0.35346   0.92450   0.00087   0.00000  Uiso   1.00
O392   O     0.56066   0.68398   0.28705   0.00000  Uiso   1.00
O393   O     0.56191   0.91422   0.25587   0.00000  Uiso   1.00
O394   O     0.42515   0.82627   0.31840   0.00000  Uiso   1.00
O395   O     0.52575   0.83575   0.32793   0.00000  Uiso   1.00
O396   O     0.43809   0.75245   0.24414   0.00000  Uiso   1.00
O397   O     0.53869   0.76193   0.25367   0.00000  Uiso   1.00
O398   O     0.47425   0.83092   0.17207   0.00000  Uiso   1.00
O399   O     0.57485   0.84040   0.18160   0.00000  Uiso   1.00
O400   O     0.65948   0.90041   0.10479   0.00000  Uiso   1.00
C401   C     0.84794   0.93319   0.25202   0.00000  Uiso   1.00
C402   C     0.77877   0.83200   0.40362   0.00000  Uiso   1.00
C403   C     0.85339   0.98876   0.25776   0.00000  Uiso   1.00
C404   C     0.79965   0.83259   0.34731   0.00000  Uiso   1.00
C405   C     0.81516   0.67858   0.23850   0.00000  Uiso   1.00
C406   C     0.81907   0.73351   0.24717   0.00000  Uiso   1.00
C407   C     0.86768   0.83873   0.15287   0.00000  Uiso   1.00
C408   C     0.96180   0.89540   0.02415   0.00000  Uiso   1.00
C409   C     0.88880   0.84991   0.09766   0.00000  Uiso   1.00
C410   C     0.71753   0.80528   0.42530   0.00000  Uiso   1.00
C411   C     0.69999   0.79574   0.47746   0.00000  Uiso   1.00
C412   C     0.80644   0.83744   0.48787   0.00000  Uiso   1.00
C413   C     0.74387   0.81055   0.00838   0.00000  Uiso   1.00
C414   C     0.77181   0.98556   0.20501   0.00000  Uiso   1.00
C415   C     0.82169   0.85227   0.43584   0.00000  Uiso   1.00
C416   C     0.85414   0.85070   0.01731   0.00000  Uiso   1.00
C417   C     0.91397   0.88209   0.49578   0.00000  Uiso   1.00
C418   C     0.92481   0.90115   0.44638   0.00000  Uiso   1.00
C419   C     0.87915   0.88742   0.41742   0.00000  Uiso   1.00
C420   C     0.84426   0.83312   0.06730   0.00000  Uiso   1.00
C421   C     0.94833   0.88121   0.07601   0.00000  Uiso   1.00
Cu422  Cu    0.77377   0.82772   0.24436   0.00000  Uiso   1.00
Cu423  Cu    0.89290   0.83895   0.25565   0.00000  Uiso   1.00
H424   H     0.67041   0.87244   0.28935   0.00000  Uiso   1.00
H425   H     0.68419   0.97210   0.19102   0.00000  Uiso   1.00
H426   H     0.71701   0.92758   0.02357   0.00000  Uiso   1.00
H427   H     0.91354   0.99369   0.30253   0.00000  Uiso   1.00
H428   H     0.99626   0.79426   0.21063   0.00000  Uiso   1.00
H429   H     0.96876   0.92723   0.42972   0.00000  Uiso   1.00
H430   H     0.80124   0.80660   0.08418   0.00000  Uiso   1.00
H431   H     0.68361   0.79035   0.40165   0.00000  Uiso   1.00
H432   H     0.72671   0.80155   0.04837   0.00000  Uiso   1.00
H433   H     0.98572   0.77543   0.49391   0.00000  Uiso   1.00
H434   H     0.88925   0.90576   0.38067   0.00000  Uiso   1.00
H435   H     0.97073   0.91473   0.13698   0.00000  Uiso   1.00
N436   N     0.98241   0.84741   0.26416   0.00000  Uiso   1.00
N437   N     0.68426   0.81926   0.23584   0.00000  Uiso   1.00
O438   O     0.79464   0.90474   0.24633   0.00000  Uiso   1.00
O439   O     0.79163   0.96134   0.16654   0.00000  Uiso   1.00
O440   O     0.70876   0.99015   0.21707   0.00000  Uiso   1.00
O441   O     0.68679   0.92450   0.00087   0.00000  Uiso   1.00
O442   O     0.89399   0.68398   0.28705   0.00000  Uiso   1.00
O443   O     0.89524   0.91422   0.25587   0.00000  Uiso   1.00
O444   O     0.75848   0.82627   0.31840   0.00000  Uiso   1.00
O445   O     0.85908   0.83575   0.32793   0.00000  Uiso   1.00
O446   O     0.77142   0.75245   0.24414   0.00000  Uiso   1.00
O447   O     0.87203   0.76193   0.25367   0.00000  Uiso   1.00
O448   O     0.80758   0.83092   0.17207   0.00000  Uiso   1.00
O449   O     0.90819   0.84040   0.18160   0.00000  Uiso   1.00
O450   O     0.99282   0.90041   0.10479   0.00000  Uiso   1.00
C451   C     0.18128   0.26652   0.75202   0.00000  Uiso   1.00
C452   C     0.11210   0.16533   0.90362   0.00000  Uiso   1.00
C453   C     0.18672   0.32209   0.75776   0.00000  Uiso   1.00
C454   C     0.13299   0.16593   0.84731   0.00000  Uiso   1.00
C455   C     0.14850   0.01191   0.73850   0.00000  Uiso   1.00
C456   C     0.15241   0.06684   0.74717   0.00000  Uiso   1.00
C457   C     0.20101   0.17207   0.65287   0.00000  Uiso   1.00
C458   C     0.29513   0.22873   0.52415   0.00000  Uiso   1.00
C459   C     0.22213   0.18324   0.59766   0.00000  Uiso   1.00
C460   C     0.05086   0.13861   0.92530   0.00000  Uiso   1.00
C461   C     0.03332   0.12907   0.97746   0.00000  Uiso   1.00
C462   C     0.13977   0.17077   0.98787   0.00000  Uiso   1.00
C463   C     0.07721   0.14389   0.50838   0.00000  Uiso   1.00
C464   C     0.10514   0.31889   0.70501   0.00000  Uiso   1.00
C465   C     0.15502   0.18560   0.93584   0.00000  Uiso   1.00
C466   C     0.18747   0.18404   0.51731   0.00000  Uiso   1.00
C467   C     0.24730   0.21542   0.99578   0.00000  Uiso   1.00
C468   C     0.25814   0.23448   0.94638   0.00000  Uiso   1.00
C469   C     0.21248   0.22075   0.91742   0.00000  Uiso   1.00
C470   C     0.17759   0.16646   0.56730   0.00000  Uiso   1.00
C471   C     0.28167   0.21454   0.57601   0.00000  Uiso   1.00
Cu472  Cu    0.10710   0.16105   0.74436   0.00000  Uiso   1.00
Cu473  Cu    0.22623   0.17228   0.75565   0.00000  Uiso   1.00
H474   H     0.00374   0.20577   0.78935   0.00000  Uiso   1.00
H475   H     0.01753   0.30543   0.69102   0.00000  Uiso   1.00
H476   H     0.05034   0.26092   0.52357   0.00000  Uiso   1.00
H477   H     0.24687   0.32702   0.80253   0.00000  Uiso   1.00
H478   H     0.32959   0.12760   0.71063   0.00000  Uiso   1.00
H479   H     0.30209   0.26057   0.92972   0.00000  Uiso   1.00
H480   H     0.13457   0.13993   0.58418   0.00000  Uiso   1.00
H481   H     0.01695   0.12369   0.90165   0.00000  Uiso   1.00
H482   H     0.06004   0.13488   0.54837   0.00000  Uiso   1.00
H483   H     0.31905   0.10876   0.99391   0.00000  Uiso   1.00
H484   H     0.22259   0.23909   0.88067   0.00000  Uiso   1.00
H485   H     0.30406   0.24806   0.63698   0.00000  Uiso   1.00
N486   N     0.31574   0.18074   0.76416   0.00000  Uiso   1.00
N487   N     0.01759   0.15259   0.73584   0.00000  Uiso   1.00
O488   O     0.12797   0.23807   0.74633   0.00000  Uiso   1.00
O489   O     0.12496   0.29467   0.66654   0.00000  Uiso   1.00
O490   O     0.04210   0.32348   0.71707   0.00000  Uiso   1.00
O491   O     0.02013   0.25784   0.50087   0.00000  Uiso   1.00
O492   O     0.22732   0.01731   0.78705   0.00000  Uiso   1.00
O493   O     0.22858   0.24755   0.75587   0.00000  Uiso   1.00
O494   O     0.09181   0.15960   0.81840   0.00000  Uiso   1.00
O495   O     0.19242   0.16908   0.82793   0.00000  Uiso   1.00
O496   O     0.10476   0.08578   0.74414   0.00000  Uiso   1.00
O497   O     0.20536   0.09526   0.75367   0.00000  Uiso   1.00
O498   O     0.14092   0.16425   0.67207   0.00000  Uiso   1.00
O499   O     0.24152   0.17373   0.68160   0.00000  Uiso   1.00
O500   O     0.32615   0.23374   0.60479   0.00000  Uiso   1.00
C501   C     0.51461   0.26652   0.75202   0.00000  Uiso   1.00
C502   C     0.44543   0.16533   0.90362   0.00000  Uiso   1.00
C503   C     0.52005   0.32209   0.75776   0.00000  Uiso   1.00
C504   C     0.46632   0.16593   0.84731   0.00000  Uiso   1.00
C505   C     0.48183   0.01191   0.73850   0.00000  Uiso   1.00
C506   C     0.48574   0.06684   0.74717   0.00000  Uiso   1.00
C507   C     0.53434   0.17207   0.65287   0.00000  Uiso   1.00
C508   C     0.62847   0.22873   0.52415   0.00000  Uiso   1.00
C509   C     0.55547   0.18324   0.59766   0.00000  Uiso   1.00
C510   C     0.38420   0.13861   0.92530   0.00000  Uiso   1.00
C511   C     0.36666   0.12907   0.97746   0.00000  Uiso   1.00
C512   C     0.47311   0.17077   0.98787   0.00000  Uiso   1.00
C513   C     0.41054   0.14389   0.50838   0.00000  Uiso   1.00
C514   C     0.43848   0.31889   0.70501   0.00000  Uiso   1.00
C515   C     0.48835   0.18560   0.93584   0.00000  Uiso   1.00
C516   C     0.52081   0.18404   0.51731   0.00000  Uiso   1.00
C517   C     0.58064   0.21542   0.99578   0.00000  Uiso   1.00
C518   C     0.59148   0.23448   0.94638   0.00000  Uiso   1.00
C519   C     0.54581   0.22075   0.91742   0.00000  Uiso   1.00
C520   C     0.51093   0.16646   0.56730   0.00000  Uiso   1.00
C521   C     0.61500   0.21454   0.57601   0.00000  Uiso   1.00
Cu522  Cu    0.44043   0.16105   0.74436   0.00000  Uiso   1.00
Cu523  Cu    0.55957   0.17228   0.75565   0.00000  Uiso   1.00
H524   H     0.33707   0.20577   0.78935   0.00000  Uiso   1.00
H525   H     0.35086   0.30543   0.69102   0.00000  Uiso   1.00
H526   H     0.38368   0.26092   0.52357   0.00000  Uiso   1.00
H527   H     0.58021   0.32702   0.80253   0.00000  Uiso   1.00
H528   H     0.66293   0.12760   0.71063   0.00000  Uiso   1.00
H529   H     0.63543   0.26057   0.92972   0.00000  Uiso   1.00
H530   H     0.46790   0.13993   0.58418   0.00000  Uiso   1.00
H531   H     0.35028   0.12369   0.90165   0.00000  Uiso   1.00
H532   H     0.39337   0.13488   0.54837   0.00000  Uiso   1.00
H533   H     0.65238   0.10876   0.99391   0.00000  Uiso   1.00
H534   H     0.55592   0.23909   0.88067   0.00000  Uiso   1.00
H535   H     0.63740   0.24806   0.63698   0.00000  Uiso   1.00
N536   N     0.64908   0.18074   0.76416   0.00000  Uiso   1.00
N537   N     0.35092   0.15259   0.73584   0.00000  Uiso   1.00
O538   O     0.46131   0.23807   0.74633   0.00000  Uiso   1.00
O539   O     0.45829   0.29467   0.66654   0.00000  Uiso   1.00
O540   O     0.37543   0.32348   0.71707   0.00000  Uiso   1.00
O541   O     0.35346   0.25784   0.50087   0.00000  Uiso   1.00
O542   O     0.56066   0.01731   0.78705   0.00000  Uiso   1.00
O543   O     0.56191   0.24755   0.75587   0.00000  Uiso   1.00
O544   O     0.42515   0.15960   0.81840   0.00000  Uiso   1.00
O545   O     0.52575   0.16908   0.82793   0.00000  Uiso   1.00
O546   O     0.43809   0.08578   0.74414   0.00000  Uiso   1.00
O547   O     0.53869   0.09526   0.75367   0.00000  Uiso   1.00
O548   O     0.47425   0.16425   0.67207   0.00000  Uiso   1.00
O549   O     0.57485   0.17373   0.68160   0.00000  Uiso   1.00
O550   O     0.65948   0.23374   0.60479   0.00000  Uiso   1.00
C551   C     0.84794   0.26652   0.75202   0.00000  Uiso   1.00
C552   C     0.77877   0.16533   0.90362   0.00000  Uiso   1.00
C553   C     0.85339   0.32209   0.75776   0.00000  Uiso   1.00
C554   C     0.79965   0.16593   0.84731   0.00000  Uiso   1.00
C555   C     0.81516   0.01191   0.73850   0.00000  Uiso   1.00
C556   C     0.81907   0.06684   0.74717   0.00000  Uiso   1.00
C557   C     0.86768   0.17207   0.65287   0.00000  Uiso   1.00
C558   C     0.96180   0.22873   0.52415   0.00000  Uiso   1.00
C559   C     0.88880   0.18324   0.59766   0.00000  Uiso   1.00
C560   C     0.71753   0.13861   0.92530   0.00000  Uiso   1.00
C561   C     0.69999   0.12907   0.97746   0.00000  Uiso   1.00
C562   C     0.80644   0.17077   0.98787   0.00000  Uiso   1.00
C563   C     0.74387   0.14389   0.50838   0.00000  Uiso   1.00
C564   C     0.77181   0.31889   0.70501   0.00000  Uiso   1.00
C565   C     0.82169   0.18560   0.93584   0.00000  Uiso   1.00
C566   C     0.85414   0.18404   0.51731   0.00000  Uiso   1.00
C567   C     0.91397   0.21542   0.99578   0.00000  Uiso   1.00
C568   C     0.92481   0.23448   0.94638   0.00000  Uiso   1.00
C569   C     0.87915   0.22075   0.91742   0.00000  Uiso   1.00
C570   C     0.84426   0.16646   0.56730   0.00000  Uiso   1.00
C571   C     0.94833   0.21454   0.57601   0.00000  Uiso   1.00
Cu572  Cu    0.77377   0.16105   0.74436   0.00000  Uiso   1.00
Cu573  Cu    0.89290   0.17228   0.75565   0.00000  Uiso   1.00
H574   H     0.67041   0.20577   0.78935   0.00000  Uiso   1.00
H575   H     0.68419   0.30543   0.69102   0.00000  Uiso   1.00
H576   H     0.71701   0.26092   0.52357   0.00000  Uiso   1.00
H577   H     0.91354   0.32702   0.80253   0.00000  Uiso   1.00
H578   H     0.99626   0.12760   0.71063   0.00000  Uiso   1.00
H579   H     0.96876   0.26057   0.92972   0.00000  Uiso   1.00
H580   H     0.80124   0.13993   0.58418   0.00000  Uiso   1.00
H581   H     0.68361   0.12369   0.90165   0.00000  Uiso   1.00
H582   H     0.72671   0.13488   0.54837   0.00000  Uiso   1.00
H583   H     0.98572   0.10876   0.99391   0.00000  Uiso   1.00
H584   H     0.88925   0.23909   0.88067   0.00000  Uiso   1.00
H585   H     0.97073   0.24806   0.63698   0.00000  Uiso   1.00
N586   N     0.98241   0.18074   0.76416   0.00000  Uiso   1.00
N587   N     0.68426   0.15259   0.73584   0.00000  Uiso   1.00
O588   O     0.79464   0.23807   0.74633   0.00000  Uiso   1.00
O589   O     0.79163   0.29467   0.66654   0.00000  Uiso   1.00
O590   O     0.70876   0.32348   0.71707   0.00000  Uiso   1.00
O591   O     0.68679   0.25784   0.50087   0.00000  Uiso   1.00
O592   O     0.89399   0.01731   0.78705   0.00000  Uiso   1.00
O593   O     0.89524   0.24755   0.75587   0.00000  Uiso   1.00
O594   O     0.75848   0.15960   0.81840   0.00000  Uiso   1.00
O595   O     0.85908   0.16908   0.82793   0.00000  Uiso   1.00
O596   O     0.77142   0.08578   0.74414   0.00000  Uiso   1.00
O597   O     0.87203   0.09526   0.75367   0.00000  Uiso   1.00
O598   O     0.80758   0.16425   0.67207   0.00000  Uiso   1.00
O599   O     0.90819   0.17373   0.68160   0.00000  Uiso   1.00
O600   O     0.99282   0.23374   0.60479   0.00000  Uiso   1.00
C601   C     0.18128   0.59985   0.75202   0.00000  Uiso   1.00
C602   C     0.11210   0.49866   0.90362   0.00000  Uiso   1.00
C603   C     0.18672   0.65542   0.75776   0.00000  Uiso   1.00
C604   C     0.13299   0.49926   0.84731   0.00000  Uiso   1.00
C605   C     0.14850   0.34524   0.73850   0.00000  Uiso   1.00
C606   C     0.15241   0.40018   0.74717   0.00000  Uiso   1.00
C607   C     0.20101   0.50540   0.65287   0.00000  Uiso   1.00
C608   C     0.29513   0.56207   0.52415   0.00000  Uiso   1.00
C609   C     0.22213   0.51657   0.59766   0.00000  Uiso   1.00
C610   C     0.05086   0.47194   0.92530   0.00000  Uiso   1.00
C611   C     0.03332   0.46241   0.97746   0.00000  Uiso   1.00
C612   C     0.13977   0.50410   0.98787   0.00000  Uiso   1.00
C613   C     0.07721   0.47722   0.50838   0.00000  Uiso   1.00
C614   C     0.10514   0.65222   0.70501   0.00000  Uiso   1.00
C615   C     0.15502   0.51894   0.93584   0.00000  Uiso   1.00
C616   C     0.18747   0.51737   0.51731   0.00000  Uiso   1.00
C617   C     0.24730   0.54876   0.99578   0.00000  Uiso   1.00
C618   C     0.25814   0.56782   0.94638   0.00000  Uiso   1.00
C619   C     0.21248   0.55408   0.91742   0.00000  Uiso   1.00
C620   C     0.17759   0.49979   0.56730   0.00000  Uiso   1.00
C621   C     0.28167   0.54788   0.57601   0.00000  Uiso   1.00
Cu622  Cu    0.10710   0.49439   0.74436   0.00000  Uiso   1.00
Cu623  Cu    0.22623   0.50561   0.75565   0.00000  Uiso   1.00
H624   H     0.00374   0.53910   0.78935   0.00000  Uiso   1.00
H625   H     0.01753   0.63877   0.69102   0.00000  Uiso   1.00
H626   H     0.05034   0.59425   0.52357   0.00000  Uiso   1.00
H627   H     0.24687   0.66035   0.80253   0.00000  Uiso   1.00
H628   H     0.32959   0.46093   0.71063   0.00000  Uiso   1.00
H629   H     0.30209   0.59390   0.92972   0.00000  Uiso   1.00
H630   H     0.13457   0.47326   0.58418   0.00000  Uiso   1.00
H631   H     0.01695   0.45702   0.90165   0.00000  Uiso   1.00
H632   H     0.06004   0.46822   0.54837   0.00000  Uiso   1.00
H633   H     0.31905   0.44209   0.99391   0.00000  Uiso   1.00
H634   H     0.22259   0.57243   0.88067   0.00000  Uiso   1.00
H635   H     0.30406   0.58139   0.63698   0.00000  Uiso   1.00
N636   N     0.31574   0.51407   0.76416   0.00000  Uiso   1.00
N637   N     0.01759   0.48593   0.73584   0.00000  Uiso   1.00
O638   O     0.12797   0.57141   0.74633   0.00000  Uiso   1.00
O639   O     0.12496   0.62801   0.66654   0.00000  Uiso   1.00
O640   O     0.04210   0.65681   0.71707   0.00000  Uiso   1.00
O641   O     0.02013   0.59117   0.50087   0.00000  Uiso   1.00
O642   O     0.22732   0.35064   0.78705   0.00000  Uiso   1.00
O643   O     0.22858   0.58089   0.75587   0.00000  Uiso   1.00
O644   O     0.09181   0.49293   0.81840   0.00000  Uiso   1.00
O645   O     0.19242   0.50241   0.82793   0.00000  Uiso   1.00
O646   O     0.10476   0.41911   0.74414   0.00000  Uiso   1.00
O647   O     0.20536   0.42859   0.75367   0.00000  Uiso   1.00
O648   O     0.14092   0.49759   0.67207   0.00000  Uiso   1.00
O649   O     0.24152   0.50707   0.68160   0.00000  Uiso   1.00
O650   O     0.32615   0.56708   0.60479   0.00000  Uiso   1.00
C651   C     0.51461   0.59985   0.75202   0.00000  Uiso   1.00
C652   C     0.44543   0.49866   0.90362   0.00000  Uiso   1.00
C653   C     0.52005   0.65542   0.75776   0.00000  Uiso   1.00
C654   C     0.46632   0.49926   0.84731   0.00000  Uiso   1.00
C655   C     0.48183   0.34524   0.73850   0.00000  Uiso   1.00
C656   C     0.48574   0.40018   0.74717   0.00000  Uiso   1.00
C657   C     0.53434   0.50540   0.65287   0.00000  Uiso   1.00
C658   C     0.62847   0.56207   0.52415   0.00000  Uiso   1.00
C659   C     0.55547   0.51657   0.59766   0.00000  Uiso   1.00
C660   C     0.38420   0.47194   0.92530   0.00000  Uiso   1.00
C661   C     0.36666   0.46241   0.97746   0.00000  Uiso   1.00
C662   C     0.47311   0.50410   0.98787   0.00000  Uiso   1.00
C663   C     0.41054   0.47722   0.50838   0.00000  Uiso   1.00
C664   C     0.43848   0.65222   0.70501   0.00000  Uiso   1.00
C665   C     0.48835   0.51894   0.93584   0.00000  Uiso   1.00
C666   C     0.52081   0.51737   0.51731   0.00000  Uiso   1.00
C667   C     0.58064   0.54876   0.99578   0.00000  Uiso   1.00
C668   C     0.59148   0.56782   0.94638   0.00000  Uiso   1.00
C669   C     0.54581   0.55408   0.91742   0.00000  Uiso   1.00
C670   C     0.51093   0.49979   0.56730   0.00000  Uiso   1.00
C671   C     0.61500   0.54788   0.57601   0.00000  Uiso   1.00
Cu672  Cu    0.44043   0.49439   0.74436   0.00000  Uiso   1.00
Cu673  Cu    0.55957   0.50561   0.75565   0.00000  Uiso   1.00
H674   H     0.33707   0.53910   0.78935   0.00000  Uiso   1.00
H675   H     0.35086   0.63877   0.69102   0.00000  Uiso   1.00
H676   H     0.38368   0.59425   0.52357   0.00000  Uiso   1.00
H677   H     0.58021   0.66035   0.80253   0.00000  Uiso   1.00
H678   H     0.66293   0.46093   0.71063   0.00000  Uiso   1.00
H679   H     0.63543   0.59390   0.92972   0.00000  Uiso   1.00
H680   H     0.46790   0.47326   0.58418   0.00000  Uiso   1.00
H681   H     0.35028   0.45702   0.90165   0.00000  Uiso   1.00
H682   H     0.39337   0.46822   0.54837   0.00000  Uiso   1.00
H683   H     0.65238   0.44209   0.99391   0.00000  Uiso   1.00
H684   H     0.55592   0.57243   0.88067   0.00000  Uiso   1.00
H685   H     0.63740   0.58139   0.63698   0.00000  Uiso   1.00
N686   N     0.64908   0.51407   0.76416   0.00000  Uiso   1.00
N687   N     0.35092   0.48593   0.73584   0.00000  Uiso   1.00
O688   O     0.46131   0.57141   0.74633   0.00000  Uiso   1.00
O689   O     0.45829   0.62801   0.66654   0.00000  Uiso   1.00
O690   O     0.37543   0.65681   0.71707   0.00000  Uiso   1.00
O691   O     0.35346   0.59117   0.50087   0.00000  Uiso   1.00
O692   O     0.56066   0.35064   0.78705   0.00000  Uiso   1.00
O693   O     0.56191   0.58089   0.75587   0.00000  Uiso   1.00
O694   O     0.42515   0.49293   0.81840   0.00000  Uiso   1.00
O695   O     0.52575   0.50241   0.82793   0.00000  Uiso   1.00
O696   O     0.43809   0.41911   0.74414   0.00000  Uiso   1.00
O697   O     0.53869   0.42859   0.75367   0.00000  Uiso   1.00
O698   O     0.47425   0.49759   0.67207   0.00000  Uiso   1.00
O699   O     0.57485   0.50707   0.68160   0.00000  Uiso   1.00
O700   O     0.65948   0.56708   0.60479   0.00000  Uiso   1.00
C701   C     0.84794   0.59985   0.75202   0.00000  Uiso   1.00
C702   C     0.77877   0.49866   0.90362   0.00000  Uiso   1.00
C703   C     0.85339   0.65542   0.75776   0.00000  Uiso   1.00
C704   C     0.79965   0.49926   0.84731   0.00000  Uiso   1.00
C705   C     0.81516   0.34524   0.73850   0.00000  Uiso   1.00
C706   C     0.81907   0.40018   0.74717   0.00000  Uiso   1.00
C707   C     0.86768   0.50540   0.65287   0.00000  Uiso   1.00
C708   C     0.96180   0.56207   0.52415   0.00000  Uiso   1.00
C709   C     0.88880   0.51657   0.59766   0.00000  Uiso   1.00
C710   C     0.71753   0.47194   0.92530   0.00000  Uiso   1.00
C711   C     0.69999   0.46241   0.97746   0.00000  Uiso   1.00
C712   C     0.80644   0.50410   0.98787   0.00000  Uiso   1.00
C713   C     0.74387   0.47722   0.50838   0.00000  Uiso   1.00
C714   C     0.77181   0.65222   0.70501   0.00000  Uiso   1.00
C715   C     0.82169   0.51894   0.93584   0.00000  Uiso   1.00
C716   C     0.85414   0.51737   0.51731   0.00000  Uiso   1.00
C717   C     0.91397   0.54876   0.99578   0.00000  Uiso   1.00
C718   C     0.92481   0.56782   0.94638   0.00000  Uiso   1.00
C719   C     0.87915   0.55408   0.91742   0.00000  Uiso   1.00
C720   C     0.84426   0.49979   0.56730   0.00000  Uiso   1.00
C721   C     0.94833   0.54788   0.57601   0.00000  Uiso   1.00
Cu722  Cu    0.77377   0.49439   0.74436   0.00000  Uiso   1.00
Cu723  Cu    0.89290   0.50561   0.75565   0.00000  Uiso   1.00
H724   H     0.67041   0.53910   0.78935   0.00000  Uiso   1.00
H725   H     0.68419   0.63877   0.69102   0.00000  Uiso   1.00
H726   H     0.71701   0.59425   0.52357   0.00000  Uiso   1.00
H727   H     0.91354   0.66035   0.80253   0.00000  Uiso   1.00
H728   H     0.99626   0.46093   0.71063   0.00000  Uiso   1.00
H729   H     0.96876   0.59390   0.92972   0.00000  Uiso   1.00
H730   H     0.80124   0.47326   0.58418   0.00000  Uiso   1.00
H731   H     0.68361   0.45702   0.90165   0.00000  Uiso   1.00
H732   H     0.72671   0.46822   0.54837   0.00000  Uiso   1.00
H733   H     0.98572   0.44209   0.99391   0.00000  Uiso   1.00
H734   H     0.88925   0.57243   0.88067   0.00000  Uiso   1.00
H735   H     0.97073   0.58139   0.63698   0.00000  Uiso   1.00
N736   N     0.98241   0.51407   0.76416   0.00000  Uiso   1.00
N737   N     0.68426   0.48593   0.73584   0.00000  Uiso   1.00
O738   O     0.79464   0.57141   0.74633   0.00000  Uiso   1.00
O739   O     0.79163   0.62801   0.66654   0.00000  Uiso   1.00
O740   O     0.70876   0.65681   0.71707   0.00000  Uiso   1.00
O741   O     0.68679   0.59117   0.50087   0.00000  Uiso   1.00
O742   O     0.89399   0.35064   0.78705   0.00000  Uiso   1.00
O743   O     0.89524   0.58089   0.75587   0.00000  Uiso   1.00
O744   O     0.75848   0.49293   0.81840   0.00000  Uiso   1.00
O745   O     0.85908   0.50241   0.82793   0.00000  Uiso   1.00
O746   O     0.77142   0.41911   0.74414   0.00000  Uiso   1.00
O747   O     0.87203   0.42859   0.75367   0.00000  Uiso   1.00
O748   O     0.80758   0.49759   0.67207   0.00000  Uiso   1.00
O749   O     0.90819   0.50707   0.68160   0.00000  Uiso   1.00
O750   O     0.99282   0.56708   0.60479   0.00000  Uiso   1.00
C751   C     0.18128   0.93319   0.75202   0.00000  Uiso   1.00
C752   C     0.11210   0.83200   0.90362   0.00000  Uiso   1.00
C753   C     0.18672   0.98876   0.75776   0.00000  Uiso   1.00
C754   C     0.13299   0.83259   0.84731   0.00000  Uiso   1.00
C755   C     0.14850   0.67858   0.73850   0.00000  Uiso   1.00
C756   C     0.15241   0.73351   0.74717   0.00000  Uiso   1.00
C757   C     0.20101   0.83873   0.65287   0.00000  Uiso   1.00
C758   C     0.29513   0.89540   0.52415   0.00000  Uiso   1.00
C759   C     0.22213   0.84991   0.59766   0.00000  Uiso   1.00
C760   C     0.05086   0.80528   0.92530   0.00000  Uiso   1.00
C761   C     0.03332   0.79574   0.97746   0.00000  Uiso   1.00
C762   C     0.13977   0.83744   0.98787   0.00000  Uiso   1.00
C763   C     0.07721   0.81055   0.50838   0.00000  Uiso   1.00
C764   C     0.10514   0.98556   0.70501   0.00000  Uiso   1.00
C765   C     0.15502   0.85227   0.93584   0.00000  Uiso   1.00
C766   C     0.18747   0.85070   0.51731   0.00000  Uiso   1.00
C767   C     0.24730   0.88209   0.99578   0.00000  Uiso   1.00
C768   C     0.25814   0.90115   0.94638   0.00000  Uiso   1.00
C769   C     0.21248   0.88742   0.91742   0.00000  Uiso   1.00
C770   C     0.17759   0.83312   0.56730   0.00000  Uiso   1.00
C771   C     0.28167   0.88121   0.57601   0.00000  Uiso   1.00
Cu772  Cu    0.10710   0.82772   0.74436   0.00000  Uiso   1.00
Cu773  Cu    0.22623   0.83895   0.75565   0.00000  Uiso   1.00
H774   H     0.00374   0.87244   0.78935   0.00000  Uiso   1.00
H775   H     0.01753   0.97210   0.69102   0.00000  Uiso   1.00
H776   H     0.05034   0.92758   0.52357   0.00000  Uiso   1.00
H777   H     0.24687   0.99369   0.80253   0.00000  Uiso   1.00
H778   H     0.32959   0.79426   0.71063   0.00000  Uiso   1.00
H779   H     0.30209   0.92723   0.92972   0.00000  Uiso   1.00
H780   H     0.13457   0.80660   0.58418   0.00000  Uiso   1.00
H781   H     0.01695   0.79035   0.90165   0.00000  Uiso   1.00
H782   H     0.06004   0.80155   0.54837   0.00000  Uiso   1.00
H783   H     0.31905   0.77543   0.99391   0.00000  Uiso   1.00
H784   H     0.22259   0.90576   0.88067   0.00000  Uiso   1.00
H785   H     0.30406   0.91473   0.63698   0.00000  Uiso   1.00
N786   N     0.31574   0.84741   0.76416   0.00000  Uiso   1.00
N787   N     0.01759   0.81926   0.73584   0.00000  Uiso   1.00
O788   O     0.12797   0.90474   0.74633   0.00000  Uiso   1.00
O789   O     0.12496   0.96134   0.66654   0.00000  Uiso   1.00
O790   O     0.04210   0.99015   0.71707   0.00000  Uiso   1.00
O791   O     0.02013   0.92450   0.50087   0.00000  Uiso   1.00
O792   O     0.22732   0.68398   0.78705   0.00000  Uiso   1.00
O793   O     0.22858   0.91422   0.75587   0.00000  Uiso   1.00
O794   O     0.09181   0.82627   0.81840   0.00000  Uiso   1.00
O795   O     0.19242   0.83575   0.82793   0.00000  Uiso   1.00
O796   O     0.10476   0.75245   0.74414   0.00000  Uiso   1.00
O797   O     0.20536   0.76193   0.75367   0.00000  Uiso   1.00
O798   O     0.14092   0.83092   0.67207   0.00000  Uiso   1.00
O799   O     0.24152   0.84040   0.68160   0.00000  Uiso   1.00
O800   O     0.32615   0.90041   0.60479   0.00000  Uiso   1.00
C801   C     0.51461   0.93319   0.75202   0.00000  Uiso   1.00
C802   C     0.44543   0.83200   0.90362   0.00000  Uiso   1.00
C803   C     0.52005   0.98876   0.75776   0.00000  Uiso   1.00
C804   C     0.46632   0.83259   0.84731   0.00000  Uiso   1.00
C805   C     0.48183   0.67858   0.73850   0.00000  Uiso   1.00
C806   C     0.48574   0.73351   0.74717   0.00000  Uiso   1.00
C807   C     0.53434   0.83873   0.65287   0.00000  Uiso   1.00
C808   C     0.62847   0.89540   0.52415   0.00000  Uiso   1.00
C809   C     0.55547   0.84991   0.59766   0.00000  Uiso   1.00
C810   C     0.38420   0.80528   0.92530   0.00000  Uiso   1.00
C811   C     0.36666   0.79574   0.97746   0.00000  Uiso   1.00
C812   C     0.47311   0.83744   0.98787   0.00000  Uiso   1.00
C813   C     0.41054   0.81055   0.50838   0.00000  Uiso   1.00
C814   C     0.43848   0.98556   0.70501   0.00000  Uiso   1.00
C815   C     0.48835   0.85227   0.93584   0.00000  Uiso   1.00
C816   C     0.52081   0.85070   0.51731   0.00000  Uiso   1.00
C817   C     0.58064   0.88209   0.99578   0.00000  Uiso   1.00
C818   C     0.59148   0.90115   0.94638   0.00000  Uiso   1.00
C819   C     0.54581   0.88742   0.91742   0.00000  Uiso   1.00
C820   C     0.51093   0.83312   0.56730   0.00000  Uiso   1.00
C821   C     0.61500   0.88121   0.57601   0.00000  Uiso   1.00
Cu822  Cu    0.44043   0.82772   0.74436   0.00000  Uiso   1.00
Cu823  Cu    0.55957   0.83895   0.75565   0.00000  Uiso   1.00
H824   H     0.33707   0.87244   0.78935   0.00000  Uiso   1.00
H825   H     0.35086   0.97210   0.69102   0.00000  Uiso   1.00
H826   H     0.38368   0.92758   0.52357   0.00000  Uiso   1.00
H827   H     0.58021   0.99369   0.80253   0.00000  Uiso   1.00
H828   H     0.66293   0.79426   0.71063   0.00000  Uiso   1.00
H829   H     0.63543   0.92723   0.92972   0.00000  Uiso   1.00
H830   H     0.46790   0.80660   0.58418   0.00000  Uiso   1.00
H831   H     0.35028   0.79035   0.90165   0.00000  Uiso   1.00
H832   H     0.39337   0.80155   0.54837   0.00000  Uiso   1.00
H833   H     0.65238   0.77543   0.99391   0.00000  Uiso   1.00
H834   H     0.55592   0.90576   0.88067   0.00000  Uiso   1.00
H835   H     0.63740   0.91473   0.63698   0.00000  Uiso   1.00
N836   N     0.64908   0.84741   0.76416   0.00000  Uiso   1.00
N837   N     0.35092   0.81926   0.73584   0.00000  Uiso   1.00
O838   O     0.46131   0.90474   0.74633   0.00000  Uiso   1.00
O839   O     0.45829   0.96134   0.66654   0.00000  Uiso   1.00
O840   O     0.37543   0.99015   0.71707   0.00000  Uiso   1.00
O841   O     0.35346   0.92450   0.50087   0.00000  Uiso   1.00
O842   O     0.56066   0.68398   0.78705   0.00000  Uiso   1.00
O843   O     0.56191   0.91422   0.75587   0.00000  Uiso   1.00
O844   O     0.42515   0.82627   0.81840   0.00000  Uiso   1.00
O845   O     0.52575   0.83575   0.82793   0.00000  Uiso   1.00
O846   O     0.43809   0.75245   0.74414   0.00000  Uiso   1.00
O847   O     0.53869   0.76193   0.75367   0.00000  Uiso   1.00
O848   O     0.47425   0.83092   0.67207   0.00000  Uiso   1.00
O849   O     0.57485   0.84040   0.68160   0.00000  Uiso   1.00
O850   O     0.65948   0.90041   0.60479   0.00000  Uiso   1.00
C851   C     0.84794   0.93319   0.75202   0.00000  Uiso   1.00
C852   C     0.77877   0.83200   0.90362   0.00000  Uiso   1.00
C853   C     0.85339   0.98876   0.75776   0.00000  Uiso   1.00
C854   C     0.79965   0.83259   0.84731   0.00000  Uiso   1.00
C855   C     0.81516   0.67858   0.73850   0.00000  Uiso   1.00
C856   C     0.81907   0.73351   0.74717   0.00000  Uiso   1.00
C857   C     0.86768   0.83873   0.65287   0.00000  Uiso   1.00
C858   C     0.96180   0.89540   0.52415   0.00000  Uiso   1.00
C859   C     0.88880   0.84991   0.59766   0.00000  Uiso   1.00
C860   C     0.71753   0.80528   0.92530   0.00000  Uiso   1.00
C861   C     0.69999   0.79574   0.97746   0.00000  Uiso   1.00
C862   C     0.80644   0.83744   0.98787   0.00000  Uiso   1.00
C863   C     0.74387   0.81055   0.50838   0.00000  Uiso   1.00
C864   C     0.77181   0.98556   0.70501   0.00000  Uiso   1.00
C865   C     0.82169   0.85227   0.93584   0.00000  Uiso   1.00
C866   C     0.85414   0.85070   0.51731   0.00000  Uiso   1.00
C867   C     0.91397   0.88209   0.99578   0.00000  Uiso   1.00
C868   C     0.92481   0.90115   0.94638   0.00000  Uiso   1.00
C869   C     0.87915   0.88742   0.91742   0.00000  Uiso   1.00
C870   C     0.84426   0.83312   0.56730   0.00000  Uiso   1.00
C871   C     0.94833   0.88121   0.57601   0.00000  Uiso   1.00
Cu872  Cu    0.77377   0.82772   0.74436   0.00000  Uiso   1.00
Cu873  Cu    0.89290   0.83895   0.75565   0.00000  Uiso   1.00
H874   H     0.67041   0.87244   0.78935   0.00000  Uiso   1.00
H875   H     0.68419   0.97210   0.69102   0.00000  Uiso   1.00
H876   H     0.71701   0.92758   0.52357   0.00000  Uiso   1.00
H877   H     0.91354   0.99369   0.80253   0.00000  Uiso   1.00
H878   H     0.99626   0.79426   0.71063   0.00000  Uiso   1.00
H879   H     0.96876   0.92723   0.92972   0.00000  Uiso   1.00
H880   H     0.80124   0.80660   0.58418   0.00000  Uiso   1.00
H881   H     0.68361   0.79035   0.90165   0.00000  Uiso   1.00
H882   H     0.72671   0.80155   0.54837   0.00000  Uiso   1.00
H883   H     0.98572   0.77543   0.99391   0.00000  Uiso   1.00
H884   H     0.88925   0.90576   0.88067   0.00000  Uiso   1.00
H885   H     0.97073   0.91473   0.63698   0.00000  Uiso   1.00
N886   N     0.98241   0.84741   0.76416   0.00000  Uiso   1.00
N887   N     0.68426   0.81926   0.73584   0.00000  Uiso   1.00
O888   O     0.79464   0.90474   0.74633   0.00000  Uiso   1.00
O889   O     0.79163   0.96134   0.66654   0.00000  Uiso   1.00
O890   O     0.70876   0.99015   0.71707   0.00000  Uiso   1.00
O891   O     0.68679   0.92450   0.50087   0.00000  Uiso   1.00
O892   O     0.89399   0.68398   0.78705   0.00000  Uiso   1.00
O893   O     0.89524   0.91422   0.75587   0.00000  Uiso   1.00
O894   O     0.75848   0.82627   0.81840   0.00000  Uiso   1.00
O895   O     0.85908   0.83575   0.82793   0.00000  Uiso   1.00
O896   O     0.77142   0.75245   0.74414   0.00000  Uiso   1.00
O897   O     0.87203   0.76193   0.75367   0.00000  Uiso   1.00
O898   O     0.80758   0.83092   0.67207   0.00000  Uiso   1.00
O899   O     0.90819   0.84040   0.68160   0.00000  Uiso   1.00
O900   O     0.99282   0.90041   0.60479   0.00000  Uiso   1.00
loop_
_geom_bond_atom_site_label_1
_geom_bond_atom_site_label_2
_geom_bond_distance
_geom_bond_site_symmetry_2
_ccdc_geom_bond_type
C1     O38     1.289   .     A
C1     O43     1.286   .     A
C1     C3      1.440   .     S
C2     C4      1.476   .     S
C2     C15     1.422   .     A
C2     C10     1.401   .     A
C3     C155    1.352   .     S
C3     O192    1.390   .     S
C4     O45     1.294   .     A
C4     O44     1.303   .     A
C5     C6      1.434   .     S
C5     C303    1.352   1_545 S
C5     C314    1.491   1_545 S
C6     O46     1.287   .     A
C6     O47     1.288   .     A
C7     O48     1.296   .     A
C7     O49     1.301   .     A
C7     C9      1.477   .     S
C8     C21     1.411   .     A
C8     C467    1.412   1_554 S
C8     O91     1.385   .     S
C9     C21     1.416   .     A
C9     C20     1.398   .     A
C10    C11     1.388   .     A
C10    H31     1.083   .     S
C11    C463    1.393   .     S
C11    H133    1.083   1_455 S
C12    C15     1.418   .     A
C12    C463    1.418   .     S
C12    C466    1.429   .     S
C13    H32     1.077   .     S
C13    C462    1.418   1_554 S
C13    C461    1.393   1_554 S
C14    O40     1.398   .     S
C14    O39     1.224   .     D
C14    C155    1.491   .     S
C15    C19     1.409   .     A
C16    C20     1.400   .     A
C16    C462    1.429   1_554 S
C16    C467    1.421   1_554 S
C17    C18     1.397   .     A
C17    C466    1.421   .     S
C17    C458    1.412   .     S
C18    H29     1.083   .     S
C18    C19     1.384   .     A
C19    H34     1.081   .     S
C20    H30     1.077   .     S
C21    O50     1.377   .     S
Cu22   O48     1.915   .     S
Cu22   O46     1.968   .     S
Cu22   O38     1.975   .     S
Cu22   Cu23    2.683   .     S
Cu22   N37     2.016   .     S
Cu22   O44     1.938   .     S
Cu23   O45     1.915   .     S
Cu23   N36     2.016   .     S
Cu23   O49     1.938   .     S
Cu23   O47     1.975   .     S
Cu23   O43     1.968   .     S
H24    N136    1.029   1_455 S
H25    O40     1.011   .     S
H26    O41     0.990   .     S
H27    O192    0.991   .     S
H28    N87     1.029   .     S
H33    C61     1.083   .     S
H35    O50     0.988   .     S
N36    H74     1.029   .     S
N36    N87     1.286   .     S
N37    N136    1.286   1_455 S
N37    H128    1.029   1_455 S
O41    C108    1.385   1_455 S
O42    H327    0.991   1_545 S
O42    C303    1.390   1_545 S
C51    O88     1.289   .     A
C51    O93     1.286   .     A
C51    C53     1.440   .     S
C52    C54     1.476   .     S
C52    C65     1.422   .     A
C52    C60     1.401   .     A
C53    C205    1.352   .     S
C53    O242    1.390   .     S
C54    O95     1.294   .     A
C54    O94     1.303   .     A
C55    C56     1.434   .     S
C55    C353    1.352   1_545 S
C55    C364    1.491   1_545 S
C56    O96     1.287   .     A
C56    O97     1.288   .     A
C57    O98     1.296   .     A
C57    O99     1.301   .     A
C57    C59     1.477   .     S
C58    C71     1.411   .     A
C58    C517    1.412   1_554 S
C58    O141    1.385   .     S
C59    C71     1.416   .     A
C59    C70     1.398   .     A
C60    C61     1.388   .     A
C60    H81     1.083   .     S
C61    C513    1.393   .     S
C62    C65     1.418   .     A
C62    C513    1.418   .     S
C62    C516    1.429   .     S
C63    H82     1.077   .     S
C63    C512    1.418   1_554 S
C63    C511    1.393   1_554 S
C64    O90     1.398   .     S
C64    O89     1.224   .     D
C64    C205    1.491   .     S
C65    C69     1.409   .     A
C66    C70     1.400   .     A
C66    C512    1.429   1_554 S
C66    C517    1.421   1_554 S
C67    C68     1.397   .     A
C67    C516    1.421   .     S
C67    C508    1.412   .     S
C68    H79     1.083   .     S
C68    C69     1.384   .     A
C69    H84     1.081   .     S
C70    H80     1.077   .     S
C71    O100    1.377   .     S
Cu72   O98     1.915   .     S
Cu72   O96     1.968   .     S
Cu72   O88     1.975   .     S
Cu72   Cu73    2.683   .     S
Cu72   N87     2.016   .     S
Cu72   O94     1.938   .     S
Cu73   O95     1.915   .     S
Cu73   N86     2.016   .     S
Cu73   O99     1.938   .     S
Cu73   O97     1.975   .     S
Cu73   O93     1.968   .     S
H75    O90     1.011   .     S
H76    O91     0.990   .     S
H77    O242    0.991   .     S
H78    N137    1.029   .     S
H83    C111    1.083   .     S
H85    O100    0.988   .     S
N86    H124    1.029   .     S
N86    N137    1.286   .     S
O92    H377    0.991   1_545 S
O92    C353    1.390   1_545 S
C101   O138    1.289   .     A
C101   O143    1.286   .     A
C101   C103    1.440   .     S
C102   C104    1.476   .     S
C102   C115    1.422   .     A
C102   C110    1.401   .     A
C103   C255    1.352   .     S
C103   O292    1.390   .     S
C104   O145    1.294   .     A
C104   O144    1.303   .     A
C105   C106    1.434   .     S
C105   C403    1.352   1_545 S
C105   C414    1.491   1_545 S
C106   O146    1.287   .     A
C106   O147    1.288   .     A
C107   O148    1.296   .     A
C107   O149    1.301   .     A
C107   C109    1.477   .     S
C108   C121    1.411   .     A
C108   C567    1.412   1_554 S
C108   O41     1.385   1_655 S
C109   C121    1.416   .     A
C109   C120    1.398   .     A
C110   C111    1.388   .     A
C110   H131    1.083   .     S
C111   C563    1.393   .     S
C112   C115    1.418   .     A
C112   C563    1.418   .     S
C112   C566    1.429   .     S
C113   H132    1.077   .     S
C113   C562    1.418   1_554 S
C113   C561    1.393   1_554 S
C114   O140    1.398   .     S
C114   O139    1.224   .     D
C114   C255    1.491   .     S
C115   C119    1.409   .     A
C116   C120    1.400   .     A
C116   C562    1.429   1_554 S
C116   C567    1.421   1_554 S
C117   C118    1.397   .     A
C117   C566    1.421   .     S
C117   C558    1.412   .     S
C118   H129    1.083   .     S
C118   C119    1.384   .     A
C119   H134    1.081   .     S
C120   H130    1.077   .     S
C121   O150    1.377   .     S
Cu122  O148    1.915   .     S
Cu122  O146    1.968   .     S
Cu122  O138    1.975   .     S
Cu122  Cu123   2.683   .     S
Cu122  N137    2.016   .     S
Cu122  O144    1.938   .     S
Cu123  O145    1.915   .     S
Cu123  N136    2.016   .     S
Cu123  O149    1.938   .     S
Cu123  O147    1.975   .     S
Cu123  O143    1.968   .     S
H125   O140    1.011   .     S
H126   O141    0.990   .     S
H127   O292    0.991   .     S
H128   N37     1.029   1_655 S
H133   C11     1.083   1_655 S
H135   O150    0.988   .     S
N136   H24     1.029   1_655 S
N136   N37     1.286   1_655 S
O142   H427    0.991   1_545 S
O142   C403    1.390   1_545 S
C151   O188    1.289   .     A
C151   O193    1.286   .     A
C151   C153    1.440   .     S
C152   C154    1.476   .     S
C152   C165    1.422   .     A
C152   C160    1.401   .     A
C153   C305    1.352   .     S
C153   O342    1.390   .     S
C154   O195    1.294   .     A
C154   O194    1.303   .     A
C155   C156    1.434   .     S
C156   O196    1.287   .     A
C156   O197    1.288   .     A
C157   O198    1.296   .     A
C157   O199    1.301   .     A
C157   C159    1.477   .     S
C158   C171    1.411   .     A
C158   C617    1.412   1_554 S
C158   O241    1.385   .     S
C159   C171    1.416   .     A
C159   C170    1.398   .     A
C160   C161    1.388   .     A
C160   H181    1.083   .     S
C161   C613    1.393   .     S
C161   H283    1.083   1_455 S
C162   C165    1.418   .     A
C162   C613    1.418   .     S
C162   C616    1.429   .     S
C163   H182    1.077   .     S
C163   C612    1.418   1_554 S
C163   C611    1.393   1_554 S
C164   O190    1.398   .     S
C164   O189    1.224   .     D
C164   C305    1.491   .     S
C165   C169    1.409   .     A
C166   C170    1.400   .     A
C166   C612    1.429   1_554 S
C166   C617    1.421   1_554 S
C167   C168    1.397   .     A
C167   C616    1.421   .     S
C167   C608    1.412   .     S
C168   H179    1.083   .     S
C168   C169    1.384   .     A
C169   H184    1.081   .     S
C170   H180    1.077   .     S
C171   O200    1.377   .     S
Cu172  O198    1.915   .     S
Cu172  O196    1.968   .     S
Cu172  O188    1.975   .     S
Cu172  Cu173   2.683   .     S
Cu172  N187    2.016   .     S
Cu172  O194    1.938   .     S
Cu173  O195    1.915   .     S
Cu173  N186    2.016   .     S
Cu173  O199    1.938   .     S
Cu173  O197    1.975   .     S
Cu173  O193    1.968   .     S
H174   N286    1.029   1_455 S
H175   O190    1.011   .     S
H176   O191    0.990   .     S
H177   O342    0.991   .     S
H178   N237    1.029   .     S
H183   C211    1.083   .     S
H185   O200    0.988   .     S
N186   H224    1.029   .     S
N186   N237    1.286   .     S
N187   N286    1.286   1_455 S
N187   H278    1.029   1_455 S
O191   C258    1.385   1_455 S
C201   O238    1.289   .     A
C201   O243    1.286   .     A
C201   C203    1.440   .     S
C202   C204    1.476   .     S
C202   C215    1.422   .     A
C202   C210    1.401   .     A
C203   C355    1.352   .     S
C203   O392    1.390   .     S
C204   O245    1.294   .     A
C204   O244    1.303   .     A
C205   C206    1.434   .     S
C206   O246    1.287   .     A
C206   O247    1.288   .     A
C207   O248    1.296   .     A
C207   O249    1.301   .     A
C207   C209    1.477   .     S
C208   C221    1.411   .     A
C208   C667    1.412   1_554 S
C208   O291    1.385   .     S
C209   C221    1.416   .     A
C209   C220    1.398   .     A
C210   C211    1.388   .     A
C210   H231    1.083   .     S
C211   C663    1.393   .     S
C212   C215    1.418   .     A
C212   C663    1.418   .     S
C212   C666    1.429   .     S
C213   H232    1.077   .     S
C213   C662    1.418   1_554 S
C213   C661    1.393   1_554 S
C214   O240    1.398   .     S
C214   O239    1.224   .     D
C214   C355    1.491   .     S
C215   C219    1.409   .     A
C216   C220    1.400   .     A
C216   C662    1.429   1_554 S
C216   C667    1.421   1_554 S
C217   C218    1.397   .     A
C217   C666    1.421   .     S
C217   C658    1.412   .     S
C218   H229    1.083   .     S
C218   C219    1.384   .     A
C219   H234    1.081   .     S
C220   H230    1.077   .     S
C221   O250    1.377   .     S
Cu222  O248    1.915   .     S
Cu222  O246    1.968   .     S
Cu222  O238    1.975   .     S
Cu222  Cu223   2.683   .     S
Cu222  N237    2.016   .     S
Cu222  O244    1.938   .     S
Cu223  O245    1.915   .     S
Cu223  N236    2.016   .     S
Cu223  O249    1.938   .     S
Cu223  O247    1.975   .     S
Cu223  O243    1.968   .     S
H225   O240    1.011   .     S
H226   O241    0.990   .     S
H227   O392    0.991   .     S
H228   N287    1.029   .     S
H233   C261    1.083   .     S
H235   O250    0.988   .     S
N236   H274    1.029   .     S
N236   N287    1.286   .     S
C251   O288    1.289   .     A
C251   O293    1.286   .     A
C251   C253    1.440   .     S
C252   C254    1.476   .     S
C252   C265    1.422   .     A
C252   C260    1.401   .     A
C253   C405    1.352   .     S
C253   O442    1.390   .     S
C254   O295    1.294   .     A
C254   O294    1.303   .     A
C255   C256    1.434   .     S
C256   O296    1.287   .     A
C256   O297    1.288   .     A
C257   O298    1.296   .     A
C257   O299    1.301   .     A
C257   C259    1.477   .     S
C258   C271    1.411   .     A
C258   C717    1.412   1_554 S
C258   O191    1.385   1_655 S
C259   C271    1.416   .     A
C259   C270    1.398   .     A
C260   C261    1.388   .     A
C260   H281    1.083   .     S
C261   C713    1.393   .     S
C262   C265    1.418   .     A
C262   C713    1.418   .     S
C262   C716    1.429   .     S
C263   H282    1.077   .     S
C263   C712    1.418   1_554 S
C263   C711    1.393   1_554 S
C264   O290    1.398   .     S
C264   O289    1.224   .     D
C264   C405    1.491   .     S
C265   C269    1.409   .     A
C266   C270    1.400   .     A
C266   C712    1.429   1_554 S
C266   C717    1.421   1_554 S
C267   C268    1.397   .     A
C267   C716    1.421   .     S
C267   C708    1.412   .     S
C268   H279    1.083   .     S
C268   C269    1.384   .     A
C269   H284    1.081   .     S
C270   H280    1.077   .     S
C271   O300    1.377   .     S
Cu272  O298    1.915   .     S
Cu272  O296    1.968   .     S
Cu272  O288    1.975   .     S
Cu272  Cu273   2.683   .     S
Cu272  N287    2.016   .     S
Cu272  O294    1.938   .     S
Cu273  O295    1.915   .     S
Cu273  N286    2.016   .     S
Cu273  O299    1.938   .     S
Cu273  O297    1.975   .     S
Cu273  O293    1.968   .     S
H275   O290    1.011   .     S
H276   O291    0.990   .     S
H277   O442    0.991   .     S
H278   N187    1.029   1_655 S
H283   C161    1.083   1_655 S
H285   O300    0.988   .     S
N286   H174    1.029   1_655 S
N286   N187    1.286   1_655 S
C301   O338    1.289   .     A
C301   O343    1.286   .     A
C301   C303    1.440   .     S
C302   C304    1.476   .     S
C302   C315    1.422   .     A
C302   C310    1.401   .     A
C303   C5      1.352   1_565 S
C303   O42     1.390   1_565 S
C304   O345    1.294   .     A
C304   O344    1.303   .     A
C305   C306    1.434   .     S
C306   O346    1.287   .     A
C306   O347    1.288   .     A
C307   O348    1.296   .     A
C307   O349    1.301   .     A
C307   C309    1.477   .     S
C308   C321    1.411   .     A
C308   C767    1.412   1_554 S
C308   O391    1.385   .     S
C309   C321    1.416   .     A
C309   C320    1.398   .     A
C310   C311    1.388   .     A
C310   H331    1.083   .     S
C311   C763    1.393   .     S
C311   H433    1.083   1_455 S
C312   C315    1.418   .     A
C312   C763    1.418   .     S
C312   C766    1.429   .     S
C313   H332    1.077   .     S
C313   C762    1.418   1_554 S
C313   C761    1.393   1_554 S
C314   O340    1.398   .     S
C314   O339    1.224   .     D
C314   C5      1.491   1_565 S
C315   C319    1.409   .     A
C316   C320    1.400   .     A
C316   C762    1.429   1_554 S
C316   C767    1.421   1_554 S
C317   C318    1.397   .     A
C317   C766    1.421   .     S
C317   C758    1.412   .     S
C318   H329    1.083   .     S
C318   C319    1.384   .     A
C319   H334    1.081   .     S
C320   H330    1.077   .     S
C321   O350    1.377   .     S
Cu322  O348    1.915   .     S
Cu322  O346    1.968   .     S
Cu322  O338    1.975   .     S
Cu322  Cu323   2.683   .     S
Cu322  N337    2.016   .     S
Cu322  O344    1.938   .     S
Cu323  O345    1.915   .     S
Cu323  N336    2.016   .     S
Cu323  O349    1.938   .     S
Cu323  O347    1.975   .     S
Cu323  O343    1.968   .     S
H324   N436    1.029   1_455 S
H325   O340    1.011   .     S
H326   O341    0.990   .     S
H327   O42     0.991   1_565 S
H328   N387    1.029   .     S
H333   C361    1.083   .     S
H335   O350    0.988   .     S
N336   H374    1.029   .     S
N336   N387    1.286   .     S
N337   N436    1.286   1_455 S
N337   H428    1.029   1_455 S
O341   C408    1.385   1_455 S
C351   O388    1.289   .     A
C351   O393    1.286   .     A
C351   C353    1.440   .     S
C352   C354    1.476   .     S
C352   C365    1.422   .     A
C352   C360    1.401   .     A
C353   C55     1.352   1_565 S
C353   O92     1.390   1_565 S
C354   O395    1.294   .     A
C354   O394    1.303   .     A
C355   C356    1.434   .     S
C356   O396    1.287   .     A
C356   O397    1.288   .     A
C357   O398    1.296   .     A
C357   O399    1.301   .     A
C357   C359    1.477   .     S
C358   C371    1.411   .     A
C358   C817    1.412   1_554 S
C358   O441    1.385   .     S
C359   C371    1.416   .     A
C359   C370    1.398   .     A
C360   C361    1.388   .     A
C360   H381    1.083   .     S
C361   C813    1.393   .     S
C362   C365    1.418   .     A
C362   C813    1.418   .     S
C362   C816    1.429   .     S
C363   H382    1.077   .     S
C363   C812    1.418   1_554 S
C363   C811    1.393   1_554 S
C364   O390    1.398   .     S
C364   O389    1.224   .     D
C364   C55     1.491   1_565 S
C365   C369    1.409   .     A
C366   C370    1.400   .     A
C366   C812    1.429   1_554 S
C366   C817    1.421   1_554 S
C367   C368    1.397   .     A
C367   C816    1.421   .     S
C367   C808    1.412   .     S
C368   H379    1.083   .     S
C368   C369    1.384   .     A
C369   H384    1.081   .     S
C370   H380    1.077   .     S
C371   O400    1.377   .     S
Cu372  O398    1.915   .     S
Cu372  O396    1.968   .     S
Cu372  O388    1.975   .     S
Cu372  Cu373   2.683   .     S
Cu372  N387    2.016   .     S
Cu372  O394    1.938   .     S
Cu373  O395    1.915   .     S
Cu373  N386    2.016   .     S
Cu373  O399    1.938   .     S
Cu373  O397    1.975   .     S
Cu373  O393    1.968   .     S
H375   O390    1.011   .     S
H376   O391    0.990   .     S
H377   O92     0.991   1_565 S
H378   N437    1.029   .     S
H383   C411    1.083   .     S
H385   O400    0.988   .     S
N386   H424    1.029   .     S
N386   N437    1.286   .     S
C401   O438    1.289   .     A
C401   O443    1.286   .     A
C401   C403    1.440   .     S
C402   C404    1.476   .     S
C402   C415    1.422   .     A
C402   C410    1.401   .     A
C403   C105    1.352   1_565 S
C403   O142    1.390   1_565 S
C404   O445    1.294   .     A
C404   O444    1.303   .     A
C405   C406    1.434   .     S
C406   O446    1.287   .     A
C406   O447    1.288   .     A
C407   O448    1.296   .     A
C407   O449    1.301   .     A
C407   C409    1.477   .     S
C408   C421    1.411   .     A
C408   C867    1.412   1_554 S
C408   O341    1.385   1_655 S
C409   C421    1.416   .     A
C409   C420    1.398   .     A
C410   C411    1.388   .     A
C410   H431    1.083   .     S
C411   C863    1.393   .     S
C412   C415    1.418   .     A
C412   C863    1.418   .     S
C412   C866    1.429   .     S
C413   H432    1.077   .     S
C413   C862    1.418   1_554 S
C413   C861    1.393   1_554 S
C414   O440    1.398   .     S
C414   O439    1.224   .     D
C414   C105    1.491   1_565 S
C415   C419    1.409   .     A
C416   C420    1.400   .     A
C416   C862    1.429   1_554 S
C416   C867    1.421   1_554 S
C417   C418    1.397   .     A
C417   C866    1.421   .     S
C417   C858    1.412   .     S
C418   H429    1.083   .     S
C418   C419    1.384   .     A
C419   H434    1.081   .     S
C420   H430    1.077   .     S
C421   O450    1.377   .     S
Cu422  O448    1.915   .     S
Cu422  O446    1.968   .     S
Cu422  O438    1.975   .     S
Cu422  Cu423   2.683   .     S
Cu422  N437    2.016   .     S
Cu422  O444    1.938   .     S
Cu423  O445    1.915   .     S
Cu423  N436    2.016   .     S
Cu423  O449    1.938   .     S
Cu423  O447    1.975   .     S
Cu423  O443    1.968   .     S
H425   O440    1.011   .     S
H426   O441    0.990   .     S
H427   O142    0.991   1_565 S
H428   N337    1.029   1_655 S
H433   C311    1.083   1_655 S
H435   O450    0.988   .     S
N436   H324    1.029   1_655 S
N436   N337    1.286   1_655 S
C451   O488    1.289   .     A
C451   O493    1.286   .     A
C451   C453    1.440   .     S
C452   C454    1.476   .     S
C452   C465    1.422   .     A
C452   C460    1.401   .     A
C453   C605    1.352   .     S
C453   O642    1.390   .     S
C454   O495    1.294   .     A
C454   O494    1.303   .     A
C455   C456    1.434   .     S
C455   C753    1.352   1_545 S
C455   C764    1.491   1_545 S
C456   O496    1.287   .     A
C456   O497    1.288   .     A
C457   O498    1.296   .     A
C457   O499    1.301   .     A
C457   C459    1.477   .     S
C458   C471    1.411   .     A
C458   O541    1.385   .     S
C459   C471    1.416   .     A
C459   C470    1.398   .     A
C460   C461    1.388   .     A
C460   H481    1.083   .     S
C461   C13     1.393   1_556 S
C461   H583    1.083   1_455 S
C462   C465    1.418   .     A
C462   C13     1.418   1_556 S
C462   C16     1.429   1_556 S
C463   H482    1.077   .     S
C464   O490    1.398   .     S
C464   O489    1.224   .     D
C464   C605    1.491   .     S
C465   C469    1.409   .     A
C466   C470    1.400   .     A
C467   C468    1.397   .     A
C467   C16     1.421   1_556 S
C467   C8      1.412   1_556 S
C468   H479    1.083   .     S
C468   C469    1.384   .     A
C469   H484    1.081   .     S
C470   H480    1.077   .     S
C471   O500    1.377   .     S
Cu472  O498    1.915   .     S
Cu472  O496    1.968   .     S
Cu472  O488    1.975   .     S
Cu472  Cu473   2.683   .     S
Cu472  N487    2.016   .     S
Cu472  O494    1.938   .     S
Cu473  O495    1.915   .     S
Cu473  N486    2.016   .     S
Cu473  O499    1.938   .     S
Cu473  O497    1.975   .     S
Cu473  O493    1.968   .     S
H474   N586    1.029   1_455 S
H475   O490    1.011   .     S
H476   O491    0.990   .     S
H477   O642    0.991   .     S
H478   N537    1.029   .     S
H483   C511    1.083   .     S
H485   O500    0.988   .     S
N486   H524    1.029   .     S
N486   N537    1.286   .     S
N487   N586    1.286   1_455 S
N487   H578    1.029   1_455 S
O491   C558    1.385   1_455 S
O492   H777    0.991   1_545 S
O492   C753    1.390   1_545 S
C501   O538    1.289   .     A
C501   O543    1.286   .     A
C501   C503    1.440   .     S
C502   C504    1.476   .     S
C502   C515    1.422   .     A
C502   C510    1.401   .     A
C503   C655    1.352   .     S
C503   O692    1.390   .     S
C504   O545    1.294   .     A
C504   O544    1.303   .     A
C505   C506    1.434   .     S
C505   C803    1.352   1_545 S
C505   C814    1.491   1_545 S
C506   O546    1.287   .     A
C506   O547    1.288   .     A
C507   O548    1.296   .     A
C507   O549    1.301   .     A
C507   C509    1.477   .     S
C508   C521    1.411   .     A
C508   O591    1.385   .     S
C509   C521    1.416   .     A
C509   C520    1.398   .     A
C510   C511    1.388   .     A
C510   H531    1.083   .     S
C511   C63     1.393   1_556 S
C512   C515    1.418   .     A
C512   C63     1.418   1_556 S
C512   C66     1.429   1_556 S
C513   H532    1.077   .     S
C514   O540    1.398   .     S
C514   O539    1.224   .     D
C514   C655    1.491   .     S
C515   C519    1.409   .     A
C516   C520    1.400   .     A
C517   C518    1.397   .     A
C517   C66     1.421   1_556 S
C517   C58     1.412   1_556 S
C518   H529    1.083   .     S
C518   C519    1.384   .     A
C519   H534    1.081   .     S
C520   H530    1.077   .     S
C521   O550    1.377   .     S
Cu522  O548    1.915   .     S
Cu522  O546    1.968   .     S
Cu522  O538    1.975   .     S
Cu522  Cu523   2.683   .     S
Cu522  N537    2.016   .     S
Cu522  O544    1.938   .     S
Cu523  O545    1.915   .     S
Cu523  N536    2.016   .     S
Cu523  O549    1.938   .     S
Cu523  O547    1.975   .     S
Cu523  O543    1.968   .     S
H525   O540    1.011   .     S
H526   O541    0.990   .     S
H527   O692    0.991   .     S
H528   N587    1.029   .     S
H533   C561    1.083   .     S
H535   O550    0.988   .     S
N536   H574    1.029   .     S
N536   N587    1.286   .     S
O542   H827    0.991   1_545 S
O542   C803    1.390   1_545 S
C551   O588    1.289   .     A
C551   O593    1.286   .     A
C551   C553    1.440   .     S
C552   C554    1.476   .     S
C552   C565    1.422   .     A
C552   C560    1.401   .     A
C553   C705    1.352   .     S
C553   O742    1.390   .     S
C554   O595    1.294   .     A
C554   O594    1.303   .     A
C555   C556    1.434   .     S
C555   C853    1.352   1_545 S
C555   C864    1.491   1_545 S
C556   O596    1.287   .     A
C556   O597    1.288   .     A
C557   O598    1.296   .     A
C557   O599    1.301   .     A
C557   C559    1.477   .     S
C558   C571    1.411   .     A
C558   O491    1.385   1_655 S
C559   C571    1.416   .     A
C559   C570    1.398   .     A
C560   C561    1.388   .     A
C560   H581    1.083   .     S
C561   C113    1.393   1_556 S
C562   C565    1.418   .     A
C562   C113    1.418   1_556 S
C562   C116    1.429   1_556 S
C563   H582    1.077   .     S
C564   O590    1.398   .     S
C564   O589    1.224   .     D
C564   C705    1.491   .     S
C565   C569    1.409   .     A
C566   C570    1.400   .     A
C567   C568    1.397   .     A
C567   C116    1.421   1_556 S
C567   C108    1.412   1_556 S
C568   H579    1.083   .     S
C568   C569    1.384   .     A
C569   H584    1.081   .     S
C570   H580    1.077   .     S
C571   O600    1.377   .     S
Cu572  O598    1.915   .     S
Cu572  O596    1.968   .     S
Cu572  O588    1.975   .     S
Cu572  Cu573   2.683   .     S
Cu572  N587    2.016   .     S
Cu572  O594    1.938   .     S
Cu573  O595    1.915   .     S
Cu573  N586    2.016   .     S
Cu573  O599    1.938   .     S
Cu573  O597    1.975   .     S
Cu573  O593    1.968   .     S
H575   O590    1.011   .     S
H576   O591    0.990   .     S
H577   O742    0.991   .     S
H578   N487    1.029   1_655 S
H583   C461    1.083   1_655 S
H585   O600    0.988   .     S
N586   H474    1.029   1_655 S
N586   N487    1.286   1_655 S
O592   H877    0.991   1_545 S
O592   C853    1.390   1_545 S
C601   O638    1.289   .     A
C601   O643    1.286   .     A
C601   C603    1.440   .     S
C602   C604    1.476   .     S
C602   C615    1.422   .     A
C602   C610    1.401   .     A
C603   C755    1.352   .     S
C603   O792    1.390   .     S
C604   O645    1.294   .     A
C604   O644    1.303   .     A
C605   C606    1.434   .     S
C606   O646    1.287   .     A
C606   O647    1.288   .     A
C607   O648    1.296   .     A
C607   O649    1.301   .     A
C607   C609    1.477   .     S
C608   C621    1.411   .     A
C608   O691    1.385   .     S
C609   C621    1.416   .     A
C609   C620    1.398   .     A
C610   C611    1.388   .     A
C610   H631    1.083   .     S
C611   C163    1.393   1_556 S
C611   H733    1.083   1_455 S
C612   C615    1.418   .     A
C612   C163    1.418   1_556 S
C612   C166    1.429   1_556 S
C613   H632    1.077   .     S
C614   O640    1.398   .     S
C614   O639    1.224   .     D
C614   C755    1.491   .     S
C615   C619    1.409   .     A
C616   C620    1.400   .     A
C617   C618    1.397   .     A
C617   C166    1.421   1_556 S
C617   C158    1.412   1_556 S
C618   H629    1.083   .     S
C618   C619    1.384   .     A
C619   H634    1.081   .     S
C620   H630    1.077   .     S
C621   O650    1.377   .     S
Cu622  O648    1.915   .     S
Cu622  O646    1.968   .     S
Cu622  O638    1.975   .     S
Cu622  Cu623   2.683   .     S
Cu622  N637    2.016   .     S
Cu622  O644    1.938   .     S
Cu623  O645    1.915   .     S
Cu623  N636    2.016   .     S
Cu623  O649    1.938   .     S
Cu623  O647    1.975   .     S
Cu623  O643    1.968   .     S
H624   N736    1.029   1_455 S
H625   O640    1.011   .     S
H626   O641    0.990   .     S
H627   O792    0.991   .     S
H628   N687    1.029   .     S
H633   C661    1.083   .     S
H635   O650    0.988   .     S
N636   H674    1.029   .     S
N636   N687    1.286   .     S
N637   N736    1.286   1_455 S
N637   H728    1.029   1_455 S
O641   C708    1.385   1_455 S
C651   O688    1.289   .     A
C651   O693    1.286   .     A
C651   C653    1.440   .     S
C652   C654    1.476   .     S
C652   C665    1.422   .     A
C652   C660    1.401   .     A
C653   C805    1.352   .     S
C653   O842    1.390   .     S
C654   O695    1.294   .     A
C654   O694    1.303   .     A
C655   C656    1.434   .     S
C656   O696    1.287   .     A
C656   O697    1.288   .     A
C657   O698    1.296   .     A
C657   O699    1.301   .     A
C657   C659    1.477   .     S
C658   C671    1.411   .     A
C658   O741    1.385   .     S
C659   C671    1.416   .     A
C659   C670    1.398   .     A
C660   C661    1.388   .     A
C660   H681    1.083   .     S
C661   C213    1.393   1_556 S
C662   C665    1.418   .     A
C662   C213    1.418   1_556 S
C662   C216    1.429   1_556 S
C663   H682    1.077   .     S
C664   O690    1.398   .     S
C664   O689    1.224   .     D
C664   C805    1.491   .     S
C665   C669    1.409   .     A
C666   C670    1.400   .     A
C667   C668    1.397   .     A
C667   C216    1.421   1_556 S
C667   C208    1.412   1_556 S
C668   H679    1.083   .     S
C668   C669    1.384   .     A
C669   H684    1.081   .     S
C670   H680    1.077   .     S
C671   O700    1.377   .     S
Cu672  O698    1.915   .     S
Cu672  O696    1.968   .     S
Cu672  O688    1.975   .     S
Cu672  Cu673   2.683   .     S
Cu672  N687    2.016   .     S
Cu672  O694    1.938   .     S
Cu673  O695    1.915   .     S
Cu673  N686    2.016   .     S
Cu673  O699    1.938   .     S
Cu673  O697    1.975   .     S
Cu673  O693    1.968   .     S
H675   O690    1.011   .     S
H676   O691    0.990   .     S
H677   O842    0.991   .     S
H678   N737    1.029   .     S
H683   C711    1.083   .     S
H685   O700    0.988   .     S
N686   H724    1.029   .     S
N686   N737    1.286   .     S
C701   O738    1.289   .     A
C701   O743    1.286   .     A
C701   C703    1.440   .     S
C702   C704    1.476   .     S
C702   C715    1.422   .     A
C702   C710    1.401   .     A
C703   C855    1.352   .     S
C703   O892    1.390   .     S
C704   O745    1.294   .     A
C704   O744    1.303   .     A
C705   C706    1.434   .     S
C706   O746    1.287   .     A
C706   O747    1.288   .     A
C707   O748    1.296   .     A
C707   O749    1.301   .     A
C707   C709    1.477   .     S
C708   C721    1.411   .     A
C708   O641    1.385   1_655 S
C709   C721    1.416   .     A
C709   C720    1.398   .     A
C710   C711    1.388   .     A
C710   H731    1.083   .     S
C711   C263    1.393   1_556 S
C712   C715    1.418   .     A
C712   C263    1.418   1_556 S
C712   C266    1.429   1_556 S
C713   H732    1.077   .     S
C714   O740    1.398   .     S
C714   O739    1.224   .     D
C714   C855    1.491   .     S
C715   C719    1.409   .     A
C716   C720    1.400   .     A
C717   C718    1.397   .     A
C717   C266    1.421   1_556 S
C717   C258    1.412   1_556 S
C718   H729    1.083   .     S
C718   C719    1.384   .     A
C719   H734    1.081   .     S
C720   H730    1.077   .     S
C721   O750    1.377   .     S
Cu722  O748    1.915   .     S
Cu722  O746    1.968   .     S
Cu722  O738    1.975   .     S
Cu722  Cu723   2.683   .     S
Cu722  N737    2.016   .     S
Cu722  O744    1.938   .     S
Cu723  O745    1.915   .     S
Cu723  N736    2.016   .     S
Cu723  O749    1.938   .     S
Cu723  O747    1.975   .     S
Cu723  O743    1.968   .     S
H725   O740    1.011   .     S
H726   O741    0.990   .     S
H727   O892    0.991   .     S
H728   N637    1.029   1_655 S
H733   C611    1.083   1_655 S
H735   O750    0.988   .     S
N736   H624    1.029   1_655 S
N736   N637    1.286   1_655 S
C751   O788    1.289   .     A
C751   O793    1.286   .     A
C751   C753    1.440   .     S
C752   C754    1.476   .     S
C752   C765    1.422   .     A
C752   C760    1.401   .     A
C753   C455    1.352   1_565 S
C753   O492    1.390   1_565 S
C754   O795    1.294   .     A
C754   O794    1.303   .     A
C755   C756    1.434   .     S
C756   O796    1.287   .     A
C756   O797    1.288   .     A
C757   O798    1.296   .     A
C757   O799    1.301   .     A
C757   C759    1.477   .     S
C758   C771    1.411   .     A
C758   O841    1.385   .     S
C759   C771    1.416   .     A
C759   C770    1.398   .     A
C760   C761    1.388   .     A
C760   H781    1.083   .     S
C761   C313    1.393   1_556 S
C761   H883    1.083   1_455 S
C762   C765    1.418   .     A
C762   C313    1.418   1_556 S
C762   C316    1.429   1_556 S
C763   H782    1.077   .     S
C764   O790    1.398   .     S
C764   O789    1.224   .     D
C764   C455    1.491   1_565 S
C765   C769    1.409   .     A
C766   C770    1.400   .     A
C767   C768    1.397   .     A
C767   C316    1.421   1_556 S
C767   C308    1.412   1_556 S
C768   H779    1.083   .     S
C768   C769    1.384   .     A
C769   H784    1.081   .     S
C770   H780    1.077   .     S
C771   O800    1.377   .     S
Cu772  O798    1.915   .     S
Cu772  O796    1.968   .     S
Cu772  O788    1.975   .     S
Cu772  Cu773   2.683   .     S
Cu772  N787    2.016   .     S
Cu772  O794    1.938   .     S
Cu773  O795    1.915   .     S
Cu773  N786    2.016   .     S
Cu773  O799    1.938   .     S
Cu773  O797    1.975   .     S
Cu773  O793    1.968   .     S
H774   N886    1.029   1_455 S
H775   O790    1.011   .     S
H776   O791    0.990   .     S
H777   O492    0.991   1_565 S
H778   N837    1.029   .     S
H783   C811    1.083   .     S
H785   O800    0.988   .     S
N786   H824    1.029   .     S
N786   N837    1.286   .     S
N787   N886    1.286   1_455 S
N787   H878    1.029   1_455 S
O791   C858    1.385   1_455 S
C801   O838    1.289   .     A
C801   O843    1.286   .     A
C801   C803    1.440   .     S
C802   C804    1.476   .     S
C802   C815    1.422   .     A
C802   C810    1.401   .     A
C803   C505    1.352   1_565 S
C803   O542    1.390   1_565 S
C804   O845    1.294   .     A
C804   O844    1.303   .     A
C805   C806    1.434   .     S
C806   O846    1.287   .     A
C806   O847    1.288   .     A
C807   O848    1.296   .     A
C807   O849    1.301   .     A
C807   C809    1.477   .     S
C808   C821    1.411   .     A
C808   O891    1.385   .     S
C809   C821    1.416   .     A
C809   C820    1.398   .     A
C810   C811    1.388   .     A
C810   H831    1.083   .     S
C811   C363    1.393   1_556 S
C812   C815    1.418   .     A
C812   C363    1.418   1_556 S
C812   C366    1.429   1_556 S
C813   H832    1.077   .     S
C814   O840    1.398   .     S
C814   O839    1.224   .     D
C814   C505    1.491   1_565 S
C815   C819    1.409   .     A
C816   C820    1.400   .     A
C817   C818    1.397   .     A
C817   C366    1.421   1_556 S
C817   C358    1.412   1_556 S
C818   H829    1.083   .     S
C818   C819    1.384   .     A
C819   H834    1.081   .     S
C820   H830    1.077   .     S
C821   O850    1.377   .     S
Cu822  O848    1.915   .     S
Cu822  O846    1.968   .     S
Cu822  O838    1.975   .     S
Cu822  Cu823   2.683   .     S
Cu822  N837    2.016   .     S
Cu822  O844    1.938   .     S
Cu823  O845    1.915   .     S
Cu823  N836    2.016   .     S
Cu823  O849    1.938   .     S
Cu823  O847    1.975   .     S
Cu823  O843    1.968   .     S
H825   O840    1.011   .     S
H826   O841    0.990   .     S
H827   O542    0.991   1_565 S
H828   N887    1.029   .     S
H833   C861    1.083   .     S
H835   O850    0.988   .     S
N836   H874    1.029   .     S
N836   N887    1.286   .     S
C851   O888    1.289   .     A
C851   O893    1.286   .     A
C851   C853    1.440   .     S
C852   C854    1.476   .     S
C852   C865    1.422   .     A
C852   C860    1.401   .     A
C853   C555    1.352   1_565 S
C853   O592    1.390   1_565 S
C854   O895    1.294   .     A
C854   O894    1.303   .     A
C855   C856    1.434   .     S
C856   O896    1.287   .     A
C856   O897    1.288   .     A
C857   O898    1.296   .     A
C857   O899    1.301   .     A
C857   C859    1.477   .     S
C858   C871    1.411   .     A
C858   O791    1.385   1_655 S
C859   C871    1.416   .     A
C859   C870    1.398   .     A
C860   C861    1.388   .     A
C860   H881    1.083   .     S
C861   C413    1.393   1_556 S
C862   C865    1.418   .     A
C862   C413    1.418   1_556 S
C862   C416    1.429   1_556 S
C863   H882    1.077   .     S
C864   O890    1.398   .     S
C864   O889    1.224   .     D
C864   C555    1.491   1_565 S
C865   C869    1.409   .     A
C866   C870    1.400   .     A
C867   C868    1.397   .     A
C867   C416    1.421   1_556 S
C867   C408    1.412   1_556 S
C868   H879    1.083   .     S
C868   C869    1.384   .     A
C869   H884    1.081   .     S
C870   H880    1.077   .     S
C871   O900    1.377   .     S
Cu872  O898    1.915   .     S
Cu872  O896    1.968   .     S
Cu872  O888    1.975   .     S
Cu872  Cu873   2.683   .     S
Cu872  N887    2.016   .     S
Cu872  O894    1.938   .     S
Cu873  O895    1.915   .     S
Cu873  N886    2.016   .     S
Cu873  O899    1.938   .     S
Cu873  O897    1.975   .     S
Cu873  O893    1.968   .     S
H875   O890    1.011   .     S
H876   O891    0.990   .     S
H877   O592    0.991   1_565 S
H878   N787    1.029   1_655 S
H883   C761    1.083   1_655 S
H885   O900    0.988   .     S
N886   H774    1.029   1_655 S
N886   N787    1.286   1_655 S
