data_str_m2_o1_o2_pcu_sym.67
_audit_creation_date              2020-01-03
_audit_creation_method            'Materials Studio'
_symmetry_space_group_name_H-M    'P1'
_symmetry_Int_Tables_number       1
_symmetry_cell_setting            triclinic
loop_
_symmetry_equiv_pos_as_xyz
  x,y,z
_cell_length_a                    32.7453
_cell_length_b                    28.6278
_cell_length_c                    30.5634
_cell_angle_alpha                 90.0011
_cell_angle_beta                  94.4710
_cell_angle_gamma                 90.0016
loop_
_atom_site_label
_atom_site_type_symbol
_atom_site_fract_x
_atom_site_fract_y
_atom_site_fract_z
_atom_site_U_iso_or_equiv
_atom_site_adp_type
_atom_site_occupancy
C1     C     0.08763   0.16657   0.25327   0.00000  Uiso   1.00
C2     C     0.31233   0.20859   0.24466   0.00000  Uiso   1.00
C3     C     0.31214   0.12337   0.24571   0.00000  Uiso   1.00
C4     C     0.02101   0.20859   0.25535   0.00000  Uiso   1.00
C5     C     0.18018   0.20042   0.04643   0.00000  Uiso   1.00
C6     C     0.16714   0.11820   0.45065   0.00000  Uiso   1.00
C7     C     0.15319   0.20043   0.45357   0.00000  Uiso   1.00
C8     C     0.16621   0.11819   0.04935   0.00000  Uiso   1.00
C9     C     0.17697   0.20489   0.09138   0.00000  Uiso   1.00
C10    C     0.16217   0.12009   0.40495   0.00000  Uiso   1.00
C11    C     0.15639   0.20490   0.40862   0.00000  Uiso   1.00
C12    C     0.24570   0.16657   0.24673   0.00000  Uiso   1.00
C13    C     0.17117   0.12009   0.09505   0.00000  Uiso   1.00
C14    C     0.17201   0.16424   0.11683   0.00000  Uiso   1.00
C15    C     0.16134   0.16425   0.38318   0.00000  Uiso   1.00
C16    C     0.16983   0.15871   0.02435   0.00000  Uiso   1.00
C17    C     0.16353   0.15871   0.47566   0.00000  Uiso   1.00
C18    C     0.29038   0.16614   0.24403   0.00000  Uiso   1.00
C19    C     0.04295   0.16614   0.25596   0.00000  Uiso   1.00
C20    C     0.14576   0.27481   0.10420   0.00000  Uiso   1.00
C21    C     0.13790   0.29677   0.05833   0.00000  Uiso   1.00
C22    C     0.10446   0.00065   0.05775   0.00000  Uiso   1.00
C23    C     0.16839   0.16640   0.16500   0.00000  Uiso   1.00
C24    C     0.11879   0.06868   0.36710   0.00000  Uiso   1.00
C25    C     0.09708   0.03997   0.40063   0.00000  Uiso   1.00
C26    C     0.05294   0.02913   0.38400   0.00000  Uiso   1.00
C27    C     0.18757   0.27483   0.39581   0.00000  Uiso   1.00
C28    C     0.19538   0.29686   0.44166   0.00000  Uiso   1.00
C29    C     0.22883   0.00073   0.44225   0.00000  Uiso   1.00
C30    C     0.21451   0.06864   0.13290   0.00000  Uiso   1.00
C31    C     0.23626   0.04006   0.09930   0.00000  Uiso   1.00
C32    C     0.28034   0.02906   0.11603   0.00000  Uiso   1.00
C33    C     0.16494   0.16640   0.33500   0.00000  Uiso   1.00
C34    C     0.13943   0.02482   0.22250   0.00000  Uiso   1.00
C35    C     0.19498   0.30873   0.27620   0.00000  Uiso   1.00
C36    C     0.19391   0.02482   0.27750   0.00000  Uiso   1.00
C37    C     0.13835   0.30873   0.22380   0.00000  Uiso   1.00
C38    C     0.02119   0.12336   0.25426   0.00000  Uiso   1.00
Cl39   Cl    0.10545   0.05432   0.18435   0.00000  Uiso   1.00
Cl40   Cl    0.23415   0.27992   0.30828   0.00000  Uiso   1.00
Cl41   Cl    0.22789   0.05433   0.31565   0.00000  Uiso   1.00
Cl42   Cl    0.09918   0.27991   0.19173   0.00000  Uiso   1.00
Cl43   Cl    0.04490   0.06886   0.26767   0.00000  Uiso   1.00
Cl44   Cl    0.28972   0.26197   0.22590   0.00000  Uiso   1.00
Cl45   Cl    0.28843   0.06887   0.23229   0.00000  Uiso   1.00
Cl46   Cl    0.04362   0.26196   0.27412   0.00000  Uiso   1.00
Cu47   Cu    0.16667   0.21355   0.25000   0.00000  Uiso   1.00
Cu48   Cu    0.16667   0.11978   0.25000   0.00000  Uiso   1.00
H49    H     0.18923   0.23079   0.02869   0.00000  Uiso   1.00
H50    H     0.09961   0.01583   0.02429   0.00000  Uiso   1.00
H51    H     0.11332   0.02912   0.08119   0.00000  Uiso   1.00
H52    H     0.11940   0.04776   0.33653   0.00000  Uiso   1.00
H53    H     0.10074   0.10083   0.35805   0.00000  Uiso   1.00
H54    H     0.11357   0.00654   0.40674   0.00000  Uiso   1.00
H55    H     0.09702   0.05945   0.43206   0.00000  Uiso   1.00
H56    H     0.03546   0.06199   0.37753   0.00000  Uiso   1.00
H57    H     0.03796   0.00870   0.40915   0.00000  Uiso   1.00
H58    H     0.05227   0.00818   0.35336   0.00000  Uiso   1.00
H59    H     0.18454   0.30385   0.37174   0.00000  Uiso   1.00
H60    H     0.17289   0.08454   0.46584   0.00000  Uiso   1.00
H61    H     0.21467   0.25343   0.38863   0.00000  Uiso   1.00
H62    H     0.16692   0.31268   0.45246   0.00000  Uiso   1.00
H63    H     0.20624   0.26971   0.46561   0.00000  Uiso   1.00
H64    H     0.25809   0.31831   0.43345   0.00000  Uiso   1.00
H65    H     0.23357   0.01604   0.47566   0.00000  Uiso   1.00
H66    H     0.22007   0.02911   0.41869   0.00000  Uiso   1.00
H67    H     0.21387   0.04762   0.16341   0.00000  Uiso   1.00
H68    H     0.23255   0.10078   0.14207   0.00000  Uiso   1.00
H69    H     0.21971   0.00668   0.09299   0.00000  Uiso   1.00
H70    H     0.23645   0.05971   0.06798   0.00000  Uiso   1.00
H71    H     0.14414   0.23080   0.47132   0.00000  Uiso   1.00
H72    H     0.29787   0.06186   0.12271   0.00000  Uiso   1.00
H73    H     0.29536   0.00872   0.09084   0.00000  Uiso   1.00
H74    H     0.28089   0.00795   0.14658   0.00000  Uiso   1.00
H75    H     0.16044   0.08454   0.03415   0.00000  Uiso   1.00
H76    H     0.14880   0.30386   0.12824   0.00000  Uiso   1.00
H77    H     0.11868   0.25339   0.11143   0.00000  Uiso   1.00
H78    H     0.16634   0.31255   0.04746   0.00000  Uiso   1.00
H79    H     0.12699   0.26958   0.03443   0.00000  Uiso   1.00
H80    H     0.07524   0.31827   0.06673   0.00000  Uiso   1.00
N81    N     0.16667   0.28402   0.25000   0.00000  Uiso   1.00
N82    N     0.16667   0.04931   0.25000   0.00000  Uiso   1.00
O83    O     0.10655   0.20625   0.25000   0.00000  Uiso   1.00
O84    O     0.16001   0.07806   0.38243   0.00000  Uiso   1.00
O85    O     0.15070   0.24870   0.39001   0.00000  Uiso   1.00
O86    O     0.17330   0.07806   0.11756   0.00000  Uiso   1.00
O87    O     0.22679   0.12709   0.25001   0.00000  Uiso   1.00
O88    O     0.22679   0.20625   0.25001   0.00000  Uiso   1.00
O89    O     0.10655   0.12709   0.25000   0.00000  Uiso   1.00
O90    O     0.16666   0.20626   0.18573   0.00000  Uiso   1.00
O91    O     0.16667   0.12707   0.31427   0.00000  Uiso   1.00
O92    O     0.16667   0.20626   0.31427   0.00000  Uiso   1.00
O93    O     0.16666   0.12707   0.18573   0.00000  Uiso   1.00
O94    O     0.18265   0.24870   0.10999   0.00000  Uiso   1.00
C95    C     0.42097   0.16657   0.25327   0.00000  Uiso   1.00
C96    C     0.64566   0.20859   0.24466   0.00000  Uiso   1.00
C97    C     0.64547   0.12337   0.24571   0.00000  Uiso   1.00
C98    C     0.35434   0.20859   0.25535   0.00000  Uiso   1.00
C99    C     0.51351   0.20042   0.04643   0.00000  Uiso   1.00
C100   C     0.50047   0.11820   0.45065   0.00000  Uiso   1.00
C101   C     0.48652   0.20043   0.45357   0.00000  Uiso   1.00
C102   C     0.49954   0.11819   0.04935   0.00000  Uiso   1.00
C103   C     0.51031   0.20489   0.09138   0.00000  Uiso   1.00
C104   C     0.49550   0.12009   0.40495   0.00000  Uiso   1.00
C105   C     0.48972   0.20490   0.40862   0.00000  Uiso   1.00
C106   C     0.57903   0.16657   0.24673   0.00000  Uiso   1.00
C107   C     0.50451   0.12009   0.09505   0.00000  Uiso   1.00
C108   C     0.50534   0.16424   0.11683   0.00000  Uiso   1.00
C109   C     0.49467   0.16425   0.38318   0.00000  Uiso   1.00
C110   C     0.50317   0.15871   0.02435   0.00000  Uiso   1.00
C111   C     0.49686   0.15871   0.47566   0.00000  Uiso   1.00
C112   C     0.62371   0.16614   0.24403   0.00000  Uiso   1.00
C113   C     0.37628   0.16614   0.25596   0.00000  Uiso   1.00
C114   C     0.47909   0.27481   0.10420   0.00000  Uiso   1.00
C115   C     0.47123   0.29677   0.05833   0.00000  Uiso   1.00
C116   C     0.43780   0.00065   0.05775   0.00000  Uiso   1.00
C117   C     0.50172   0.16640   0.16500   0.00000  Uiso   1.00
C118   C     0.45212   0.06868   0.36710   0.00000  Uiso   1.00
C119   C     0.43041   0.03997   0.40063   0.00000  Uiso   1.00
C120   C     0.38628   0.02913   0.38400   0.00000  Uiso   1.00
C121   C     0.52091   0.27483   0.39581   0.00000  Uiso   1.00
C122   C     0.52871   0.29686   0.44166   0.00000  Uiso   1.00
C123   C     0.56216   0.00073   0.44225   0.00000  Uiso   1.00
C124   C     0.54784   0.06864   0.13290   0.00000  Uiso   1.00
C125   C     0.56960   0.04006   0.09930   0.00000  Uiso   1.00
C126   C     0.61368   0.02906   0.11603   0.00000  Uiso   1.00
C127   C     0.49828   0.16640   0.33500   0.00000  Uiso   1.00
C128   C     0.47276   0.02482   0.22250   0.00000  Uiso   1.00
C129   C     0.52832   0.30873   0.27620   0.00000  Uiso   1.00
C130   C     0.52724   0.02482   0.27750   0.00000  Uiso   1.00
C131   C     0.47168   0.30873   0.22380   0.00000  Uiso   1.00
C132   C     0.35452   0.12336   0.25426   0.00000  Uiso   1.00
Cl133  Cl    0.43879   0.05432   0.18435   0.00000  Uiso   1.00
Cl134  Cl    0.56749   0.27992   0.30828   0.00000  Uiso   1.00
Cl135  Cl    0.56122   0.05433   0.31565   0.00000  Uiso   1.00
Cl136  Cl    0.43251   0.27991   0.19173   0.00000  Uiso   1.00
Cl137  Cl    0.37823   0.06886   0.26767   0.00000  Uiso   1.00
Cl138  Cl    0.62306   0.26197   0.22590   0.00000  Uiso   1.00
Cl139  Cl    0.62176   0.06887   0.23229   0.00000  Uiso   1.00
Cl140  Cl    0.37695   0.26196   0.27412   0.00000  Uiso   1.00
Cu141  Cu    0.50000   0.21355   0.25000   0.00000  Uiso   1.00
Cu142  Cu    0.50000   0.11978   0.25000   0.00000  Uiso   1.00
H143   H     0.52256   0.23079   0.02869   0.00000  Uiso   1.00
H144   H     0.43295   0.01583   0.02429   0.00000  Uiso   1.00
H145   H     0.44665   0.02912   0.08119   0.00000  Uiso   1.00
H146   H     0.45273   0.04776   0.33653   0.00000  Uiso   1.00
H147   H     0.43407   0.10083   0.35805   0.00000  Uiso   1.00
H148   H     0.44691   0.00654   0.40674   0.00000  Uiso   1.00
H149   H     0.43035   0.05945   0.43206   0.00000  Uiso   1.00
H150   H     0.36879   0.06199   0.37753   0.00000  Uiso   1.00
H151   H     0.37129   0.00870   0.40915   0.00000  Uiso   1.00
H152   H     0.38561   0.00818   0.35336   0.00000  Uiso   1.00
H153   H     0.51787   0.30385   0.37174   0.00000  Uiso   1.00
H154   H     0.50623   0.08454   0.46584   0.00000  Uiso   1.00
H155   H     0.54801   0.25343   0.38863   0.00000  Uiso   1.00
H156   H     0.50025   0.31268   0.45246   0.00000  Uiso   1.00
H157   H     0.53957   0.26971   0.46561   0.00000  Uiso   1.00
H158   H     0.59142   0.31831   0.43345   0.00000  Uiso   1.00
H159   H     0.56690   0.01604   0.47566   0.00000  Uiso   1.00
H160   H     0.55340   0.02911   0.41869   0.00000  Uiso   1.00
H161   H     0.54721   0.04762   0.16341   0.00000  Uiso   1.00
H162   H     0.56588   0.10078   0.14207   0.00000  Uiso   1.00
H163   H     0.55305   0.00668   0.09299   0.00000  Uiso   1.00
H164   H     0.56978   0.05971   0.06798   0.00000  Uiso   1.00
H165   H     0.47747   0.23080   0.47132   0.00000  Uiso   1.00
H166   H     0.63121   0.06186   0.12271   0.00000  Uiso   1.00
H167   H     0.62870   0.00872   0.09084   0.00000  Uiso   1.00
H168   H     0.61422   0.00795   0.14658   0.00000  Uiso   1.00
H169   H     0.49377   0.08454   0.03415   0.00000  Uiso   1.00
H170   H     0.48214   0.30386   0.12824   0.00000  Uiso   1.00
H171   H     0.45201   0.25339   0.11143   0.00000  Uiso   1.00
H172   H     0.49968   0.31255   0.04746   0.00000  Uiso   1.00
H173   H     0.46033   0.26958   0.03443   0.00000  Uiso   1.00
H174   H     0.40857   0.31827   0.06673   0.00000  Uiso   1.00
N175   N     0.50000   0.28402   0.25000   0.00000  Uiso   1.00
N176   N     0.50000   0.04931   0.25000   0.00000  Uiso   1.00
O177   O     0.43988   0.20625   0.25000   0.00000  Uiso   1.00
O178   O     0.49334   0.07806   0.38243   0.00000  Uiso   1.00
O179   O     0.48403   0.24870   0.39001   0.00000  Uiso   1.00
O180   O     0.50663   0.07806   0.11756   0.00000  Uiso   1.00
O181   O     0.56012   0.12709   0.25001   0.00000  Uiso   1.00
O182   O     0.56012   0.20625   0.25001   0.00000  Uiso   1.00
O183   O     0.43988   0.12709   0.25000   0.00000  Uiso   1.00
O184   O     0.50000   0.20626   0.18573   0.00000  Uiso   1.00
O185   O     0.50000   0.12707   0.31427   0.00000  Uiso   1.00
O186   O     0.50000   0.20626   0.31427   0.00000  Uiso   1.00
O187   O     0.50000   0.12707   0.18573   0.00000  Uiso   1.00
O188   O     0.51598   0.24870   0.10999   0.00000  Uiso   1.00
C189   C     0.75430   0.16657   0.25327   0.00000  Uiso   1.00
C190   C     0.97900   0.20859   0.24466   0.00000  Uiso   1.00
C191   C     0.97881   0.12337   0.24571   0.00000  Uiso   1.00
C192   C     0.68767   0.20859   0.25535   0.00000  Uiso   1.00
C193   C     0.84685   0.20042   0.04643   0.00000  Uiso   1.00
C194   C     0.83381   0.11820   0.45065   0.00000  Uiso   1.00
C195   C     0.81986   0.20043   0.45357   0.00000  Uiso   1.00
C196   C     0.83287   0.11819   0.04935   0.00000  Uiso   1.00
C197   C     0.84364   0.20489   0.09138   0.00000  Uiso   1.00
C198   C     0.82883   0.12009   0.40495   0.00000  Uiso   1.00
C199   C     0.82305   0.20490   0.40862   0.00000  Uiso   1.00
C200   C     0.91236   0.16657   0.24673   0.00000  Uiso   1.00
C201   C     0.83784   0.12009   0.09505   0.00000  Uiso   1.00
C202   C     0.83867   0.16424   0.11683   0.00000  Uiso   1.00
C203   C     0.82800   0.16425   0.38318   0.00000  Uiso   1.00
C204   C     0.83650   0.15871   0.02435   0.00000  Uiso   1.00
C205   C     0.83019   0.15871   0.47566   0.00000  Uiso   1.00
C206   C     0.95705   0.16614   0.24403   0.00000  Uiso   1.00
C207   C     0.70962   0.16614   0.25596   0.00000  Uiso   1.00
C208   C     0.81243   0.27481   0.10420   0.00000  Uiso   1.00
C209   C     0.80456   0.29677   0.05833   0.00000  Uiso   1.00
C210   C     0.77113   0.00065   0.05775   0.00000  Uiso   1.00
C211   C     0.83506   0.16640   0.16500   0.00000  Uiso   1.00
C212   C     0.78546   0.06868   0.36710   0.00000  Uiso   1.00
C213   C     0.76374   0.03997   0.40063   0.00000  Uiso   1.00
C214   C     0.71961   0.02913   0.38400   0.00000  Uiso   1.00
C215   C     0.85424   0.27483   0.39581   0.00000  Uiso   1.00
C216   C     0.86204   0.29686   0.44166   0.00000  Uiso   1.00
C217   C     0.89549   0.00073   0.44225   0.00000  Uiso   1.00
C218   C     0.88117   0.06864   0.13290   0.00000  Uiso   1.00
C219   C     0.90293   0.04006   0.09930   0.00000  Uiso   1.00
C220   C     0.94701   0.02906   0.11603   0.00000  Uiso   1.00
C221   C     0.83161   0.16640   0.33500   0.00000  Uiso   1.00
C222   C     0.80609   0.02482   0.22250   0.00000  Uiso   1.00
C223   C     0.86165   0.30873   0.27620   0.00000  Uiso   1.00
C224   C     0.86057   0.02482   0.27750   0.00000  Uiso   1.00
C225   C     0.80502   0.30873   0.22380   0.00000  Uiso   1.00
C226   C     0.68786   0.12336   0.25426   0.00000  Uiso   1.00
Cl227  Cl    0.77212   0.05432   0.18435   0.00000  Uiso   1.00
Cl228  Cl    0.90082   0.27992   0.30828   0.00000  Uiso   1.00
Cl229  Cl    0.89455   0.05433   0.31565   0.00000  Uiso   1.00
Cl230  Cl    0.76584   0.27991   0.19173   0.00000  Uiso   1.00
Cl231  Cl    0.71156   0.06886   0.26767   0.00000  Uiso   1.00
Cl232  Cl    0.95639   0.26197   0.22590   0.00000  Uiso   1.00
Cl233  Cl    0.95509   0.06887   0.23229   0.00000  Uiso   1.00
Cl234  Cl    0.71028   0.26196   0.27412   0.00000  Uiso   1.00
Cu235  Cu    0.83333   0.21355   0.25000   0.00000  Uiso   1.00
Cu236  Cu    0.83333   0.11978   0.25000   0.00000  Uiso   1.00
H237   H     0.85590   0.23079   0.02869   0.00000  Uiso   1.00
H238   H     0.76628   0.01583   0.02429   0.00000  Uiso   1.00
H239   H     0.77999   0.02912   0.08119   0.00000  Uiso   1.00
H240   H     0.78606   0.04776   0.33653   0.00000  Uiso   1.00
H241   H     0.76740   0.10083   0.35805   0.00000  Uiso   1.00
H242   H     0.78024   0.00654   0.40674   0.00000  Uiso   1.00
H243   H     0.76368   0.05945   0.43206   0.00000  Uiso   1.00
H244   H     0.70213   0.06199   0.37753   0.00000  Uiso   1.00
H245   H     0.70462   0.00870   0.40915   0.00000  Uiso   1.00
H246   H     0.71894   0.00818   0.35336   0.00000  Uiso   1.00
H247   H     0.85120   0.30385   0.37174   0.00000  Uiso   1.00
H248   H     0.83956   0.08454   0.46584   0.00000  Uiso   1.00
H249   H     0.88134   0.25343   0.38863   0.00000  Uiso   1.00
H250   H     0.83358   0.31268   0.45246   0.00000  Uiso   1.00
H251   H     0.87291   0.26971   0.46561   0.00000  Uiso   1.00
H252   H     0.92475   0.31831   0.43345   0.00000  Uiso   1.00
H253   H     0.90023   0.01604   0.47566   0.00000  Uiso   1.00
H254   H     0.88673   0.02911   0.41869   0.00000  Uiso   1.00
H255   H     0.88054   0.04762   0.16341   0.00000  Uiso   1.00
H256   H     0.89921   0.10078   0.14207   0.00000  Uiso   1.00
H257   H     0.88638   0.00668   0.09299   0.00000  Uiso   1.00
H258   H     0.90311   0.05971   0.06798   0.00000  Uiso   1.00
H259   H     0.81080   0.23080   0.47132   0.00000  Uiso   1.00
H260   H     0.96454   0.06186   0.12271   0.00000  Uiso   1.00
H261   H     0.96203   0.00872   0.09084   0.00000  Uiso   1.00
H262   H     0.94756   0.00795   0.14658   0.00000  Uiso   1.00
H263   H     0.82711   0.08454   0.03415   0.00000  Uiso   1.00
H264   H     0.81547   0.30386   0.12824   0.00000  Uiso   1.00
H265   H     0.78535   0.25339   0.11143   0.00000  Uiso   1.00
H266   H     0.83301   0.31255   0.04746   0.00000  Uiso   1.00
H267   H     0.79366   0.26958   0.03443   0.00000  Uiso   1.00
H268   H     0.74190   0.31827   0.06673   0.00000  Uiso   1.00
N269   N     0.83333   0.28402   0.25000   0.00000  Uiso   1.00
N270   N     0.83333   0.04931   0.25000   0.00000  Uiso   1.00
O271   O     0.77321   0.20625   0.25000   0.00000  Uiso   1.00
O272   O     0.82668   0.07806   0.38243   0.00000  Uiso   1.00
O273   O     0.81737   0.24870   0.39001   0.00000  Uiso   1.00
O274   O     0.83997   0.07806   0.11756   0.00000  Uiso   1.00
O275   O     0.89345   0.12709   0.25001   0.00000  Uiso   1.00
O276   O     0.89345   0.20625   0.25001   0.00000  Uiso   1.00
O277   O     0.77321   0.12709   0.25000   0.00000  Uiso   1.00
O278   O     0.83333   0.20626   0.18573   0.00000  Uiso   1.00
O279   O     0.83334   0.12707   0.31427   0.00000  Uiso   1.00
O280   O     0.83334   0.20626   0.31427   0.00000  Uiso   1.00
O281   O     0.83333   0.12707   0.18573   0.00000  Uiso   1.00
O282   O     0.84931   0.24870   0.10999   0.00000  Uiso   1.00
C283   C     0.08763   0.49991   0.25327   0.00000  Uiso   1.00
C284   C     0.31233   0.54193   0.24466   0.00000  Uiso   1.00
C285   C     0.31214   0.45670   0.24571   0.00000  Uiso   1.00
C286   C     0.02101   0.54193   0.25535   0.00000  Uiso   1.00
C287   C     0.18018   0.53375   0.04643   0.00000  Uiso   1.00
C288   C     0.16714   0.45153   0.45065   0.00000  Uiso   1.00
C289   C     0.15319   0.53376   0.45357   0.00000  Uiso   1.00
C290   C     0.16621   0.45153   0.04935   0.00000  Uiso   1.00
C291   C     0.17697   0.53823   0.09138   0.00000  Uiso   1.00
C292   C     0.16217   0.45342   0.40495   0.00000  Uiso   1.00
C293   C     0.15639   0.53823   0.40862   0.00000  Uiso   1.00
C294   C     0.24570   0.49991   0.24673   0.00000  Uiso   1.00
C295   C     0.17117   0.45342   0.09505   0.00000  Uiso   1.00
C296   C     0.17201   0.49758   0.11683   0.00000  Uiso   1.00
C297   C     0.16134   0.49758   0.38318   0.00000  Uiso   1.00
C298   C     0.16983   0.49204   0.02435   0.00000  Uiso   1.00
C299   C     0.16353   0.49205   0.47566   0.00000  Uiso   1.00
C300   C     0.29038   0.49947   0.24403   0.00000  Uiso   1.00
C301   C     0.04295   0.49947   0.25596   0.00000  Uiso   1.00
C302   C     0.14576   0.60814   0.10420   0.00000  Uiso   1.00
C303   C     0.13790   0.63010   0.05833   0.00000  Uiso   1.00
C304   C     0.10446   0.33399   0.05775   0.00000  Uiso   1.00
C305   C     0.16839   0.49973   0.16500   0.00000  Uiso   1.00
C306   C     0.11879   0.40201   0.36710   0.00000  Uiso   1.00
C307   C     0.09708   0.37330   0.40063   0.00000  Uiso   1.00
C308   C     0.05294   0.36247   0.38400   0.00000  Uiso   1.00
C309   C     0.18757   0.60817   0.39581   0.00000  Uiso   1.00
C310   C     0.19538   0.63020   0.44166   0.00000  Uiso   1.00
C311   C     0.22883   0.33407   0.44225   0.00000  Uiso   1.00
C312   C     0.21451   0.40198   0.13290   0.00000  Uiso   1.00
C313   C     0.23626   0.37339   0.09930   0.00000  Uiso   1.00
C314   C     0.28034   0.36239   0.11603   0.00000  Uiso   1.00
C315   C     0.16494   0.49973   0.33500   0.00000  Uiso   1.00
C316   C     0.13943   0.35815   0.22250   0.00000  Uiso   1.00
C317   C     0.19498   0.64206   0.27620   0.00000  Uiso   1.00
C318   C     0.19391   0.35816   0.27750   0.00000  Uiso   1.00
C319   C     0.13835   0.64206   0.22380   0.00000  Uiso   1.00
C320   C     0.02119   0.45670   0.25426   0.00000  Uiso   1.00
Cl321  Cl    0.10545   0.38765   0.18435   0.00000  Uiso   1.00
Cl322  Cl    0.23415   0.61325   0.30828   0.00000  Uiso   1.00
Cl323  Cl    0.22789   0.38766   0.31565   0.00000  Uiso   1.00
Cl324  Cl    0.09918   0.61325   0.19173   0.00000  Uiso   1.00
Cl325  Cl    0.04490   0.40219   0.26767   0.00000  Uiso   1.00
Cl326  Cl    0.28972   0.59530   0.22590   0.00000  Uiso   1.00
Cl327  Cl    0.28843   0.40220   0.23229   0.00000  Uiso   1.00
Cl328  Cl    0.04362   0.59529   0.27412   0.00000  Uiso   1.00
Cu329  Cu    0.16667   0.54689   0.25000   0.00000  Uiso   1.00
Cu330  Cu    0.16667   0.45311   0.25000   0.00000  Uiso   1.00
H331   H     0.18923   0.56413   0.02869   0.00000  Uiso   1.00
H332   H     0.09961   0.34916   0.02429   0.00000  Uiso   1.00
H333   H     0.11332   0.36245   0.08119   0.00000  Uiso   1.00
H334   H     0.11940   0.38109   0.33653   0.00000  Uiso   1.00
H335   H     0.10074   0.43416   0.35805   0.00000  Uiso   1.00
H336   H     0.11357   0.33987   0.40674   0.00000  Uiso   1.00
H337   H     0.09702   0.39278   0.43206   0.00000  Uiso   1.00
H338   H     0.03546   0.39533   0.37753   0.00000  Uiso   1.00
H339   H     0.03796   0.34203   0.40915   0.00000  Uiso   1.00
H340   H     0.05227   0.34152   0.35336   0.00000  Uiso   1.00
H341   H     0.18454   0.63719   0.37174   0.00000  Uiso   1.00
H342   H     0.17289   0.41787   0.46584   0.00000  Uiso   1.00
H343   H     0.21467   0.58676   0.38863   0.00000  Uiso   1.00
H344   H     0.16692   0.64601   0.45246   0.00000  Uiso   1.00
H345   H     0.20624   0.60304   0.46561   0.00000  Uiso   1.00
H346   H     0.25809   0.65164   0.43345   0.00000  Uiso   1.00
H347   H     0.23357   0.34937   0.47566   0.00000  Uiso   1.00
H348   H     0.22007   0.36244   0.41869   0.00000  Uiso   1.00
H349   H     0.21387   0.38095   0.16341   0.00000  Uiso   1.00
H350   H     0.23255   0.43411   0.14207   0.00000  Uiso   1.00
H351   H     0.21971   0.34001   0.09299   0.00000  Uiso   1.00
H352   H     0.23645   0.39304   0.06798   0.00000  Uiso   1.00
H353   H     0.14414   0.56413   0.47132   0.00000  Uiso   1.00
H354   H     0.29787   0.39520   0.12271   0.00000  Uiso   1.00
H355   H     0.29536   0.34205   0.09084   0.00000  Uiso   1.00
H356   H     0.28089   0.34128   0.14658   0.00000  Uiso   1.00
H357   H     0.16044   0.41787   0.03415   0.00000  Uiso   1.00
H358   H     0.14880   0.63719   0.12824   0.00000  Uiso   1.00
H359   H     0.11868   0.58672   0.11143   0.00000  Uiso   1.00
H360   H     0.16634   0.64589   0.04746   0.00000  Uiso   1.00
H361   H     0.12699   0.60291   0.03443   0.00000  Uiso   1.00
H362   H     0.07524   0.65161   0.06673   0.00000  Uiso   1.00
N363   N     0.16667   0.61736   0.25000   0.00000  Uiso   1.00
N364   N     0.16667   0.38264   0.25000   0.00000  Uiso   1.00
O365   O     0.10655   0.53958   0.25000   0.00000  Uiso   1.00
O366   O     0.16001   0.41140   0.38243   0.00000  Uiso   1.00
O367   O     0.15070   0.58204   0.39001   0.00000  Uiso   1.00
O368   O     0.17330   0.41139   0.11756   0.00000  Uiso   1.00
O369   O     0.22679   0.46042   0.25001   0.00000  Uiso   1.00
O370   O     0.22679   0.53958   0.25001   0.00000  Uiso   1.00
O371   O     0.10655   0.46042   0.25000   0.00000  Uiso   1.00
O372   O     0.16666   0.53959   0.18573   0.00000  Uiso   1.00
O373   O     0.16667   0.46041   0.31427   0.00000  Uiso   1.00
O374   O     0.16667   0.53959   0.31427   0.00000  Uiso   1.00
O375   O     0.16666   0.46041   0.18573   0.00000  Uiso   1.00
O376   O     0.18265   0.58203   0.10999   0.00000  Uiso   1.00
C377   C     0.42097   0.49991   0.25327   0.00000  Uiso   1.00
C378   C     0.64566   0.54193   0.24466   0.00000  Uiso   1.00
C379   C     0.64547   0.45670   0.24571   0.00000  Uiso   1.00
C380   C     0.35434   0.54193   0.25535   0.00000  Uiso   1.00
C381   C     0.51351   0.53375   0.04643   0.00000  Uiso   1.00
C382   C     0.50047   0.45153   0.45065   0.00000  Uiso   1.00
C383   C     0.48652   0.53376   0.45357   0.00000  Uiso   1.00
C384   C     0.49954   0.45153   0.04935   0.00000  Uiso   1.00
C385   C     0.51031   0.53823   0.09138   0.00000  Uiso   1.00
C386   C     0.49550   0.45342   0.40495   0.00000  Uiso   1.00
C387   C     0.48972   0.53823   0.40862   0.00000  Uiso   1.00
C388   C     0.57903   0.49991   0.24673   0.00000  Uiso   1.00
C389   C     0.50451   0.45342   0.09505   0.00000  Uiso   1.00
C390   C     0.50534   0.49758   0.11683   0.00000  Uiso   1.00
C391   C     0.49467   0.49758   0.38318   0.00000  Uiso   1.00
C392   C     0.50317   0.49204   0.02435   0.00000  Uiso   1.00
C393   C     0.49686   0.49205   0.47566   0.00000  Uiso   1.00
C394   C     0.62371   0.49947   0.24403   0.00000  Uiso   1.00
C395   C     0.37628   0.49947   0.25596   0.00000  Uiso   1.00
C396   C     0.47909   0.60814   0.10420   0.00000  Uiso   1.00
C397   C     0.47123   0.63010   0.05833   0.00000  Uiso   1.00
C398   C     0.43780   0.33399   0.05775   0.00000  Uiso   1.00
C399   C     0.50172   0.49973   0.16500   0.00000  Uiso   1.00
C400   C     0.45212   0.40201   0.36710   0.00000  Uiso   1.00
C401   C     0.43041   0.37330   0.40063   0.00000  Uiso   1.00
C402   C     0.38628   0.36247   0.38400   0.00000  Uiso   1.00
C403   C     0.52091   0.60817   0.39581   0.00000  Uiso   1.00
C404   C     0.52871   0.63020   0.44166   0.00000  Uiso   1.00
C405   C     0.56216   0.33407   0.44225   0.00000  Uiso   1.00
C406   C     0.54784   0.40198   0.13290   0.00000  Uiso   1.00
C407   C     0.56960   0.37339   0.09930   0.00000  Uiso   1.00
C408   C     0.61368   0.36239   0.11603   0.00000  Uiso   1.00
C409   C     0.49828   0.49973   0.33500   0.00000  Uiso   1.00
C410   C     0.47276   0.35815   0.22250   0.00000  Uiso   1.00
C411   C     0.52832   0.64206   0.27620   0.00000  Uiso   1.00
C412   C     0.52724   0.35816   0.27750   0.00000  Uiso   1.00
C413   C     0.47168   0.64206   0.22380   0.00000  Uiso   1.00
C414   C     0.35452   0.45670   0.25426   0.00000  Uiso   1.00
Cl415  Cl    0.43879   0.38765   0.18435   0.00000  Uiso   1.00
Cl416  Cl    0.56749   0.61325   0.30828   0.00000  Uiso   1.00
Cl417  Cl    0.56122   0.38766   0.31565   0.00000  Uiso   1.00
Cl418  Cl    0.43251   0.61325   0.19173   0.00000  Uiso   1.00
Cl419  Cl    0.37823   0.40219   0.26767   0.00000  Uiso   1.00
Cl420  Cl    0.62306   0.59530   0.22590   0.00000  Uiso   1.00
Cl421  Cl    0.62176   0.40220   0.23229   0.00000  Uiso   1.00
Cl422  Cl    0.37695   0.59529   0.27412   0.00000  Uiso   1.00
Cu423  Cu    0.50000   0.54689   0.25000   0.00000  Uiso   1.00
Cu424  Cu    0.50000   0.45311   0.25000   0.00000  Uiso   1.00
H425   H     0.52256   0.56413   0.02869   0.00000  Uiso   1.00
H426   H     0.43295   0.34916   0.02429   0.00000  Uiso   1.00
H427   H     0.44665   0.36245   0.08119   0.00000  Uiso   1.00
H428   H     0.45273   0.38109   0.33653   0.00000  Uiso   1.00
H429   H     0.43407   0.43416   0.35805   0.00000  Uiso   1.00
H430   H     0.44691   0.33987   0.40674   0.00000  Uiso   1.00
H431   H     0.43035   0.39278   0.43206   0.00000  Uiso   1.00
H432   H     0.36879   0.39533   0.37753   0.00000  Uiso   1.00
H433   H     0.37129   0.34203   0.40915   0.00000  Uiso   1.00
H434   H     0.38561   0.34152   0.35336   0.00000  Uiso   1.00
H435   H     0.51787   0.63719   0.37174   0.00000  Uiso   1.00
H436   H     0.50623   0.41787   0.46584   0.00000  Uiso   1.00
H437   H     0.54801   0.58676   0.38863   0.00000  Uiso   1.00
H438   H     0.50025   0.64601   0.45246   0.00000  Uiso   1.00
H439   H     0.53957   0.60304   0.46561   0.00000  Uiso   1.00
H440   H     0.59142   0.65164   0.43345   0.00000  Uiso   1.00
H441   H     0.56690   0.34937   0.47566   0.00000  Uiso   1.00
H442   H     0.55340   0.36244   0.41869   0.00000  Uiso   1.00
H443   H     0.54721   0.38095   0.16341   0.00000  Uiso   1.00
H444   H     0.56588   0.43411   0.14207   0.00000  Uiso   1.00
H445   H     0.55305   0.34001   0.09299   0.00000  Uiso   1.00
H446   H     0.56978   0.39304   0.06798   0.00000  Uiso   1.00
H447   H     0.47747   0.56413   0.47132   0.00000  Uiso   1.00
H448   H     0.63121   0.39520   0.12271   0.00000  Uiso   1.00
H449   H     0.62870   0.34205   0.09084   0.00000  Uiso   1.00
H450   H     0.61422   0.34128   0.14658   0.00000  Uiso   1.00
H451   H     0.49377   0.41787   0.03415   0.00000  Uiso   1.00
H452   H     0.48214   0.63719   0.12824   0.00000  Uiso   1.00
H453   H     0.45201   0.58672   0.11143   0.00000  Uiso   1.00
H454   H     0.49968   0.64589   0.04746   0.00000  Uiso   1.00
H455   H     0.46033   0.60291   0.03443   0.00000  Uiso   1.00
H456   H     0.40857   0.65161   0.06673   0.00000  Uiso   1.00
N457   N     0.50000   0.61736   0.25000   0.00000  Uiso   1.00
N458   N     0.50000   0.38264   0.25000   0.00000  Uiso   1.00
O459   O     0.43988   0.53958   0.25000   0.00000  Uiso   1.00
O460   O     0.49334   0.41140   0.38243   0.00000  Uiso   1.00
O461   O     0.48403   0.58204   0.39001   0.00000  Uiso   1.00
O462   O     0.50663   0.41139   0.11756   0.00000  Uiso   1.00
O463   O     0.56012   0.46042   0.25001   0.00000  Uiso   1.00
O464   O     0.56012   0.53958   0.25001   0.00000  Uiso   1.00
O465   O     0.43988   0.46042   0.25000   0.00000  Uiso   1.00
O466   O     0.50000   0.53959   0.18573   0.00000  Uiso   1.00
O467   O     0.50000   0.46041   0.31427   0.00000  Uiso   1.00
O468   O     0.50000   0.53959   0.31427   0.00000  Uiso   1.00
O469   O     0.50000   0.46041   0.18573   0.00000  Uiso   1.00
O470   O     0.51598   0.58203   0.10999   0.00000  Uiso   1.00
C471   C     0.75430   0.49991   0.25327   0.00000  Uiso   1.00
C472   C     0.97900   0.54193   0.24466   0.00000  Uiso   1.00
C473   C     0.97881   0.45670   0.24571   0.00000  Uiso   1.00
C474   C     0.68767   0.54193   0.25535   0.00000  Uiso   1.00
C475   C     0.84685   0.53375   0.04643   0.00000  Uiso   1.00
C476   C     0.83381   0.45153   0.45065   0.00000  Uiso   1.00
C477   C     0.81986   0.53376   0.45357   0.00000  Uiso   1.00
C478   C     0.83287   0.45153   0.04935   0.00000  Uiso   1.00
C479   C     0.84364   0.53823   0.09138   0.00000  Uiso   1.00
C480   C     0.82883   0.45342   0.40495   0.00000  Uiso   1.00
C481   C     0.82305   0.53823   0.40862   0.00000  Uiso   1.00
C482   C     0.91236   0.49991   0.24673   0.00000  Uiso   1.00
C483   C     0.83784   0.45342   0.09505   0.00000  Uiso   1.00
C484   C     0.83867   0.49758   0.11683   0.00000  Uiso   1.00
C485   C     0.82800   0.49758   0.38318   0.00000  Uiso   1.00
C486   C     0.83650   0.49204   0.02435   0.00000  Uiso   1.00
C487   C     0.83019   0.49205   0.47566   0.00000  Uiso   1.00
C488   C     0.95705   0.49947   0.24403   0.00000  Uiso   1.00
C489   C     0.70962   0.49947   0.25596   0.00000  Uiso   1.00
C490   C     0.81243   0.60814   0.10420   0.00000  Uiso   1.00
C491   C     0.80456   0.63010   0.05833   0.00000  Uiso   1.00
C492   C     0.77113   0.33399   0.05775   0.00000  Uiso   1.00
C493   C     0.83506   0.49973   0.16500   0.00000  Uiso   1.00
C494   C     0.78546   0.40201   0.36710   0.00000  Uiso   1.00
C495   C     0.76374   0.37330   0.40063   0.00000  Uiso   1.00
C496   C     0.71961   0.36247   0.38400   0.00000  Uiso   1.00
C497   C     0.85424   0.60817   0.39581   0.00000  Uiso   1.00
C498   C     0.86204   0.63020   0.44166   0.00000  Uiso   1.00
C499   C     0.89549   0.33407   0.44225   0.00000  Uiso   1.00
C500   C     0.88117   0.40198   0.13290   0.00000  Uiso   1.00
C501   C     0.90293   0.37339   0.09930   0.00000  Uiso   1.00
C502   C     0.94701   0.36239   0.11603   0.00000  Uiso   1.00
C503   C     0.83161   0.49973   0.33500   0.00000  Uiso   1.00
C504   C     0.80609   0.35815   0.22250   0.00000  Uiso   1.00
C505   C     0.86165   0.64206   0.27620   0.00000  Uiso   1.00
C506   C     0.86057   0.35816   0.27750   0.00000  Uiso   1.00
C507   C     0.80502   0.64206   0.22380   0.00000  Uiso   1.00
C508   C     0.68786   0.45670   0.25426   0.00000  Uiso   1.00
Cl509  Cl    0.77212   0.38765   0.18435   0.00000  Uiso   1.00
Cl510  Cl    0.90082   0.61325   0.30828   0.00000  Uiso   1.00
Cl511  Cl    0.89455   0.38766   0.31565   0.00000  Uiso   1.00
Cl512  Cl    0.76584   0.61325   0.19173   0.00000  Uiso   1.00
Cl513  Cl    0.71156   0.40219   0.26767   0.00000  Uiso   1.00
Cl514  Cl    0.95639   0.59530   0.22590   0.00000  Uiso   1.00
Cl515  Cl    0.95509   0.40220   0.23229   0.00000  Uiso   1.00
Cl516  Cl    0.71028   0.59529   0.27412   0.00000  Uiso   1.00
Cu517  Cu    0.83333   0.54689   0.25000   0.00000  Uiso   1.00
Cu518  Cu    0.83333   0.45311   0.25000   0.00000  Uiso   1.00
H519   H     0.85590   0.56413   0.02869   0.00000  Uiso   1.00
H520   H     0.76628   0.34916   0.02429   0.00000  Uiso   1.00
H521   H     0.77999   0.36245   0.08119   0.00000  Uiso   1.00
H522   H     0.78606   0.38109   0.33653   0.00000  Uiso   1.00
H523   H     0.76740   0.43416   0.35805   0.00000  Uiso   1.00
H524   H     0.78024   0.33987   0.40674   0.00000  Uiso   1.00
H525   H     0.76368   0.39278   0.43206   0.00000  Uiso   1.00
H526   H     0.70213   0.39533   0.37753   0.00000  Uiso   1.00
H527   H     0.70462   0.34203   0.40915   0.00000  Uiso   1.00
H528   H     0.71894   0.34152   0.35336   0.00000  Uiso   1.00
H529   H     0.85120   0.63719   0.37174   0.00000  Uiso   1.00
H530   H     0.83956   0.41787   0.46584   0.00000  Uiso   1.00
H531   H     0.88134   0.58676   0.38863   0.00000  Uiso   1.00
H532   H     0.83358   0.64601   0.45246   0.00000  Uiso   1.00
H533   H     0.87291   0.60304   0.46561   0.00000  Uiso   1.00
H534   H     0.92475   0.65164   0.43345   0.00000  Uiso   1.00
H535   H     0.90023   0.34937   0.47566   0.00000  Uiso   1.00
H536   H     0.88673   0.36244   0.41869   0.00000  Uiso   1.00
H537   H     0.88054   0.38095   0.16341   0.00000  Uiso   1.00
H538   H     0.89921   0.43411   0.14207   0.00000  Uiso   1.00
H539   H     0.88638   0.34001   0.09299   0.00000  Uiso   1.00
H540   H     0.90311   0.39304   0.06798   0.00000  Uiso   1.00
H541   H     0.81080   0.56413   0.47132   0.00000  Uiso   1.00
H542   H     0.96454   0.39520   0.12271   0.00000  Uiso   1.00
H543   H     0.96203   0.34205   0.09084   0.00000  Uiso   1.00
H544   H     0.94756   0.34128   0.14658   0.00000  Uiso   1.00
H545   H     0.82711   0.41787   0.03415   0.00000  Uiso   1.00
H546   H     0.81547   0.63719   0.12824   0.00000  Uiso   1.00
H547   H     0.78535   0.58672   0.11143   0.00000  Uiso   1.00
H548   H     0.83301   0.64589   0.04746   0.00000  Uiso   1.00
H549   H     0.79366   0.60291   0.03443   0.00000  Uiso   1.00
H550   H     0.74190   0.65161   0.06673   0.00000  Uiso   1.00
N551   N     0.83333   0.61736   0.25000   0.00000  Uiso   1.00
N552   N     0.83333   0.38264   0.25000   0.00000  Uiso   1.00
O553   O     0.77321   0.53958   0.25000   0.00000  Uiso   1.00
O554   O     0.82668   0.41140   0.38243   0.00000  Uiso   1.00
O555   O     0.81737   0.58204   0.39001   0.00000  Uiso   1.00
O556   O     0.83997   0.41139   0.11756   0.00000  Uiso   1.00
O557   O     0.89345   0.46042   0.25001   0.00000  Uiso   1.00
O558   O     0.89345   0.53958   0.25001   0.00000  Uiso   1.00
O559   O     0.77321   0.46042   0.25000   0.00000  Uiso   1.00
O560   O     0.83333   0.53959   0.18573   0.00000  Uiso   1.00
O561   O     0.83334   0.46041   0.31427   0.00000  Uiso   1.00
O562   O     0.83334   0.53959   0.31427   0.00000  Uiso   1.00
O563   O     0.83333   0.46041   0.18573   0.00000  Uiso   1.00
O564   O     0.84931   0.58203   0.10999   0.00000  Uiso   1.00
C565   C     0.08763   0.83324   0.25327   0.00000  Uiso   1.00
C566   C     0.31233   0.87526   0.24466   0.00000  Uiso   1.00
C567   C     0.31214   0.79003   0.24571   0.00000  Uiso   1.00
C568   C     0.02101   0.87526   0.25535   0.00000  Uiso   1.00
C569   C     0.18018   0.86709   0.04643   0.00000  Uiso   1.00
C570   C     0.16714   0.78486   0.45065   0.00000  Uiso   1.00
C571   C     0.15319   0.86709   0.45357   0.00000  Uiso   1.00
C572   C     0.16621   0.78486   0.04935   0.00000  Uiso   1.00
C573   C     0.17697   0.87156   0.09138   0.00000  Uiso   1.00
C574   C     0.16217   0.78676   0.40495   0.00000  Uiso   1.00
C575   C     0.15639   0.87157   0.40862   0.00000  Uiso   1.00
C576   C     0.24570   0.83324   0.24673   0.00000  Uiso   1.00
C577   C     0.17117   0.78675   0.09505   0.00000  Uiso   1.00
C578   C     0.17201   0.83091   0.11683   0.00000  Uiso   1.00
C579   C     0.16134   0.83091   0.38318   0.00000  Uiso   1.00
C580   C     0.16983   0.82538   0.02435   0.00000  Uiso   1.00
C581   C     0.16353   0.82538   0.47566   0.00000  Uiso   1.00
C582   C     0.29038   0.83281   0.24403   0.00000  Uiso   1.00
C583   C     0.04295   0.83280   0.25596   0.00000  Uiso   1.00
C584   C     0.14576   0.94147   0.10420   0.00000  Uiso   1.00
C585   C     0.13790   0.96343   0.05833   0.00000  Uiso   1.00
C586   C     0.10446   0.66732   0.05775   0.00000  Uiso   1.00
C587   C     0.16839   0.83306   0.16500   0.00000  Uiso   1.00
C588   C     0.11879   0.73535   0.36710   0.00000  Uiso   1.00
C589   C     0.09708   0.70663   0.40063   0.00000  Uiso   1.00
C590   C     0.05294   0.69580   0.38400   0.00000  Uiso   1.00
C591   C     0.18757   0.94150   0.39581   0.00000  Uiso   1.00
C592   C     0.19538   0.96353   0.44166   0.00000  Uiso   1.00
C593   C     0.22883   0.66740   0.44225   0.00000  Uiso   1.00
C594   C     0.21451   0.73531   0.13290   0.00000  Uiso   1.00
C595   C     0.23626   0.70673   0.09930   0.00000  Uiso   1.00
C596   C     0.28034   0.69573   0.11603   0.00000  Uiso   1.00
C597   C     0.16494   0.83306   0.33500   0.00000  Uiso   1.00
C598   C     0.13943   0.69149   0.22250   0.00000  Uiso   1.00
C599   C     0.19498   0.97540   0.27620   0.00000  Uiso   1.00
C600   C     0.19391   0.69149   0.27750   0.00000  Uiso   1.00
C601   C     0.13835   0.97540   0.22380   0.00000  Uiso   1.00
C602   C     0.02119   0.79003   0.25426   0.00000  Uiso   1.00
Cl603  Cl    0.10545   0.72099   0.18435   0.00000  Uiso   1.00
Cl604  Cl    0.23415   0.94658   0.30828   0.00000  Uiso   1.00
Cl605  Cl    0.22789   0.72099   0.31565   0.00000  Uiso   1.00
Cl606  Cl    0.09918   0.94658   0.19173   0.00000  Uiso   1.00
Cl607  Cl    0.04490   0.73553   0.26767   0.00000  Uiso   1.00
Cl608  Cl    0.28972   0.92863   0.22590   0.00000  Uiso   1.00
Cl609  Cl    0.28843   0.73553   0.23229   0.00000  Uiso   1.00
Cl610  Cl    0.04362   0.92863   0.27412   0.00000  Uiso   1.00
Cu611  Cu    0.16667   0.88022   0.25000   0.00000  Uiso   1.00
Cu612  Cu    0.16667   0.78645   0.25000   0.00000  Uiso   1.00
H613   H     0.18923   0.89746   0.02869   0.00000  Uiso   1.00
H614   H     0.09961   0.68250   0.02429   0.00000  Uiso   1.00
H615   H     0.11332   0.69578   0.08119   0.00000  Uiso   1.00
H616   H     0.11940   0.71443   0.33653   0.00000  Uiso   1.00
H617   H     0.10074   0.76750   0.35805   0.00000  Uiso   1.00
H618   H     0.11357   0.67320   0.40674   0.00000  Uiso   1.00
H619   H     0.09702   0.72612   0.43206   0.00000  Uiso   1.00
H620   H     0.03546   0.72866   0.37753   0.00000  Uiso   1.00
H621   H     0.03796   0.67536   0.40915   0.00000  Uiso   1.00
H622   H     0.05227   0.67485   0.35336   0.00000  Uiso   1.00
H623   H     0.18454   0.97052   0.37174   0.00000  Uiso   1.00
H624   H     0.17289   0.75120   0.46584   0.00000  Uiso   1.00
H625   H     0.21467   0.92009   0.38863   0.00000  Uiso   1.00
H626   H     0.16692   0.97934   0.45246   0.00000  Uiso   1.00
H627   H     0.20624   0.93638   0.46561   0.00000  Uiso   1.00
H628   H     0.25809   0.98497   0.43345   0.00000  Uiso   1.00
H629   H     0.23357   0.68271   0.47566   0.00000  Uiso   1.00
H630   H     0.22007   0.69577   0.41869   0.00000  Uiso   1.00
H631   H     0.21387   0.71429   0.16341   0.00000  Uiso   1.00
H632   H     0.23255   0.76745   0.14207   0.00000  Uiso   1.00
H633   H     0.21971   0.67335   0.09299   0.00000  Uiso   1.00
H634   H     0.23645   0.72638   0.06798   0.00000  Uiso   1.00
H635   H     0.14414   0.89746   0.47132   0.00000  Uiso   1.00
H636   H     0.29787   0.72853   0.12271   0.00000  Uiso   1.00
H637   H     0.29536   0.67539   0.09084   0.00000  Uiso   1.00
H638   H     0.28089   0.67461   0.14658   0.00000  Uiso   1.00
H639   H     0.16044   0.75120   0.03415   0.00000  Uiso   1.00
H640   H     0.14880   0.97053   0.12824   0.00000  Uiso   1.00
H641   H     0.11868   0.92006   0.11143   0.00000  Uiso   1.00
H642   H     0.16634   0.97922   0.04746   0.00000  Uiso   1.00
H643   H     0.12699   0.93624   0.03443   0.00000  Uiso   1.00
H644   H     0.07524   0.98494   0.06673   0.00000  Uiso   1.00
N645   N     0.16667   0.95069   0.25000   0.00000  Uiso   1.00
N646   N     0.16667   0.71598   0.25000   0.00000  Uiso   1.00
O647   O     0.10655   0.87291   0.25000   0.00000  Uiso   1.00
O648   O     0.16001   0.74473   0.38243   0.00000  Uiso   1.00
O649   O     0.15070   0.91537   0.39001   0.00000  Uiso   1.00
O650   O     0.17330   0.74473   0.11756   0.00000  Uiso   1.00
O651   O     0.22679   0.79375   0.25001   0.00000  Uiso   1.00
O652   O     0.22679   0.87291   0.25001   0.00000  Uiso   1.00
O653   O     0.10655   0.79375   0.25000   0.00000  Uiso   1.00
O654   O     0.16666   0.87293   0.18573   0.00000  Uiso   1.00
O655   O     0.16667   0.79374   0.31427   0.00000  Uiso   1.00
O656   O     0.16667   0.87293   0.31427   0.00000  Uiso   1.00
O657   O     0.16666   0.79374   0.18573   0.00000  Uiso   1.00
O658   O     0.18265   0.91537   0.10999   0.00000  Uiso   1.00
C659   C     0.42097   0.83324   0.25327   0.00000  Uiso   1.00
C660   C     0.64566   0.87526   0.24466   0.00000  Uiso   1.00
C661   C     0.64547   0.79003   0.24571   0.00000  Uiso   1.00
C662   C     0.35434   0.87526   0.25535   0.00000  Uiso   1.00
C663   C     0.51351   0.86709   0.04643   0.00000  Uiso   1.00
C664   C     0.50047   0.78486   0.45065   0.00000  Uiso   1.00
C665   C     0.48652   0.86709   0.45357   0.00000  Uiso   1.00
C666   C     0.49954   0.78486   0.04935   0.00000  Uiso   1.00
C667   C     0.51031   0.87156   0.09138   0.00000  Uiso   1.00
C668   C     0.49550   0.78676   0.40495   0.00000  Uiso   1.00
C669   C     0.48972   0.87157   0.40862   0.00000  Uiso   1.00
C670   C     0.57903   0.83324   0.24673   0.00000  Uiso   1.00
C671   C     0.50451   0.78675   0.09505   0.00000  Uiso   1.00
C672   C     0.50534   0.83091   0.11683   0.00000  Uiso   1.00
C673   C     0.49467   0.83091   0.38318   0.00000  Uiso   1.00
C674   C     0.50317   0.82538   0.02435   0.00000  Uiso   1.00
C675   C     0.49686   0.82538   0.47566   0.00000  Uiso   1.00
C676   C     0.62371   0.83281   0.24403   0.00000  Uiso   1.00
C677   C     0.37628   0.83280   0.25596   0.00000  Uiso   1.00
C678   C     0.47909   0.94147   0.10420   0.00000  Uiso   1.00
C679   C     0.47123   0.96343   0.05833   0.00000  Uiso   1.00
C680   C     0.43780   0.66732   0.05775   0.00000  Uiso   1.00
C681   C     0.50172   0.83306   0.16500   0.00000  Uiso   1.00
C682   C     0.45212   0.73535   0.36710   0.00000  Uiso   1.00
C683   C     0.43041   0.70663   0.40063   0.00000  Uiso   1.00
C684   C     0.38628   0.69580   0.38400   0.00000  Uiso   1.00
C685   C     0.52091   0.94150   0.39581   0.00000  Uiso   1.00
C686   C     0.52871   0.96353   0.44166   0.00000  Uiso   1.00
C687   C     0.56216   0.66740   0.44225   0.00000  Uiso   1.00
C688   C     0.54784   0.73531   0.13290   0.00000  Uiso   1.00
C689   C     0.56960   0.70673   0.09930   0.00000  Uiso   1.00
C690   C     0.61368   0.69573   0.11603   0.00000  Uiso   1.00
C691   C     0.49828   0.83306   0.33500   0.00000  Uiso   1.00
C692   C     0.47276   0.69149   0.22250   0.00000  Uiso   1.00
C693   C     0.52832   0.97540   0.27620   0.00000  Uiso   1.00
C694   C     0.52724   0.69149   0.27750   0.00000  Uiso   1.00
C695   C     0.47168   0.97540   0.22380   0.00000  Uiso   1.00
C696   C     0.35452   0.79003   0.25426   0.00000  Uiso   1.00
Cl697  Cl    0.43879   0.72099   0.18435   0.00000  Uiso   1.00
Cl698  Cl    0.56749   0.94658   0.30828   0.00000  Uiso   1.00
Cl699  Cl    0.56122   0.72099   0.31565   0.00000  Uiso   1.00
Cl700  Cl    0.43251   0.94658   0.19173   0.00000  Uiso   1.00
Cl701  Cl    0.37823   0.73553   0.26767   0.00000  Uiso   1.00
Cl702  Cl    0.62306   0.92863   0.22590   0.00000  Uiso   1.00
Cl703  Cl    0.62176   0.73553   0.23229   0.00000  Uiso   1.00
Cl704  Cl    0.37695   0.92863   0.27412   0.00000  Uiso   1.00
Cu705  Cu    0.50000   0.88022   0.25000   0.00000  Uiso   1.00
Cu706  Cu    0.50000   0.78645   0.25000   0.00000  Uiso   1.00
H707   H     0.52256   0.89746   0.02869   0.00000  Uiso   1.00
H708   H     0.43295   0.68250   0.02429   0.00000  Uiso   1.00
H709   H     0.44665   0.69578   0.08119   0.00000  Uiso   1.00
H710   H     0.45273   0.71443   0.33653   0.00000  Uiso   1.00
H711   H     0.43407   0.76750   0.35805   0.00000  Uiso   1.00
H712   H     0.44691   0.67320   0.40674   0.00000  Uiso   1.00
H713   H     0.43035   0.72612   0.43206   0.00000  Uiso   1.00
H714   H     0.36879   0.72866   0.37753   0.00000  Uiso   1.00
H715   H     0.37129   0.67536   0.40915   0.00000  Uiso   1.00
H716   H     0.38561   0.67485   0.35336   0.00000  Uiso   1.00
H717   H     0.51787   0.97052   0.37174   0.00000  Uiso   1.00
H718   H     0.50623   0.75120   0.46584   0.00000  Uiso   1.00
H719   H     0.54801   0.92009   0.38863   0.00000  Uiso   1.00
H720   H     0.50025   0.97934   0.45246   0.00000  Uiso   1.00
H721   H     0.53957   0.93638   0.46561   0.00000  Uiso   1.00
H722   H     0.59142   0.98497   0.43345   0.00000  Uiso   1.00
H723   H     0.56690   0.68271   0.47566   0.00000  Uiso   1.00
H724   H     0.55340   0.69577   0.41869   0.00000  Uiso   1.00
H725   H     0.54721   0.71429   0.16341   0.00000  Uiso   1.00
H726   H     0.56588   0.76745   0.14207   0.00000  Uiso   1.00
H727   H     0.55305   0.67335   0.09299   0.00000  Uiso   1.00
H728   H     0.56978   0.72638   0.06798   0.00000  Uiso   1.00
H729   H     0.47747   0.89746   0.47132   0.00000  Uiso   1.00
H730   H     0.63121   0.72853   0.12271   0.00000  Uiso   1.00
H731   H     0.62870   0.67539   0.09084   0.00000  Uiso   1.00
H732   H     0.61422   0.67461   0.14658   0.00000  Uiso   1.00
H733   H     0.49377   0.75120   0.03415   0.00000  Uiso   1.00
H734   H     0.48214   0.97053   0.12824   0.00000  Uiso   1.00
H735   H     0.45201   0.92006   0.11143   0.00000  Uiso   1.00
H736   H     0.49968   0.97922   0.04746   0.00000  Uiso   1.00
H737   H     0.46033   0.93624   0.03443   0.00000  Uiso   1.00
H738   H     0.40857   0.98494   0.06673   0.00000  Uiso   1.00
N739   N     0.50000   0.95069   0.25000   0.00000  Uiso   1.00
N740   N     0.50000   0.71598   0.25000   0.00000  Uiso   1.00
O741   O     0.43988   0.87291   0.25000   0.00000  Uiso   1.00
O742   O     0.49334   0.74473   0.38243   0.00000  Uiso   1.00
O743   O     0.48403   0.91537   0.39001   0.00000  Uiso   1.00
O744   O     0.50663   0.74473   0.11756   0.00000  Uiso   1.00
O745   O     0.56012   0.79375   0.25001   0.00000  Uiso   1.00
O746   O     0.56012   0.87291   0.25001   0.00000  Uiso   1.00
O747   O     0.43988   0.79375   0.25000   0.00000  Uiso   1.00
O748   O     0.50000   0.87293   0.18573   0.00000  Uiso   1.00
O749   O     0.50000   0.79374   0.31427   0.00000  Uiso   1.00
O750   O     0.50000   0.87293   0.31427   0.00000  Uiso   1.00
O751   O     0.50000   0.79374   0.18573   0.00000  Uiso   1.00
O752   O     0.51598   0.91537   0.10999   0.00000  Uiso   1.00
C753   C     0.75430   0.83324   0.25327   0.00000  Uiso   1.00
C754   C     0.97900   0.87526   0.24466   0.00000  Uiso   1.00
C755   C     0.97881   0.79003   0.24571   0.00000  Uiso   1.00
C756   C     0.68767   0.87526   0.25535   0.00000  Uiso   1.00
C757   C     0.84685   0.86709   0.04643   0.00000  Uiso   1.00
C758   C     0.83381   0.78486   0.45065   0.00000  Uiso   1.00
C759   C     0.81986   0.86709   0.45357   0.00000  Uiso   1.00
C760   C     0.83287   0.78486   0.04935   0.00000  Uiso   1.00
C761   C     0.84364   0.87156   0.09138   0.00000  Uiso   1.00
C762   C     0.82883   0.78676   0.40495   0.00000  Uiso   1.00
C763   C     0.82305   0.87157   0.40862   0.00000  Uiso   1.00
C764   C     0.91236   0.83324   0.24673   0.00000  Uiso   1.00
C765   C     0.83784   0.78675   0.09505   0.00000  Uiso   1.00
C766   C     0.83867   0.83091   0.11683   0.00000  Uiso   1.00
C767   C     0.82800   0.83091   0.38318   0.00000  Uiso   1.00
C768   C     0.83650   0.82538   0.02435   0.00000  Uiso   1.00
C769   C     0.83019   0.82538   0.47566   0.00000  Uiso   1.00
C770   C     0.95705   0.83281   0.24403   0.00000  Uiso   1.00
C771   C     0.70962   0.83280   0.25596   0.00000  Uiso   1.00
C772   C     0.81243   0.94147   0.10420   0.00000  Uiso   1.00
C773   C     0.80456   0.96343   0.05833   0.00000  Uiso   1.00
C774   C     0.77113   0.66732   0.05775   0.00000  Uiso   1.00
C775   C     0.83506   0.83306   0.16500   0.00000  Uiso   1.00
C776   C     0.78546   0.73535   0.36710   0.00000  Uiso   1.00
C777   C     0.76374   0.70663   0.40063   0.00000  Uiso   1.00
C778   C     0.71961   0.69580   0.38400   0.00000  Uiso   1.00
C779   C     0.85424   0.94150   0.39581   0.00000  Uiso   1.00
C780   C     0.86204   0.96353   0.44166   0.00000  Uiso   1.00
C781   C     0.89549   0.66740   0.44225   0.00000  Uiso   1.00
C782   C     0.88117   0.73531   0.13290   0.00000  Uiso   1.00
C783   C     0.90293   0.70673   0.09930   0.00000  Uiso   1.00
C784   C     0.94701   0.69573   0.11603   0.00000  Uiso   1.00
C785   C     0.83161   0.83306   0.33500   0.00000  Uiso   1.00
C786   C     0.80609   0.69149   0.22250   0.00000  Uiso   1.00
C787   C     0.86165   0.97540   0.27620   0.00000  Uiso   1.00
C788   C     0.86057   0.69149   0.27750   0.00000  Uiso   1.00
C789   C     0.80502   0.97540   0.22380   0.00000  Uiso   1.00
C790   C     0.68786   0.79003   0.25426   0.00000  Uiso   1.00
Cl791  Cl    0.77212   0.72099   0.18435   0.00000  Uiso   1.00
Cl792  Cl    0.90082   0.94658   0.30828   0.00000  Uiso   1.00
Cl793  Cl    0.89455   0.72099   0.31565   0.00000  Uiso   1.00
Cl794  Cl    0.76584   0.94658   0.19173   0.00000  Uiso   1.00
Cl795  Cl    0.71156   0.73553   0.26767   0.00000  Uiso   1.00
Cl796  Cl    0.95639   0.92863   0.22590   0.00000  Uiso   1.00
Cl797  Cl    0.95509   0.73553   0.23229   0.00000  Uiso   1.00
Cl798  Cl    0.71028   0.92863   0.27412   0.00000  Uiso   1.00
Cu799  Cu    0.83333   0.88022   0.25000   0.00000  Uiso   1.00
Cu800  Cu    0.83333   0.78645   0.25000   0.00000  Uiso   1.00
H801   H     0.85590   0.89746   0.02869   0.00000  Uiso   1.00
H802   H     0.76628   0.68250   0.02429   0.00000  Uiso   1.00
H803   H     0.77999   0.69578   0.08119   0.00000  Uiso   1.00
H804   H     0.78606   0.71443   0.33653   0.00000  Uiso   1.00
H805   H     0.76740   0.76750   0.35805   0.00000  Uiso   1.00
H806   H     0.78024   0.67320   0.40674   0.00000  Uiso   1.00
H807   H     0.76368   0.72612   0.43206   0.00000  Uiso   1.00
H808   H     0.70213   0.72866   0.37753   0.00000  Uiso   1.00
H809   H     0.70462   0.67536   0.40915   0.00000  Uiso   1.00
H810   H     0.71894   0.67485   0.35336   0.00000  Uiso   1.00
H811   H     0.85120   0.97052   0.37174   0.00000  Uiso   1.00
H812   H     0.83956   0.75120   0.46584   0.00000  Uiso   1.00
H813   H     0.88134   0.92009   0.38863   0.00000  Uiso   1.00
H814   H     0.83358   0.97934   0.45246   0.00000  Uiso   1.00
H815   H     0.87291   0.93638   0.46561   0.00000  Uiso   1.00
H816   H     0.92475   0.98497   0.43345   0.00000  Uiso   1.00
H817   H     0.90023   0.68271   0.47566   0.00000  Uiso   1.00
H818   H     0.88673   0.69577   0.41869   0.00000  Uiso   1.00
H819   H     0.88054   0.71429   0.16341   0.00000  Uiso   1.00
H820   H     0.89921   0.76745   0.14207   0.00000  Uiso   1.00
H821   H     0.88638   0.67335   0.09299   0.00000  Uiso   1.00
H822   H     0.90311   0.72638   0.06798   0.00000  Uiso   1.00
H823   H     0.81080   0.89746   0.47132   0.00000  Uiso   1.00
H824   H     0.96454   0.72853   0.12271   0.00000  Uiso   1.00
H825   H     0.96203   0.67539   0.09084   0.00000  Uiso   1.00
H826   H     0.94756   0.67461   0.14658   0.00000  Uiso   1.00
H827   H     0.82711   0.75120   0.03415   0.00000  Uiso   1.00
H828   H     0.81547   0.97053   0.12824   0.00000  Uiso   1.00
H829   H     0.78535   0.92006   0.11143   0.00000  Uiso   1.00
H830   H     0.83301   0.97922   0.04746   0.00000  Uiso   1.00
H831   H     0.79366   0.93624   0.03443   0.00000  Uiso   1.00
H832   H     0.74190   0.98494   0.06673   0.00000  Uiso   1.00
N833   N     0.83333   0.95069   0.25000   0.00000  Uiso   1.00
N834   N     0.83333   0.71598   0.25000   0.00000  Uiso   1.00
O835   O     0.77321   0.87291   0.25000   0.00000  Uiso   1.00
O836   O     0.82668   0.74473   0.38243   0.00000  Uiso   1.00
O837   O     0.81737   0.91537   0.39001   0.00000  Uiso   1.00
O838   O     0.83997   0.74473   0.11756   0.00000  Uiso   1.00
O839   O     0.89345   0.79375   0.25001   0.00000  Uiso   1.00
O840   O     0.89345   0.87291   0.25001   0.00000  Uiso   1.00
O841   O     0.77321   0.79375   0.25000   0.00000  Uiso   1.00
O842   O     0.83333   0.87293   0.18573   0.00000  Uiso   1.00
O843   O     0.83334   0.79374   0.31427   0.00000  Uiso   1.00
O844   O     0.83334   0.87293   0.31427   0.00000  Uiso   1.00
O845   O     0.83333   0.79374   0.18573   0.00000  Uiso   1.00
O846   O     0.84931   0.91537   0.10999   0.00000  Uiso   1.00
C847   C     0.08763   0.16657   0.75327   0.00000  Uiso   1.00
C848   C     0.31233   0.20859   0.74466   0.00000  Uiso   1.00
C849   C     0.31214   0.12337   0.74571   0.00000  Uiso   1.00
C850   C     0.02101   0.20859   0.75535   0.00000  Uiso   1.00
C851   C     0.18018   0.20042   0.54643   0.00000  Uiso   1.00
C852   C     0.16714   0.11820   0.95065   0.00000  Uiso   1.00
C853   C     0.15319   0.20043   0.95357   0.00000  Uiso   1.00
C854   C     0.16621   0.11819   0.54935   0.00000  Uiso   1.00
C855   C     0.17697   0.20489   0.59138   0.00000  Uiso   1.00
C856   C     0.16217   0.12009   0.90495   0.00000  Uiso   1.00
C857   C     0.15639   0.20490   0.90862   0.00000  Uiso   1.00
C858   C     0.24570   0.16657   0.74673   0.00000  Uiso   1.00
C859   C     0.17117   0.12009   0.59505   0.00000  Uiso   1.00
C860   C     0.17201   0.16424   0.61683   0.00000  Uiso   1.00
C861   C     0.16134   0.16425   0.88318   0.00000  Uiso   1.00
C862   C     0.16983   0.15871   0.52435   0.00000  Uiso   1.00
C863   C     0.16353   0.15871   0.97566   0.00000  Uiso   1.00
C864   C     0.29038   0.16614   0.74403   0.00000  Uiso   1.00
C865   C     0.04295   0.16614   0.75596   0.00000  Uiso   1.00
C866   C     0.14576   0.27481   0.60420   0.00000  Uiso   1.00
C867   C     0.13790   0.29677   0.55833   0.00000  Uiso   1.00
C868   C     0.10446   0.00065   0.55775   0.00000  Uiso   1.00
C869   C     0.16839   0.16640   0.66500   0.00000  Uiso   1.00
C870   C     0.11879   0.06868   0.86710   0.00000  Uiso   1.00
C871   C     0.09708   0.03997   0.90063   0.00000  Uiso   1.00
C872   C     0.05294   0.02913   0.88400   0.00000  Uiso   1.00
C873   C     0.18757   0.27483   0.89581   0.00000  Uiso   1.00
C874   C     0.19538   0.29686   0.94166   0.00000  Uiso   1.00
C875   C     0.22883   0.00073   0.94225   0.00000  Uiso   1.00
C876   C     0.21451   0.06864   0.63290   0.00000  Uiso   1.00
C877   C     0.23626   0.04006   0.59930   0.00000  Uiso   1.00
C878   C     0.28034   0.02906   0.61603   0.00000  Uiso   1.00
C879   C     0.16494   0.16640   0.83500   0.00000  Uiso   1.00
C880   C     0.13943   0.02482   0.72250   0.00000  Uiso   1.00
C881   C     0.19498   0.30873   0.77620   0.00000  Uiso   1.00
C882   C     0.19391   0.02482   0.77750   0.00000  Uiso   1.00
C883   C     0.13835   0.30873   0.72380   0.00000  Uiso   1.00
C884   C     0.02119   0.12336   0.75426   0.00000  Uiso   1.00
Cl885  Cl    0.10545   0.05432   0.68435   0.00000  Uiso   1.00
Cl886  Cl    0.23415   0.27992   0.80828   0.00000  Uiso   1.00
Cl887  Cl    0.22789   0.05433   0.81565   0.00000  Uiso   1.00
Cl888  Cl    0.09918   0.27991   0.69173   0.00000  Uiso   1.00
Cl889  Cl    0.04490   0.06886   0.76767   0.00000  Uiso   1.00
Cl890  Cl    0.28972   0.26197   0.72590   0.00000  Uiso   1.00
Cl891  Cl    0.28843   0.06887   0.73229   0.00000  Uiso   1.00
Cl892  Cl    0.04362   0.26196   0.77412   0.00000  Uiso   1.00
Cu893  Cu    0.16667   0.21355   0.75000   0.00000  Uiso   1.00
Cu894  Cu    0.16667   0.11978   0.75000   0.00000  Uiso   1.00
H895   H     0.18923   0.23079   0.52869   0.00000  Uiso   1.00
H896   H     0.09961   0.01583   0.52429   0.00000  Uiso   1.00
H897   H     0.11332   0.02912   0.58119   0.00000  Uiso   1.00
H898   H     0.11940   0.04776   0.83653   0.00000  Uiso   1.00
H899   H     0.10074   0.10083   0.85805   0.00000  Uiso   1.00
H900   H     0.11357   0.00654   0.90674   0.00000  Uiso   1.00
H901   H     0.09702   0.05945   0.93206   0.00000  Uiso   1.00
H902   H     0.03546   0.06199   0.87753   0.00000  Uiso   1.00
H903   H     0.03796   0.00870   0.90915   0.00000  Uiso   1.00
H904   H     0.05227   0.00818   0.85336   0.00000  Uiso   1.00
H905   H     0.18454   0.30385   0.87174   0.00000  Uiso   1.00
H906   H     0.17289   0.08454   0.96584   0.00000  Uiso   1.00
H907   H     0.21467   0.25343   0.88863   0.00000  Uiso   1.00
H908   H     0.16692   0.31268   0.95246   0.00000  Uiso   1.00
H909   H     0.20624   0.26971   0.96561   0.00000  Uiso   1.00
H910   H     0.25809   0.31831   0.93345   0.00000  Uiso   1.00
H911   H     0.23357   0.01604   0.97566   0.00000  Uiso   1.00
H912   H     0.22007   0.02911   0.91869   0.00000  Uiso   1.00
H913   H     0.21387   0.04762   0.66341   0.00000  Uiso   1.00
H914   H     0.23255   0.10078   0.64207   0.00000  Uiso   1.00
H915   H     0.21971   0.00668   0.59299   0.00000  Uiso   1.00
H916   H     0.23645   0.05971   0.56798   0.00000  Uiso   1.00
H917   H     0.14414   0.23080   0.97132   0.00000  Uiso   1.00
H918   H     0.29787   0.06186   0.62271   0.00000  Uiso   1.00
H919   H     0.29536   0.00872   0.59084   0.00000  Uiso   1.00
H920   H     0.28089   0.00795   0.64658   0.00000  Uiso   1.00
H921   H     0.16044   0.08454   0.53415   0.00000  Uiso   1.00
H922   H     0.14880   0.30386   0.62824   0.00000  Uiso   1.00
H923   H     0.11868   0.25339   0.61143   0.00000  Uiso   1.00
H924   H     0.16634   0.31255   0.54746   0.00000  Uiso   1.00
H925   H     0.12699   0.26958   0.53443   0.00000  Uiso   1.00
H926   H     0.07524   0.31827   0.56673   0.00000  Uiso   1.00
N927   N     0.16667   0.28402   0.75000   0.00000  Uiso   1.00
N928   N     0.16667   0.04931   0.75000   0.00000  Uiso   1.00
O929   O     0.10655   0.20625   0.75000   0.00000  Uiso   1.00
O930   O     0.16001   0.07806   0.88243   0.00000  Uiso   1.00
O931   O     0.15070   0.24870   0.89001   0.00000  Uiso   1.00
O932   O     0.17330   0.07806   0.61756   0.00000  Uiso   1.00
O933   O     0.22679   0.12709   0.75001   0.00000  Uiso   1.00
O934   O     0.22679   0.20625   0.75001   0.00000  Uiso   1.00
O935   O     0.10655   0.12709   0.75000   0.00000  Uiso   1.00
O936   O     0.16666   0.20626   0.68573   0.00000  Uiso   1.00
O937   O     0.16667   0.12707   0.81427   0.00000  Uiso   1.00
O938   O     0.16667   0.20626   0.81427   0.00000  Uiso   1.00
O939   O     0.16666   0.12707   0.68573   0.00000  Uiso   1.00
O940   O     0.18265   0.24870   0.60999   0.00000  Uiso   1.00
C941   C     0.42097   0.16657   0.75327   0.00000  Uiso   1.00
C942   C     0.64566   0.20859   0.74466   0.00000  Uiso   1.00
C943   C     0.64547   0.12337   0.74571   0.00000  Uiso   1.00
C944   C     0.35434   0.20859   0.75535   0.00000  Uiso   1.00
C945   C     0.51351   0.20042   0.54643   0.00000  Uiso   1.00
C946   C     0.50047   0.11820   0.95065   0.00000  Uiso   1.00
C947   C     0.48652   0.20043   0.95357   0.00000  Uiso   1.00
C948   C     0.49954   0.11819   0.54935   0.00000  Uiso   1.00
C949   C     0.51031   0.20489   0.59138   0.00000  Uiso   1.00
C950   C     0.49550   0.12009   0.90495   0.00000  Uiso   1.00
C951   C     0.48972   0.20490   0.90862   0.00000  Uiso   1.00
C952   C     0.57903   0.16657   0.74673   0.00000  Uiso   1.00
C953   C     0.50451   0.12009   0.59505   0.00000  Uiso   1.00
C954   C     0.50534   0.16424   0.61683   0.00000  Uiso   1.00
C955   C     0.49467   0.16425   0.88318   0.00000  Uiso   1.00
C956   C     0.50317   0.15871   0.52435   0.00000  Uiso   1.00
C957   C     0.49686   0.15871   0.97566   0.00000  Uiso   1.00
C958   C     0.62371   0.16614   0.74403   0.00000  Uiso   1.00
C959   C     0.37628   0.16614   0.75596   0.00000  Uiso   1.00
C960   C     0.47909   0.27481   0.60420   0.00000  Uiso   1.00
C961   C     0.47123   0.29677   0.55833   0.00000  Uiso   1.00
C962   C     0.43780   0.00065   0.55775   0.00000  Uiso   1.00
C963   C     0.50172   0.16640   0.66500   0.00000  Uiso   1.00
C964   C     0.45212   0.06868   0.86710   0.00000  Uiso   1.00
C965   C     0.43041   0.03997   0.90063   0.00000  Uiso   1.00
C966   C     0.38628   0.02913   0.88400   0.00000  Uiso   1.00
C967   C     0.52091   0.27483   0.89581   0.00000  Uiso   1.00
C968   C     0.52871   0.29686   0.94166   0.00000  Uiso   1.00
C969   C     0.56216   0.00073   0.94225   0.00000  Uiso   1.00
C970   C     0.54784   0.06864   0.63290   0.00000  Uiso   1.00
C971   C     0.56960   0.04006   0.59930   0.00000  Uiso   1.00
C972   C     0.61368   0.02906   0.61603   0.00000  Uiso   1.00
C973   C     0.49828   0.16640   0.83500   0.00000  Uiso   1.00
C974   C     0.47276   0.02482   0.72250   0.00000  Uiso   1.00
C975   C     0.52832   0.30873   0.77620   0.00000  Uiso   1.00
C976   C     0.52724   0.02482   0.77750   0.00000  Uiso   1.00
C977   C     0.47168   0.30873   0.72380   0.00000  Uiso   1.00
C978   C     0.35452   0.12336   0.75426   0.00000  Uiso   1.00
Cl979  Cl    0.43879   0.05432   0.68435   0.00000  Uiso   1.00
Cl980  Cl    0.56749   0.27992   0.80828   0.00000  Uiso   1.00
Cl981  Cl    0.56122   0.05433   0.81565   0.00000  Uiso   1.00
Cl982  Cl    0.43251   0.27991   0.69173   0.00000  Uiso   1.00
Cl983  Cl    0.37823   0.06886   0.76767   0.00000  Uiso   1.00
Cl984  Cl    0.62306   0.26197   0.72590   0.00000  Uiso   1.00
Cl985  Cl    0.62176   0.06887   0.73229   0.00000  Uiso   1.00
Cl986  Cl    0.37695   0.26196   0.77412   0.00000  Uiso   1.00
Cu987  Cu    0.50000   0.21355   0.75000   0.00000  Uiso   1.00
Cu988  Cu    0.50000   0.11978   0.75000   0.00000  Uiso   1.00
H989   H     0.52256   0.23079   0.52869   0.00000  Uiso   1.00
H990   H     0.43295   0.01583   0.52429   0.00000  Uiso   1.00
H991   H     0.44665   0.02912   0.58119   0.00000  Uiso   1.00
H992   H     0.45273   0.04776   0.83653   0.00000  Uiso   1.00
H993   H     0.43407   0.10083   0.85805   0.00000  Uiso   1.00
H994   H     0.44691   0.00654   0.90674   0.00000  Uiso   1.00
H995   H     0.43035   0.05945   0.93206   0.00000  Uiso   1.00
H996   H     0.36879   0.06199   0.87753   0.00000  Uiso   1.00
H997   H     0.37129   0.00870   0.90915   0.00000  Uiso   1.00
H998   H     0.38561   0.00818   0.85336   0.00000  Uiso   1.00
H999   H     0.51787   0.30385   0.87174   0.00000  Uiso   1.00
H1000  H     0.50623   0.08454   0.96584   0.00000  Uiso   1.00
H1001  H     0.54801   0.25343   0.88863   0.00000  Uiso   1.00
H1002  H     0.50025   0.31268   0.95246   0.00000  Uiso   1.00
H1003  H     0.53957   0.26971   0.96561   0.00000  Uiso   1.00
H1004  H     0.59142   0.31831   0.93345   0.00000  Uiso   1.00
H1005  H     0.56690   0.01604   0.97566   0.00000  Uiso   1.00
H1006  H     0.55340   0.02911   0.91869   0.00000  Uiso   1.00
H1007  H     0.54721   0.04762   0.66341   0.00000  Uiso   1.00
H1008  H     0.56588   0.10078   0.64207   0.00000  Uiso   1.00
H1009  H     0.55305   0.00668   0.59299   0.00000  Uiso   1.00
H1010  H     0.56978   0.05971   0.56798   0.00000  Uiso   1.00
H1011  H     0.47747   0.23080   0.97132   0.00000  Uiso   1.00
H1012  H     0.63121   0.06186   0.62271   0.00000  Uiso   1.00
H1013  H     0.62870   0.00872   0.59084   0.00000  Uiso   1.00
H1014  H     0.61422   0.00795   0.64658   0.00000  Uiso   1.00
H1015  H     0.49377   0.08454   0.53415   0.00000  Uiso   1.00
H1016  H     0.48214   0.30386   0.62824   0.00000  Uiso   1.00
H1017  H     0.45201   0.25339   0.61143   0.00000  Uiso   1.00
H1018  H     0.49968   0.31255   0.54746   0.00000  Uiso   1.00
H1019  H     0.46033   0.26958   0.53443   0.00000  Uiso   1.00
H1020  H     0.40857   0.31827   0.56673   0.00000  Uiso   1.00
N1021  N     0.50000   0.28402   0.75000   0.00000  Uiso   1.00
N1022  N     0.50000   0.04931   0.75000   0.00000  Uiso   1.00
O1023  O     0.43988   0.20625   0.75000   0.00000  Uiso   1.00
O1024  O     0.49334   0.07806   0.88243   0.00000  Uiso   1.00
O1025  O     0.48403   0.24870   0.89001   0.00000  Uiso   1.00
O1026  O     0.50663   0.07806   0.61756   0.00000  Uiso   1.00
O1027  O     0.56012   0.12709   0.75001   0.00000  Uiso   1.00
O1028  O     0.56012   0.20625   0.75001   0.00000  Uiso   1.00
O1029  O     0.43988   0.12709   0.75000   0.00000  Uiso   1.00
O1030  O     0.50000   0.20626   0.68573   0.00000  Uiso   1.00
O1031  O     0.50000   0.12707   0.81427   0.00000  Uiso   1.00
O1032  O     0.50000   0.20626   0.81427   0.00000  Uiso   1.00
O1033  O     0.50000   0.12707   0.68573   0.00000  Uiso   1.00
O1034  O     0.51598   0.24870   0.60999   0.00000  Uiso   1.00
C1035  C     0.75430   0.16657   0.75327   0.00000  Uiso   1.00
C1036  C     0.97900   0.20859   0.74466   0.00000  Uiso   1.00
C1037  C     0.97881   0.12337   0.74571   0.00000  Uiso   1.00
C1038  C     0.68767   0.20859   0.75535   0.00000  Uiso   1.00
C1039  C     0.84685   0.20042   0.54643   0.00000  Uiso   1.00
C1040  C     0.83381   0.11820   0.95065   0.00000  Uiso   1.00
C1041  C     0.81986   0.20043   0.95357   0.00000  Uiso   1.00
C1042  C     0.83287   0.11819   0.54935   0.00000  Uiso   1.00
C1043  C     0.84364   0.20489   0.59138   0.00000  Uiso   1.00
C1044  C     0.82883   0.12009   0.90495   0.00000  Uiso   1.00
C1045  C     0.82305   0.20490   0.90862   0.00000  Uiso   1.00
C1046  C     0.91236   0.16657   0.74673   0.00000  Uiso   1.00
C1047  C     0.83784   0.12009   0.59505   0.00000  Uiso   1.00
C1048  C     0.83867   0.16424   0.61683   0.00000  Uiso   1.00
C1049  C     0.82800   0.16425   0.88318   0.00000  Uiso   1.00
C1050  C     0.83650   0.15871   0.52435   0.00000  Uiso   1.00
C1051  C     0.83019   0.15871   0.97566   0.00000  Uiso   1.00
C1052  C     0.95705   0.16614   0.74403   0.00000  Uiso   1.00
C1053  C     0.70962   0.16614   0.75596   0.00000  Uiso   1.00
C1054  C     0.81243   0.27481   0.60420   0.00000  Uiso   1.00
C1055  C     0.80456   0.29677   0.55833   0.00000  Uiso   1.00
C1056  C     0.77113   0.00065   0.55775   0.00000  Uiso   1.00
C1057  C     0.83506   0.16640   0.66500   0.00000  Uiso   1.00
C1058  C     0.78546   0.06868   0.86710   0.00000  Uiso   1.00
C1059  C     0.76374   0.03997   0.90063   0.00000  Uiso   1.00
C1060  C     0.71961   0.02913   0.88400   0.00000  Uiso   1.00
C1061  C     0.85424   0.27483   0.89581   0.00000  Uiso   1.00
C1062  C     0.86204   0.29686   0.94166   0.00000  Uiso   1.00
C1063  C     0.89549   0.00073   0.94225   0.00000  Uiso   1.00
C1064  C     0.88117   0.06864   0.63290   0.00000  Uiso   1.00
C1065  C     0.90293   0.04006   0.59930   0.00000  Uiso   1.00
C1066  C     0.94701   0.02906   0.61603   0.00000  Uiso   1.00
C1067  C     0.83161   0.16640   0.83500   0.00000  Uiso   1.00
C1068  C     0.80609   0.02482   0.72250   0.00000  Uiso   1.00
C1069  C     0.86165   0.30873   0.77620   0.00000  Uiso   1.00
C1070  C     0.86057   0.02482   0.77750   0.00000  Uiso   1.00
C1071  C     0.80502   0.30873   0.72380   0.00000  Uiso   1.00
C1072  C     0.68786   0.12336   0.75426   0.00000  Uiso   1.00
Cl1073 Cl    0.77212   0.05432   0.68435   0.00000  Uiso   1.00
Cl1074 Cl    0.90082   0.27992   0.80828   0.00000  Uiso   1.00
Cl1075 Cl    0.89455   0.05433   0.81565   0.00000  Uiso   1.00
Cl1076 Cl    0.76584   0.27991   0.69173   0.00000  Uiso   1.00
Cl1077 Cl    0.71156   0.06886   0.76767   0.00000  Uiso   1.00
Cl1078 Cl    0.95639   0.26197   0.72590   0.00000  Uiso   1.00
Cl1079 Cl    0.95509   0.06887   0.73229   0.00000  Uiso   1.00
Cl1080 Cl    0.71028   0.26196   0.77412   0.00000  Uiso   1.00
Cu1081 Cu    0.83333   0.21355   0.75000   0.00000  Uiso   1.00
Cu1082 Cu    0.83333   0.11978   0.75000   0.00000  Uiso   1.00
H1083  H     0.85590   0.23079   0.52869   0.00000  Uiso   1.00
H1084  H     0.76628   0.01583   0.52429   0.00000  Uiso   1.00
H1085  H     0.77999   0.02912   0.58119   0.00000  Uiso   1.00
H1086  H     0.78606   0.04776   0.83653   0.00000  Uiso   1.00
H1087  H     0.76740   0.10083   0.85805   0.00000  Uiso   1.00
H1088  H     0.78024   0.00654   0.90674   0.00000  Uiso   1.00
H1089  H     0.76368   0.05945   0.93206   0.00000  Uiso   1.00
H1090  H     0.70213   0.06199   0.87753   0.00000  Uiso   1.00
H1091  H     0.70462   0.00870   0.90915   0.00000  Uiso   1.00
H1092  H     0.71894   0.00818   0.85336   0.00000  Uiso   1.00
H1093  H     0.85120   0.30385   0.87174   0.00000  Uiso   1.00
H1094  H     0.83956   0.08454   0.96584   0.00000  Uiso   1.00
H1095  H     0.88134   0.25343   0.88863   0.00000  Uiso   1.00
H1096  H     0.83358   0.31268   0.95246   0.00000  Uiso   1.00
H1097  H     0.87291   0.26971   0.96561   0.00000  Uiso   1.00
H1098  H     0.92475   0.31831   0.93345   0.00000  Uiso   1.00
H1099  H     0.90023   0.01604   0.97566   0.00000  Uiso   1.00
H1100  H     0.88673   0.02911   0.91869   0.00000  Uiso   1.00
H1101  H     0.88054   0.04762   0.66341   0.00000  Uiso   1.00
H1102  H     0.89921   0.10078   0.64207   0.00000  Uiso   1.00
H1103  H     0.88638   0.00668   0.59299   0.00000  Uiso   1.00
H1104  H     0.90311   0.05971   0.56798   0.00000  Uiso   1.00
H1105  H     0.81080   0.23080   0.97132   0.00000  Uiso   1.00
H1106  H     0.96454   0.06186   0.62271   0.00000  Uiso   1.00
H1107  H     0.96203   0.00872   0.59084   0.00000  Uiso   1.00
H1108  H     0.94756   0.00795   0.64658   0.00000  Uiso   1.00
H1109  H     0.82711   0.08454   0.53415   0.00000  Uiso   1.00
H1110  H     0.81547   0.30386   0.62824   0.00000  Uiso   1.00
H1111  H     0.78535   0.25339   0.61143   0.00000  Uiso   1.00
H1112  H     0.83301   0.31255   0.54746   0.00000  Uiso   1.00
H1113  H     0.79366   0.26958   0.53443   0.00000  Uiso   1.00
H1114  H     0.74190   0.31827   0.56673   0.00000  Uiso   1.00
N1115  N     0.83333   0.28402   0.75000   0.00000  Uiso   1.00
N1116  N     0.83333   0.04931   0.75000   0.00000  Uiso   1.00
O1117  O     0.77321   0.20625   0.75000   0.00000  Uiso   1.00
O1118  O     0.82668   0.07806   0.88243   0.00000  Uiso   1.00
O1119  O     0.81737   0.24870   0.89001   0.00000  Uiso   1.00
O1120  O     0.83997   0.07806   0.61756   0.00000  Uiso   1.00
O1121  O     0.89345   0.12709   0.75001   0.00000  Uiso   1.00
O1122  O     0.89345   0.20625   0.75001   0.00000  Uiso   1.00
O1123  O     0.77321   0.12709   0.75000   0.00000  Uiso   1.00
O1124  O     0.83333   0.20626   0.68573   0.00000  Uiso   1.00
O1125  O     0.83334   0.12707   0.81427   0.00000  Uiso   1.00
O1126  O     0.83334   0.20626   0.81427   0.00000  Uiso   1.00
O1127  O     0.83333   0.12707   0.68573   0.00000  Uiso   1.00
O1128  O     0.84931   0.24870   0.60999   0.00000  Uiso   1.00
C1129  C     0.08763   0.49991   0.75327   0.00000  Uiso   1.00
C1130  C     0.31233   0.54193   0.74466   0.00000  Uiso   1.00
C1131  C     0.31214   0.45670   0.74571   0.00000  Uiso   1.00
C1132  C     0.02101   0.54193   0.75535   0.00000  Uiso   1.00
C1133  C     0.18018   0.53375   0.54643   0.00000  Uiso   1.00
C1134  C     0.16714   0.45153   0.95065   0.00000  Uiso   1.00
C1135  C     0.15319   0.53376   0.95357   0.00000  Uiso   1.00
C1136  C     0.16621   0.45153   0.54935   0.00000  Uiso   1.00
C1137  C     0.17697   0.53823   0.59138   0.00000  Uiso   1.00
C1138  C     0.16217   0.45342   0.90495   0.00000  Uiso   1.00
C1139  C     0.15639   0.53823   0.90862   0.00000  Uiso   1.00
C1140  C     0.24570   0.49991   0.74673   0.00000  Uiso   1.00
C1141  C     0.17117   0.45342   0.59505   0.00000  Uiso   1.00
C1142  C     0.17201   0.49758   0.61683   0.00000  Uiso   1.00
C1143  C     0.16134   0.49758   0.88318   0.00000  Uiso   1.00
C1144  C     0.16983   0.49204   0.52435   0.00000  Uiso   1.00
C1145  C     0.16353   0.49205   0.97566   0.00000  Uiso   1.00
C1146  C     0.29038   0.49947   0.74403   0.00000  Uiso   1.00
C1147  C     0.04295   0.49947   0.75596   0.00000  Uiso   1.00
C1148  C     0.14576   0.60814   0.60420   0.00000  Uiso   1.00
C1149  C     0.13790   0.63010   0.55833   0.00000  Uiso   1.00
C1150  C     0.10446   0.33399   0.55775   0.00000  Uiso   1.00
C1151  C     0.16839   0.49973   0.66500   0.00000  Uiso   1.00
C1152  C     0.11879   0.40201   0.86710   0.00000  Uiso   1.00
C1153  C     0.09708   0.37330   0.90063   0.00000  Uiso   1.00
C1154  C     0.05294   0.36247   0.88400   0.00000  Uiso   1.00
C1155  C     0.18757   0.60817   0.89581   0.00000  Uiso   1.00
C1156  C     0.19538   0.63020   0.94166   0.00000  Uiso   1.00
C1157  C     0.22883   0.33407   0.94225   0.00000  Uiso   1.00
C1158  C     0.21451   0.40198   0.63290   0.00000  Uiso   1.00
C1159  C     0.23626   0.37339   0.59930   0.00000  Uiso   1.00
C1160  C     0.28034   0.36239   0.61603   0.00000  Uiso   1.00
C1161  C     0.16494   0.49973   0.83500   0.00000  Uiso   1.00
C1162  C     0.13943   0.35815   0.72250   0.00000  Uiso   1.00
C1163  C     0.19498   0.64206   0.77620   0.00000  Uiso   1.00
C1164  C     0.19391   0.35816   0.77750   0.00000  Uiso   1.00
C1165  C     0.13835   0.64206   0.72380   0.00000  Uiso   1.00
C1166  C     0.02119   0.45670   0.75426   0.00000  Uiso   1.00
Cl1167 Cl    0.10545   0.38765   0.68435   0.00000  Uiso   1.00
Cl1168 Cl    0.23415   0.61325   0.80828   0.00000  Uiso   1.00
Cl1169 Cl    0.22789   0.38766   0.81565   0.00000  Uiso   1.00
Cl1170 Cl    0.09918   0.61325   0.69173   0.00000  Uiso   1.00
Cl1171 Cl    0.04490   0.40219   0.76767   0.00000  Uiso   1.00
Cl1172 Cl    0.28972   0.59530   0.72590   0.00000  Uiso   1.00
Cl1173 Cl    0.28843   0.40220   0.73229   0.00000  Uiso   1.00
Cl1174 Cl    0.04362   0.59529   0.77412   0.00000  Uiso   1.00
Cu1175 Cu    0.16667   0.54689   0.75000   0.00000  Uiso   1.00
Cu1176 Cu    0.16667   0.45311   0.75000   0.00000  Uiso   1.00
H1177  H     0.18923   0.56413   0.52869   0.00000  Uiso   1.00
H1178  H     0.09961   0.34916   0.52429   0.00000  Uiso   1.00
H1179  H     0.11332   0.36245   0.58119   0.00000  Uiso   1.00
H1180  H     0.11940   0.38109   0.83653   0.00000  Uiso   1.00
H1181  H     0.10074   0.43416   0.85805   0.00000  Uiso   1.00
H1182  H     0.11357   0.33987   0.90674   0.00000  Uiso   1.00
H1183  H     0.09702   0.39278   0.93206   0.00000  Uiso   1.00
H1184  H     0.03546   0.39533   0.87753   0.00000  Uiso   1.00
H1185  H     0.03796   0.34203   0.90915   0.00000  Uiso   1.00
H1186  H     0.05227   0.34152   0.85336   0.00000  Uiso   1.00
H1187  H     0.18454   0.63719   0.87174   0.00000  Uiso   1.00
H1188  H     0.17289   0.41787   0.96584   0.00000  Uiso   1.00
H1189  H     0.21467   0.58676   0.88863   0.00000  Uiso   1.00
H1190  H     0.16692   0.64601   0.95246   0.00000  Uiso   1.00
H1191  H     0.20624   0.60304   0.96561   0.00000  Uiso   1.00
H1192  H     0.25809   0.65164   0.93345   0.00000  Uiso   1.00
H1193  H     0.23357   0.34937   0.97566   0.00000  Uiso   1.00
H1194  H     0.22007   0.36244   0.91869   0.00000  Uiso   1.00
H1195  H     0.21387   0.38095   0.66341   0.00000  Uiso   1.00
H1196  H     0.23255   0.43411   0.64207   0.00000  Uiso   1.00
H1197  H     0.21971   0.34001   0.59299   0.00000  Uiso   1.00
H1198  H     0.23645   0.39304   0.56798   0.00000  Uiso   1.00
H1199  H     0.14414   0.56413   0.97132   0.00000  Uiso   1.00
H1200  H     0.29787   0.39520   0.62271   0.00000  Uiso   1.00
H1201  H     0.29536   0.34205   0.59084   0.00000  Uiso   1.00
H1202  H     0.28089   0.34128   0.64658   0.00000  Uiso   1.00
H1203  H     0.16044   0.41787   0.53415   0.00000  Uiso   1.00
H1204  H     0.14880   0.63719   0.62824   0.00000  Uiso   1.00
H1205  H     0.11868   0.58672   0.61143   0.00000  Uiso   1.00
H1206  H     0.16634   0.64589   0.54746   0.00000  Uiso   1.00
H1207  H     0.12699   0.60291   0.53443   0.00000  Uiso   1.00
H1208  H     0.07524   0.65161   0.56673   0.00000  Uiso   1.00
N1209  N     0.16667   0.61736   0.75000   0.00000  Uiso   1.00
N1210  N     0.16667   0.38264   0.75000   0.00000  Uiso   1.00
O1211  O     0.10655   0.53958   0.75000   0.00000  Uiso   1.00
O1212  O     0.16001   0.41140   0.88243   0.00000  Uiso   1.00
O1213  O     0.15070   0.58204   0.89001   0.00000  Uiso   1.00
O1214  O     0.17330   0.41139   0.61756   0.00000  Uiso   1.00
O1215  O     0.22679   0.46042   0.75001   0.00000  Uiso   1.00
O1216  O     0.22679   0.53958   0.75001   0.00000  Uiso   1.00
O1217  O     0.10655   0.46042   0.75000   0.00000  Uiso   1.00
O1218  O     0.16666   0.53959   0.68573   0.00000  Uiso   1.00
O1219  O     0.16667   0.46041   0.81427   0.00000  Uiso   1.00
O1220  O     0.16667   0.53959   0.81427   0.00000  Uiso   1.00
O1221  O     0.16666   0.46041   0.68573   0.00000  Uiso   1.00
O1222  O     0.18265   0.58203   0.60999   0.00000  Uiso   1.00
C1223  C     0.42097   0.49991   0.75327   0.00000  Uiso   1.00
C1224  C     0.64566   0.54193   0.74466   0.00000  Uiso   1.00
C1225  C     0.64547   0.45670   0.74571   0.00000  Uiso   1.00
C1226  C     0.35434   0.54193   0.75535   0.00000  Uiso   1.00
C1227  C     0.51351   0.53375   0.54643   0.00000  Uiso   1.00
C1228  C     0.50047   0.45153   0.95065   0.00000  Uiso   1.00
C1229  C     0.48652   0.53376   0.95357   0.00000  Uiso   1.00
C1230  C     0.49954   0.45153   0.54935   0.00000  Uiso   1.00
C1231  C     0.51031   0.53823   0.59138   0.00000  Uiso   1.00
C1232  C     0.49550   0.45342   0.90495   0.00000  Uiso   1.00
C1233  C     0.48972   0.53823   0.90862   0.00000  Uiso   1.00
C1234  C     0.57903   0.49991   0.74673   0.00000  Uiso   1.00
C1235  C     0.50451   0.45342   0.59505   0.00000  Uiso   1.00
C1236  C     0.50534   0.49758   0.61683   0.00000  Uiso   1.00
C1237  C     0.49467   0.49758   0.88318   0.00000  Uiso   1.00
C1238  C     0.50317   0.49204   0.52435   0.00000  Uiso   1.00
C1239  C     0.49686   0.49205   0.97566   0.00000  Uiso   1.00
C1240  C     0.62371   0.49947   0.74403   0.00000  Uiso   1.00
C1241  C     0.37628   0.49947   0.75596   0.00000  Uiso   1.00
C1242  C     0.47909   0.60814   0.60420   0.00000  Uiso   1.00
C1243  C     0.47123   0.63010   0.55833   0.00000  Uiso   1.00
C1244  C     0.43780   0.33399   0.55775   0.00000  Uiso   1.00
C1245  C     0.50172   0.49973   0.66500   0.00000  Uiso   1.00
C1246  C     0.45212   0.40201   0.86710   0.00000  Uiso   1.00
C1247  C     0.43041   0.37330   0.90063   0.00000  Uiso   1.00
C1248  C     0.38628   0.36247   0.88400   0.00000  Uiso   1.00
C1249  C     0.52091   0.60817   0.89581   0.00000  Uiso   1.00
C1250  C     0.52871   0.63020   0.94166   0.00000  Uiso   1.00
C1251  C     0.56216   0.33407   0.94225   0.00000  Uiso   1.00
C1252  C     0.54784   0.40198   0.63290   0.00000  Uiso   1.00
C1253  C     0.56960   0.37339   0.59930   0.00000  Uiso   1.00
C1254  C     0.61368   0.36239   0.61603   0.00000  Uiso   1.00
C1255  C     0.49828   0.49973   0.83500   0.00000  Uiso   1.00
C1256  C     0.47276   0.35815   0.72250   0.00000  Uiso   1.00
C1257  C     0.52832   0.64206   0.77620   0.00000  Uiso   1.00
C1258  C     0.52724   0.35816   0.77750   0.00000  Uiso   1.00
C1259  C     0.47168   0.64206   0.72380   0.00000  Uiso   1.00
C1260  C     0.35452   0.45670   0.75426   0.00000  Uiso   1.00
Cl1261 Cl    0.43879   0.38765   0.68435   0.00000  Uiso   1.00
Cl1262 Cl    0.56749   0.61325   0.80828   0.00000  Uiso   1.00
Cl1263 Cl    0.56122   0.38766   0.81565   0.00000  Uiso   1.00
Cl1264 Cl    0.43251   0.61325   0.69173   0.00000  Uiso   1.00
Cl1265 Cl    0.37823   0.40219   0.76767   0.00000  Uiso   1.00
Cl1266 Cl    0.62306   0.59530   0.72590   0.00000  Uiso   1.00
Cl1267 Cl    0.62176   0.40220   0.73229   0.00000  Uiso   1.00
Cl1268 Cl    0.37695   0.59529   0.77412   0.00000  Uiso   1.00
Cu1269 Cu    0.50000   0.54689   0.75000   0.00000  Uiso   1.00
Cu1270 Cu    0.50000   0.45311   0.75000   0.00000  Uiso   1.00
H1271  H     0.52256   0.56413   0.52869   0.00000  Uiso   1.00
H1272  H     0.43295   0.34916   0.52429   0.00000  Uiso   1.00
H1273  H     0.44665   0.36245   0.58119   0.00000  Uiso   1.00
H1274  H     0.45273   0.38109   0.83653   0.00000  Uiso   1.00
H1275  H     0.43407   0.43416   0.85805   0.00000  Uiso   1.00
H1276  H     0.44691   0.33987   0.90674   0.00000  Uiso   1.00
H1277  H     0.43035   0.39278   0.93206   0.00000  Uiso   1.00
H1278  H     0.36879   0.39533   0.87753   0.00000  Uiso   1.00
H1279  H     0.37129   0.34203   0.90915   0.00000  Uiso   1.00
H1280  H     0.38561   0.34152   0.85336   0.00000  Uiso   1.00
H1281  H     0.51787   0.63719   0.87174   0.00000  Uiso   1.00
H1282  H     0.50623   0.41787   0.96584   0.00000  Uiso   1.00
H1283  H     0.54801   0.58676   0.88863   0.00000  Uiso   1.00
H1284  H     0.50025   0.64601   0.95246   0.00000  Uiso   1.00
H1285  H     0.53957   0.60304   0.96561   0.00000  Uiso   1.00
H1286  H     0.59142   0.65164   0.93345   0.00000  Uiso   1.00
H1287  H     0.56690   0.34937   0.97566   0.00000  Uiso   1.00
H1288  H     0.55340   0.36244   0.91869   0.00000  Uiso   1.00
H1289  H     0.54721   0.38095   0.66341   0.00000  Uiso   1.00
H1290  H     0.56588   0.43411   0.64207   0.00000  Uiso   1.00
H1291  H     0.55305   0.34001   0.59299   0.00000  Uiso   1.00
H1292  H     0.56978   0.39304   0.56798   0.00000  Uiso   1.00
H1293  H     0.47747   0.56413   0.97132   0.00000  Uiso   1.00
H1294  H     0.63121   0.39520   0.62271   0.00000  Uiso   1.00
H1295  H     0.62870   0.34205   0.59084   0.00000  Uiso   1.00
H1296  H     0.61422   0.34128   0.64658   0.00000  Uiso   1.00
H1297  H     0.49377   0.41787   0.53415   0.00000  Uiso   1.00
H1298  H     0.48214   0.63719   0.62824   0.00000  Uiso   1.00
H1299  H     0.45201   0.58672   0.61143   0.00000  Uiso   1.00
H1300  H     0.49968   0.64589   0.54746   0.00000  Uiso   1.00
H1301  H     0.46033   0.60291   0.53443   0.00000  Uiso   1.00
H1302  H     0.40857   0.65161   0.56673   0.00000  Uiso   1.00
N1303  N     0.50000   0.61736   0.75000   0.00000  Uiso   1.00
N1304  N     0.50000   0.38264   0.75000   0.00000  Uiso   1.00
O1305  O     0.43988   0.53958   0.75000   0.00000  Uiso   1.00
O1306  O     0.49334   0.41140   0.88243   0.00000  Uiso   1.00
O1307  O     0.48403   0.58204   0.89001   0.00000  Uiso   1.00
O1308  O     0.50663   0.41139   0.61756   0.00000  Uiso   1.00
O1309  O     0.56012   0.46042   0.75001   0.00000  Uiso   1.00
O1310  O     0.56012   0.53958   0.75001   0.00000  Uiso   1.00
O1311  O     0.43988   0.46042   0.75000   0.00000  Uiso   1.00
O1312  O     0.50000   0.53959   0.68573   0.00000  Uiso   1.00
O1313  O     0.50000   0.46041   0.81427   0.00000  Uiso   1.00
O1314  O     0.50000   0.53959   0.81427   0.00000  Uiso   1.00
O1315  O     0.50000   0.46041   0.68573   0.00000  Uiso   1.00
O1316  O     0.51598   0.58203   0.60999   0.00000  Uiso   1.00
C1317  C     0.75430   0.49991   0.75327   0.00000  Uiso   1.00
C1318  C     0.97900   0.54193   0.74466   0.00000  Uiso   1.00
C1319  C     0.97881   0.45670   0.74571   0.00000  Uiso   1.00
C1320  C     0.68767   0.54193   0.75535   0.00000  Uiso   1.00
C1321  C     0.84685   0.53375   0.54643   0.00000  Uiso   1.00
C1322  C     0.83381   0.45153   0.95065   0.00000  Uiso   1.00
C1323  C     0.81986   0.53376   0.95357   0.00000  Uiso   1.00
C1324  C     0.83287   0.45153   0.54935   0.00000  Uiso   1.00
C1325  C     0.84364   0.53823   0.59138   0.00000  Uiso   1.00
C1326  C     0.82883   0.45342   0.90495   0.00000  Uiso   1.00
C1327  C     0.82305   0.53823   0.90862   0.00000  Uiso   1.00
C1328  C     0.91236   0.49991   0.74673   0.00000  Uiso   1.00
C1329  C     0.83784   0.45342   0.59505   0.00000  Uiso   1.00
C1330  C     0.83867   0.49758   0.61683   0.00000  Uiso   1.00
C1331  C     0.82800   0.49758   0.88318   0.00000  Uiso   1.00
C1332  C     0.83650   0.49204   0.52435   0.00000  Uiso   1.00
C1333  C     0.83019   0.49205   0.97566   0.00000  Uiso   1.00
C1334  C     0.95705   0.49947   0.74403   0.00000  Uiso   1.00
C1335  C     0.70962   0.49947   0.75596   0.00000  Uiso   1.00
C1336  C     0.81243   0.60814   0.60420   0.00000  Uiso   1.00
C1337  C     0.80456   0.63010   0.55833   0.00000  Uiso   1.00
C1338  C     0.77113   0.33399   0.55775   0.00000  Uiso   1.00
C1339  C     0.83506   0.49973   0.66500   0.00000  Uiso   1.00
C1340  C     0.78546   0.40201   0.86710   0.00000  Uiso   1.00
C1341  C     0.76374   0.37330   0.90063   0.00000  Uiso   1.00
C1342  C     0.71961   0.36247   0.88400   0.00000  Uiso   1.00
C1343  C     0.85424   0.60817   0.89581   0.00000  Uiso   1.00
C1344  C     0.86204   0.63020   0.94166   0.00000  Uiso   1.00
C1345  C     0.89549   0.33407   0.94225   0.00000  Uiso   1.00
C1346  C     0.88117   0.40198   0.63290   0.00000  Uiso   1.00
C1347  C     0.90293   0.37339   0.59930   0.00000  Uiso   1.00
C1348  C     0.94701   0.36239   0.61603   0.00000  Uiso   1.00
C1349  C     0.83161   0.49973   0.83500   0.00000  Uiso   1.00
C1350  C     0.80609   0.35815   0.72250   0.00000  Uiso   1.00
C1351  C     0.86165   0.64206   0.77620   0.00000  Uiso   1.00
C1352  C     0.86057   0.35816   0.77750   0.00000  Uiso   1.00
C1353  C     0.80502   0.64206   0.72380   0.00000  Uiso   1.00
C1354  C     0.68786   0.45670   0.75426   0.00000  Uiso   1.00
Cl1355 Cl    0.77212   0.38765   0.68435   0.00000  Uiso   1.00
Cl1356 Cl    0.90082   0.61325   0.80828   0.00000  Uiso   1.00
Cl1357 Cl    0.89455   0.38766   0.81565   0.00000  Uiso   1.00
Cl1358 Cl    0.76584   0.61325   0.69173   0.00000  Uiso   1.00
Cl1359 Cl    0.71156   0.40219   0.76767   0.00000  Uiso   1.00
Cl1360 Cl    0.95639   0.59530   0.72590   0.00000  Uiso   1.00
Cl1361 Cl    0.95509   0.40220   0.73229   0.00000  Uiso   1.00
Cl1362 Cl    0.71028   0.59529   0.77412   0.00000  Uiso   1.00
Cu1363 Cu    0.83333   0.54689   0.75000   0.00000  Uiso   1.00
Cu1364 Cu    0.83333   0.45311   0.75000   0.00000  Uiso   1.00
H1365  H     0.85590   0.56413   0.52869   0.00000  Uiso   1.00
H1366  H     0.76628   0.34916   0.52429   0.00000  Uiso   1.00
H1367  H     0.77999   0.36245   0.58119   0.00000  Uiso   1.00
H1368  H     0.78606   0.38109   0.83653   0.00000  Uiso   1.00
H1369  H     0.76740   0.43416   0.85805   0.00000  Uiso   1.00
H1370  H     0.78024   0.33987   0.90674   0.00000  Uiso   1.00
H1371  H     0.76368   0.39278   0.93206   0.00000  Uiso   1.00
H1372  H     0.70213   0.39533   0.87753   0.00000  Uiso   1.00
H1373  H     0.70462   0.34203   0.90915   0.00000  Uiso   1.00
H1374  H     0.71894   0.34152   0.85336   0.00000  Uiso   1.00
H1375  H     0.85120   0.63719   0.87174   0.00000  Uiso   1.00
H1376  H     0.83956   0.41787   0.96584   0.00000  Uiso   1.00
H1377  H     0.88134   0.58676   0.88863   0.00000  Uiso   1.00
H1378  H     0.83358   0.64601   0.95246   0.00000  Uiso   1.00
H1379  H     0.87291   0.60304   0.96561   0.00000  Uiso   1.00
H1380  H     0.92475   0.65164   0.93345   0.00000  Uiso   1.00
H1381  H     0.90023   0.34937   0.97566   0.00000  Uiso   1.00
H1382  H     0.88673   0.36244   0.91869   0.00000  Uiso   1.00
H1383  H     0.88054   0.38095   0.66341   0.00000  Uiso   1.00
H1384  H     0.89921   0.43411   0.64207   0.00000  Uiso   1.00
H1385  H     0.88638   0.34001   0.59299   0.00000  Uiso   1.00
H1386  H     0.90311   0.39304   0.56798   0.00000  Uiso   1.00
H1387  H     0.81080   0.56413   0.97132   0.00000  Uiso   1.00
H1388  H     0.96454   0.39520   0.62271   0.00000  Uiso   1.00
H1389  H     0.96203   0.34205   0.59084   0.00000  Uiso   1.00
H1390  H     0.94756   0.34128   0.64658   0.00000  Uiso   1.00
H1391  H     0.82711   0.41787   0.53415   0.00000  Uiso   1.00
H1392  H     0.81547   0.63719   0.62824   0.00000  Uiso   1.00
H1393  H     0.78535   0.58672   0.61143   0.00000  Uiso   1.00
H1394  H     0.83301   0.64589   0.54746   0.00000  Uiso   1.00
H1395  H     0.79366   0.60291   0.53443   0.00000  Uiso   1.00
H1396  H     0.74190   0.65161   0.56673   0.00000  Uiso   1.00
N1397  N     0.83333   0.61736   0.75000   0.00000  Uiso   1.00
N1398  N     0.83333   0.38264   0.75000   0.00000  Uiso   1.00
O1399  O     0.77321   0.53958   0.75000   0.00000  Uiso   1.00
O1400  O     0.82668   0.41140   0.88243   0.00000  Uiso   1.00
O1401  O     0.81737   0.58204   0.89001   0.00000  Uiso   1.00
O1402  O     0.83997   0.41139   0.61756   0.00000  Uiso   1.00
O1403  O     0.89345   0.46042   0.75001   0.00000  Uiso   1.00
O1404  O     0.89345   0.53958   0.75001   0.00000  Uiso   1.00
O1405  O     0.77321   0.46042   0.75000   0.00000  Uiso   1.00
O1406  O     0.83333   0.53959   0.68573   0.00000  Uiso   1.00
O1407  O     0.83334   0.46041   0.81427   0.00000  Uiso   1.00
O1408  O     0.83334   0.53959   0.81427   0.00000  Uiso   1.00
O1409  O     0.83333   0.46041   0.68573   0.00000  Uiso   1.00
O1410  O     0.84931   0.58203   0.60999   0.00000  Uiso   1.00
C1411  C     0.08763   0.83324   0.75327   0.00000  Uiso   1.00
C1412  C     0.31233   0.87526   0.74466   0.00000  Uiso   1.00
C1413  C     0.31214   0.79003   0.74571   0.00000  Uiso   1.00
C1414  C     0.02101   0.87526   0.75535   0.00000  Uiso   1.00
C1415  C     0.18018   0.86709   0.54643   0.00000  Uiso   1.00
C1416  C     0.16714   0.78486   0.95065   0.00000  Uiso   1.00
C1417  C     0.15319   0.86709   0.95357   0.00000  Uiso   1.00
C1418  C     0.16621   0.78486   0.54935   0.00000  Uiso   1.00
C1419  C     0.17697   0.87156   0.59138   0.00000  Uiso   1.00
C1420  C     0.16217   0.78676   0.90495   0.00000  Uiso   1.00
C1421  C     0.15639   0.87157   0.90862   0.00000  Uiso   1.00
C1422  C     0.24570   0.83324   0.74673   0.00000  Uiso   1.00
C1423  C     0.17117   0.78675   0.59505   0.00000  Uiso   1.00
C1424  C     0.17201   0.83091   0.61683   0.00000  Uiso   1.00
C1425  C     0.16134   0.83091   0.88318   0.00000  Uiso   1.00
C1426  C     0.16983   0.82538   0.52435   0.00000  Uiso   1.00
C1427  C     0.16353   0.82538   0.97566   0.00000  Uiso   1.00
C1428  C     0.29038   0.83281   0.74403   0.00000  Uiso   1.00
C1429  C     0.04295   0.83280   0.75596   0.00000  Uiso   1.00
C1430  C     0.14576   0.94147   0.60420   0.00000  Uiso   1.00
C1431  C     0.13790   0.96343   0.55833   0.00000  Uiso   1.00
C1432  C     0.10446   0.66732   0.55775   0.00000  Uiso   1.00
C1433  C     0.16839   0.83306   0.66500   0.00000  Uiso   1.00
C1434  C     0.11879   0.73535   0.86710   0.00000  Uiso   1.00
C1435  C     0.09708   0.70663   0.90063   0.00000  Uiso   1.00
C1436  C     0.05294   0.69580   0.88400   0.00000  Uiso   1.00
C1437  C     0.18757   0.94150   0.89581   0.00000  Uiso   1.00
C1438  C     0.19538   0.96353   0.94166   0.00000  Uiso   1.00
C1439  C     0.22883   0.66740   0.94225   0.00000  Uiso   1.00
C1440  C     0.21451   0.73531   0.63290   0.00000  Uiso   1.00
C1441  C     0.23626   0.70673   0.59930   0.00000  Uiso   1.00
C1442  C     0.28034   0.69573   0.61603   0.00000  Uiso   1.00
C1443  C     0.16494   0.83306   0.83500   0.00000  Uiso   1.00
C1444  C     0.13943   0.69149   0.72250   0.00000  Uiso   1.00
C1445  C     0.19498   0.97540   0.77620   0.00000  Uiso   1.00
C1446  C     0.19391   0.69149   0.77750   0.00000  Uiso   1.00
C1447  C     0.13835   0.97540   0.72380   0.00000  Uiso   1.00
C1448  C     0.02119   0.79003   0.75426   0.00000  Uiso   1.00
Cl1449 Cl    0.10545   0.72099   0.68435   0.00000  Uiso   1.00
Cl1450 Cl    0.23415   0.94658   0.80828   0.00000  Uiso   1.00
Cl1451 Cl    0.22789   0.72099   0.81565   0.00000  Uiso   1.00
Cl1452 Cl    0.09918   0.94658   0.69173   0.00000  Uiso   1.00
Cl1453 Cl    0.04490   0.73553   0.76767   0.00000  Uiso   1.00
Cl1454 Cl    0.28972   0.92863   0.72590   0.00000  Uiso   1.00
Cl1455 Cl    0.28843   0.73553   0.73229   0.00000  Uiso   1.00
Cl1456 Cl    0.04362   0.92863   0.77412   0.00000  Uiso   1.00
Cu1457 Cu    0.16667   0.88022   0.75000   0.00000  Uiso   1.00
Cu1458 Cu    0.16667   0.78645   0.75000   0.00000  Uiso   1.00
H1459  H     0.18923   0.89746   0.52869   0.00000  Uiso   1.00
H1460  H     0.09961   0.68250   0.52429   0.00000  Uiso   1.00
H1461  H     0.11332   0.69578   0.58119   0.00000  Uiso   1.00
H1462  H     0.11940   0.71443   0.83653   0.00000  Uiso   1.00
H1463  H     0.10074   0.76750   0.85805   0.00000  Uiso   1.00
H1464  H     0.11357   0.67320   0.90674   0.00000  Uiso   1.00
H1465  H     0.09702   0.72612   0.93206   0.00000  Uiso   1.00
H1466  H     0.03546   0.72866   0.87753   0.00000  Uiso   1.00
H1467  H     0.03796   0.67536   0.90915   0.00000  Uiso   1.00
H1468  H     0.05227   0.67485   0.85336   0.00000  Uiso   1.00
H1469  H     0.18454   0.97052   0.87174   0.00000  Uiso   1.00
H1470  H     0.17289   0.75120   0.96584   0.00000  Uiso   1.00
H1471  H     0.21467   0.92009   0.88863   0.00000  Uiso   1.00
H1472  H     0.16692   0.97934   0.95246   0.00000  Uiso   1.00
H1473  H     0.20624   0.93638   0.96561   0.00000  Uiso   1.00
H1474  H     0.25809   0.98497   0.93345   0.00000  Uiso   1.00
H1475  H     0.23357   0.68271   0.97566   0.00000  Uiso   1.00
H1476  H     0.22007   0.69577   0.91869   0.00000  Uiso   1.00
H1477  H     0.21387   0.71429   0.66341   0.00000  Uiso   1.00
H1478  H     0.23255   0.76745   0.64207   0.00000  Uiso   1.00
H1479  H     0.21971   0.67335   0.59299   0.00000  Uiso   1.00
H1480  H     0.23645   0.72638   0.56798   0.00000  Uiso   1.00
H1481  H     0.14414   0.89746   0.97132   0.00000  Uiso   1.00
H1482  H     0.29787   0.72853   0.62271   0.00000  Uiso   1.00
H1483  H     0.29536   0.67539   0.59084   0.00000  Uiso   1.00
H1484  H     0.28089   0.67461   0.64658   0.00000  Uiso   1.00
H1485  H     0.16044   0.75120   0.53415   0.00000  Uiso   1.00
H1486  H     0.14880   0.97053   0.62824   0.00000  Uiso   1.00
H1487  H     0.11868   0.92006   0.61143   0.00000  Uiso   1.00
H1488  H     0.16634   0.97922   0.54746   0.00000  Uiso   1.00
H1489  H     0.12699   0.93624   0.53443   0.00000  Uiso   1.00
H1490  H     0.07524   0.98494   0.56673   0.00000  Uiso   1.00
N1491  N     0.16667   0.95069   0.75000   0.00000  Uiso   1.00
N1492  N     0.16667   0.71598   0.75000   0.00000  Uiso   1.00
O1493  O     0.10655   0.87291   0.75000   0.00000  Uiso   1.00
O1494  O     0.16001   0.74473   0.88243   0.00000  Uiso   1.00
O1495  O     0.15070   0.91537   0.89001   0.00000  Uiso   1.00
O1496  O     0.17330   0.74473   0.61756   0.00000  Uiso   1.00
O1497  O     0.22679   0.79375   0.75001   0.00000  Uiso   1.00
O1498  O     0.22679   0.87291   0.75001   0.00000  Uiso   1.00
O1499  O     0.10655   0.79375   0.75000   0.00000  Uiso   1.00
O1500  O     0.16666   0.87293   0.68573   0.00000  Uiso   1.00
O1501  O     0.16667   0.79374   0.81427   0.00000  Uiso   1.00
O1502  O     0.16667   0.87293   0.81427   0.00000  Uiso   1.00
O1503  O     0.16666   0.79374   0.68573   0.00000  Uiso   1.00
O1504  O     0.18265   0.91537   0.60999   0.00000  Uiso   1.00
C1505  C     0.42097   0.83324   0.75327   0.00000  Uiso   1.00
C1506  C     0.64566   0.87526   0.74466   0.00000  Uiso   1.00
C1507  C     0.64547   0.79003   0.74571   0.00000  Uiso   1.00
C1508  C     0.35434   0.87526   0.75535   0.00000  Uiso   1.00
C1509  C     0.51351   0.86709   0.54643   0.00000  Uiso   1.00
C1510  C     0.50047   0.78486   0.95065   0.00000  Uiso   1.00
C1511  C     0.48652   0.86709   0.95357   0.00000  Uiso   1.00
C1512  C     0.49954   0.78486   0.54935   0.00000  Uiso   1.00
C1513  C     0.51031   0.87156   0.59138   0.00000  Uiso   1.00
C1514  C     0.49550   0.78676   0.90495   0.00000  Uiso   1.00
C1515  C     0.48972   0.87157   0.90862   0.00000  Uiso   1.00
C1516  C     0.57903   0.83324   0.74673   0.00000  Uiso   1.00
C1517  C     0.50451   0.78675   0.59505   0.00000  Uiso   1.00
C1518  C     0.50534   0.83091   0.61683   0.00000  Uiso   1.00
C1519  C     0.49467   0.83091   0.88318   0.00000  Uiso   1.00
C1520  C     0.50317   0.82538   0.52435   0.00000  Uiso   1.00
C1521  C     0.49686   0.82538   0.97566   0.00000  Uiso   1.00
C1522  C     0.62371   0.83281   0.74403   0.00000  Uiso   1.00
C1523  C     0.37628   0.83280   0.75596   0.00000  Uiso   1.00
C1524  C     0.47909   0.94147   0.60420   0.00000  Uiso   1.00
C1525  C     0.47123   0.96343   0.55833   0.00000  Uiso   1.00
C1526  C     0.43780   0.66732   0.55775   0.00000  Uiso   1.00
C1527  C     0.50172   0.83306   0.66500   0.00000  Uiso   1.00
C1528  C     0.45212   0.73535   0.86710   0.00000  Uiso   1.00
C1529  C     0.43041   0.70663   0.90063   0.00000  Uiso   1.00
C1530  C     0.38628   0.69580   0.88400   0.00000  Uiso   1.00
C1531  C     0.52091   0.94150   0.89581   0.00000  Uiso   1.00
C1532  C     0.52871   0.96353   0.94166   0.00000  Uiso   1.00
C1533  C     0.56216   0.66740   0.94225   0.00000  Uiso   1.00
C1534  C     0.54784   0.73531   0.63290   0.00000  Uiso   1.00
C1535  C     0.56960   0.70673   0.59930   0.00000  Uiso   1.00
C1536  C     0.61368   0.69573   0.61603   0.00000  Uiso   1.00
C1537  C     0.49828   0.83306   0.83500   0.00000  Uiso   1.00
C1538  C     0.47276   0.69149   0.72250   0.00000  Uiso   1.00
C1539  C     0.52832   0.97540   0.77620   0.00000  Uiso   1.00
C1540  C     0.52724   0.69149   0.77750   0.00000  Uiso   1.00
C1541  C     0.47168   0.97540   0.72380   0.00000  Uiso   1.00
C1542  C     0.35452   0.79003   0.75426   0.00000  Uiso   1.00
Cl1543 Cl    0.43879   0.72099   0.68435   0.00000  Uiso   1.00
Cl1544 Cl    0.56749   0.94658   0.80828   0.00000  Uiso   1.00
Cl1545 Cl    0.56122   0.72099   0.81565   0.00000  Uiso   1.00
Cl1546 Cl    0.43251   0.94658   0.69173   0.00000  Uiso   1.00
Cl1547 Cl    0.37823   0.73553   0.76767   0.00000  Uiso   1.00
Cl1548 Cl    0.62306   0.92863   0.72590   0.00000  Uiso   1.00
Cl1549 Cl    0.62176   0.73553   0.73229   0.00000  Uiso   1.00
Cl1550 Cl    0.37695   0.92863   0.77412   0.00000  Uiso   1.00
Cu1551 Cu    0.50000   0.88022   0.75000   0.00000  Uiso   1.00
Cu1552 Cu    0.50000   0.78645   0.75000   0.00000  Uiso   1.00
H1553  H     0.52256   0.89746   0.52869   0.00000  Uiso   1.00
H1554  H     0.43295   0.68250   0.52429   0.00000  Uiso   1.00
H1555  H     0.44665   0.69578   0.58119   0.00000  Uiso   1.00
H1556  H     0.45273   0.71443   0.83653   0.00000  Uiso   1.00
H1557  H     0.43407   0.76750   0.85805   0.00000  Uiso   1.00
H1558  H     0.44691   0.67320   0.90674   0.00000  Uiso   1.00
H1559  H     0.43035   0.72612   0.93206   0.00000  Uiso   1.00
H1560  H     0.36879   0.72866   0.87753   0.00000  Uiso   1.00
H1561  H     0.37129   0.67536   0.90915   0.00000  Uiso   1.00
H1562  H     0.38561   0.67485   0.85336   0.00000  Uiso   1.00
H1563  H     0.51787   0.97052   0.87174   0.00000  Uiso   1.00
H1564  H     0.50623   0.75120   0.96584   0.00000  Uiso   1.00
H1565  H     0.54801   0.92009   0.88863   0.00000  Uiso   1.00
H1566  H     0.50025   0.97934   0.95246   0.00000  Uiso   1.00
H1567  H     0.53957   0.93638   0.96561   0.00000  Uiso   1.00
H1568  H     0.59142   0.98497   0.93345   0.00000  Uiso   1.00
H1569  H     0.56690   0.68271   0.97566   0.00000  Uiso   1.00
H1570  H     0.55340   0.69577   0.91869   0.00000  Uiso   1.00
H1571  H     0.54721   0.71429   0.66341   0.00000  Uiso   1.00
H1572  H     0.56588   0.76745   0.64207   0.00000  Uiso   1.00
H1573  H     0.55305   0.67335   0.59299   0.00000  Uiso   1.00
H1574  H     0.56978   0.72638   0.56798   0.00000  Uiso   1.00
H1575  H     0.47747   0.89746   0.97132   0.00000  Uiso   1.00
H1576  H     0.63121   0.72853   0.62271   0.00000  Uiso   1.00
H1577  H     0.62870   0.67539   0.59084   0.00000  Uiso   1.00
H1578  H     0.61422   0.67461   0.64658   0.00000  Uiso   1.00
H1579  H     0.49377   0.75120   0.53415   0.00000  Uiso   1.00
H1580  H     0.48214   0.97053   0.62824   0.00000  Uiso   1.00
H1581  H     0.45201   0.92006   0.61143   0.00000  Uiso   1.00
H1582  H     0.49968   0.97922   0.54746   0.00000  Uiso   1.00
H1583  H     0.46033   0.93624   0.53443   0.00000  Uiso   1.00
H1584  H     0.40857   0.98494   0.56673   0.00000  Uiso   1.00
N1585  N     0.50000   0.95069   0.75000   0.00000  Uiso   1.00
N1586  N     0.50000   0.71598   0.75000   0.00000  Uiso   1.00
O1587  O     0.43988   0.87291   0.75000   0.00000  Uiso   1.00
O1588  O     0.49334   0.74473   0.88243   0.00000  Uiso   1.00
O1589  O     0.48403   0.91537   0.89001   0.00000  Uiso   1.00
O1590  O     0.50663   0.74473   0.61756   0.00000  Uiso   1.00
O1591  O     0.56012   0.79375   0.75001   0.00000  Uiso   1.00
O1592  O     0.56012   0.87291   0.75001   0.00000  Uiso   1.00
O1593  O     0.43988   0.79375   0.75000   0.00000  Uiso   1.00
O1594  O     0.50000   0.87293   0.68573   0.00000  Uiso   1.00
O1595  O     0.50000   0.79374   0.81427   0.00000  Uiso   1.00
O1596  O     0.50000   0.87293   0.81427   0.00000  Uiso   1.00
O1597  O     0.50000   0.79374   0.68573   0.00000  Uiso   1.00
O1598  O     0.51598   0.91537   0.60999   0.00000  Uiso   1.00
C1599  C     0.75430   0.83324   0.75327   0.00000  Uiso   1.00
C1600  C     0.97900   0.87526   0.74466   0.00000  Uiso   1.00
C1601  C     0.97881   0.79003   0.74571   0.00000  Uiso   1.00
C1602  C     0.68767   0.87526   0.75535   0.00000  Uiso   1.00
C1603  C     0.84685   0.86709   0.54643   0.00000  Uiso   1.00
C1604  C     0.83381   0.78486   0.95065   0.00000  Uiso   1.00
C1605  C     0.81986   0.86709   0.95357   0.00000  Uiso   1.00
C1606  C     0.83287   0.78486   0.54935   0.00000  Uiso   1.00
C1607  C     0.84364   0.87156   0.59138   0.00000  Uiso   1.00
C1608  C     0.82883   0.78676   0.90495   0.00000  Uiso   1.00
C1609  C     0.82305   0.87157   0.90862   0.00000  Uiso   1.00
C1610  C     0.91236   0.83324   0.74673   0.00000  Uiso   1.00
C1611  C     0.83784   0.78675   0.59505   0.00000  Uiso   1.00
C1612  C     0.83867   0.83091   0.61683   0.00000  Uiso   1.00
C1613  C     0.82800   0.83091   0.88318   0.00000  Uiso   1.00
C1614  C     0.83650   0.82538   0.52435   0.00000  Uiso   1.00
C1615  C     0.83019   0.82538   0.97566   0.00000  Uiso   1.00
C1616  C     0.95705   0.83281   0.74403   0.00000  Uiso   1.00
C1617  C     0.70962   0.83280   0.75596   0.00000  Uiso   1.00
C1618  C     0.81243   0.94147   0.60420   0.00000  Uiso   1.00
C1619  C     0.80456   0.96343   0.55833   0.00000  Uiso   1.00
C1620  C     0.77113   0.66732   0.55775   0.00000  Uiso   1.00
C1621  C     0.83506   0.83306   0.66500   0.00000  Uiso   1.00
C1622  C     0.78546   0.73535   0.86710   0.00000  Uiso   1.00
C1623  C     0.76374   0.70663   0.90063   0.00000  Uiso   1.00
C1624  C     0.71961   0.69580   0.88400   0.00000  Uiso   1.00
C1625  C     0.85424   0.94150   0.89581   0.00000  Uiso   1.00
C1626  C     0.86204   0.96353   0.94166   0.00000  Uiso   1.00
C1627  C     0.89549   0.66740   0.94225   0.00000  Uiso   1.00
C1628  C     0.88117   0.73531   0.63290   0.00000  Uiso   1.00
C1629  C     0.90293   0.70673   0.59930   0.00000  Uiso   1.00
C1630  C     0.94701   0.69573   0.61603   0.00000  Uiso   1.00
C1631  C     0.83161   0.83306   0.83500   0.00000  Uiso   1.00
C1632  C     0.80609   0.69149   0.72250   0.00000  Uiso   1.00
C1633  C     0.86165   0.97540   0.77620   0.00000  Uiso   1.00
C1634  C     0.86057   0.69149   0.77750   0.00000  Uiso   1.00
C1635  C     0.80502   0.97540   0.72380   0.00000  Uiso   1.00
C1636  C     0.68786   0.79003   0.75426   0.00000  Uiso   1.00
Cl1637 Cl    0.77212   0.72099   0.68435   0.00000  Uiso   1.00
Cl1638 Cl    0.90082   0.94658   0.80828   0.00000  Uiso   1.00
Cl1639 Cl    0.89455   0.72099   0.81565   0.00000  Uiso   1.00
Cl1640 Cl    0.76584   0.94658   0.69173   0.00000  Uiso   1.00
Cl1641 Cl    0.71156   0.73553   0.76767   0.00000  Uiso   1.00
Cl1642 Cl    0.95639   0.92863   0.72590   0.00000  Uiso   1.00
Cl1643 Cl    0.95509   0.73553   0.73229   0.00000  Uiso   1.00
Cl1644 Cl    0.71028   0.92863   0.77412   0.00000  Uiso   1.00
Cu1645 Cu    0.83333   0.88022   0.75000   0.00000  Uiso   1.00
Cu1646 Cu    0.83333   0.78645   0.75000   0.00000  Uiso   1.00
H1647  H     0.85590   0.89746   0.52869   0.00000  Uiso   1.00
H1648  H     0.76628   0.68250   0.52429   0.00000  Uiso   1.00
H1649  H     0.77999   0.69578   0.58119   0.00000  Uiso   1.00
H1650  H     0.78606   0.71443   0.83653   0.00000  Uiso   1.00
H1651  H     0.76740   0.76750   0.85805   0.00000  Uiso   1.00
H1652  H     0.78024   0.67320   0.90674   0.00000  Uiso   1.00
H1653  H     0.76368   0.72612   0.93206   0.00000  Uiso   1.00
H1654  H     0.70213   0.72866   0.87753   0.00000  Uiso   1.00
H1655  H     0.70462   0.67536   0.90915   0.00000  Uiso   1.00
H1656  H     0.71894   0.67485   0.85336   0.00000  Uiso   1.00
H1657  H     0.85120   0.97052   0.87174   0.00000  Uiso   1.00
H1658  H     0.83956   0.75120   0.96584   0.00000  Uiso   1.00
H1659  H     0.88134   0.92009   0.88863   0.00000  Uiso   1.00
H1660  H     0.83358   0.97934   0.95246   0.00000  Uiso   1.00
H1661  H     0.87291   0.93638   0.96561   0.00000  Uiso   1.00
H1662  H     0.92475   0.98497   0.93345   0.00000  Uiso   1.00
H1663  H     0.90023   0.68271   0.97566   0.00000  Uiso   1.00
H1664  H     0.88673   0.69577   0.91869   0.00000  Uiso   1.00
H1665  H     0.88054   0.71429   0.66341   0.00000  Uiso   1.00
H1666  H     0.89921   0.76745   0.64207   0.00000  Uiso   1.00
H1667  H     0.88638   0.67335   0.59299   0.00000  Uiso   1.00
H1668  H     0.90311   0.72638   0.56798   0.00000  Uiso   1.00
H1669  H     0.81080   0.89746   0.97132   0.00000  Uiso   1.00
H1670  H     0.96454   0.72853   0.62271   0.00000  Uiso   1.00
H1671  H     0.96203   0.67539   0.59084   0.00000  Uiso   1.00
H1672  H     0.94756   0.67461   0.64658   0.00000  Uiso   1.00
H1673  H     0.82711   0.75120   0.53415   0.00000  Uiso   1.00
H1674  H     0.81547   0.97053   0.62824   0.00000  Uiso   1.00
H1675  H     0.78535   0.92006   0.61143   0.00000  Uiso   1.00
H1676  H     0.83301   0.97922   0.54746   0.00000  Uiso   1.00
H1677  H     0.79366   0.93624   0.53443   0.00000  Uiso   1.00
H1678  H     0.74190   0.98494   0.56673   0.00000  Uiso   1.00
N1679  N     0.83333   0.95069   0.75000   0.00000  Uiso   1.00
N1680  N     0.83333   0.71598   0.75000   0.00000  Uiso   1.00
O1681  O     0.77321   0.87291   0.75000   0.00000  Uiso   1.00
O1682  O     0.82668   0.74473   0.88243   0.00000  Uiso   1.00
O1683  O     0.81737   0.91537   0.89001   0.00000  Uiso   1.00
O1684  O     0.83997   0.74473   0.61756   0.00000  Uiso   1.00
O1685  O     0.89345   0.79375   0.75001   0.00000  Uiso   1.00
O1686  O     0.89345   0.87291   0.75001   0.00000  Uiso   1.00
O1687  O     0.77321   0.79375   0.75000   0.00000  Uiso   1.00
O1688  O     0.83333   0.87293   0.68573   0.00000  Uiso   1.00
O1689  O     0.83334   0.79374   0.81427   0.00000  Uiso   1.00
O1690  O     0.83334   0.87293   0.81427   0.00000  Uiso   1.00
O1691  O     0.83333   0.79374   0.68573   0.00000  Uiso   1.00
O1692  O     0.84931   0.91537   0.60999   0.00000  Uiso   1.00
loop_
_geom_bond_atom_site_label_1
_geom_bond_atom_site_label_2
_geom_bond_distance
_geom_bond_site_symmetry_2
_ccdc_geom_bond_type
C1     C19     1.472   .     S
C1     O89     1.297   .     A
C1     O83     1.301   .     A
C2     C18     1.411   .     A
C2     Cl44    1.773   .     S
C2     C98     1.389   .     S
C3     C18     1.416   .     A
C3     Cl45    1.776   .     S
C3     C132    1.392   .     S
C4     Cl46    1.773   .     S
C4     C19     1.411   .     A
C4     C190    1.389   1_455 S
C5     H49     1.079   .     S
C5     C16     1.400   .     A
C5     C9      1.392   .     A
C6     H60     1.080   .     S
C6     C17     1.399   .     A
C6     C10     1.395   .     A
C7     C11     1.392   .     A
C7     C17     1.400   .     A
C7     H71     1.079   .     S
C8     C13     1.395   .     A
C8     C16     1.399   .     A
C8     H75     1.080   .     S
C9     C14     1.416   .     A
C9     O94     1.384   .     S
C10    C15     1.428   .     A
C10    O84     1.385   .     S
C11    C15     1.416   .     A
C11    O85     1.384   .     S
C12    O88     1.301   .     A
C12    O87     1.297   .     A
C12    C18     1.472   .     S
C13    O86     1.385   .     S
C13    C14     1.428   .     A
C14    C23     1.487   .     S
C15    C33     1.487   .     S
C16    C863    1.486   1_554 S
C17    C862    1.486   .     S
C19    C38     1.416   .     A
C20    H77     1.114   .     S
C20    H76     1.109   .     S
C20    O94     1.420   .     S
C20    C21     1.540   .     S
C21    H78     1.109   .     S
C21    H79     1.107   .     S
C21    C304    1.527   .     S
C22    H50     1.111   .     S
C22    H51     1.109   .     S
C22    C585    1.527   1_545 S
C22    H644    1.111   1_545 S
C23    O93     1.295   .     A
C23    O90     1.309   .     A
C24    H52     1.111   .     S
C24    H53     1.117   .     S
C24    C25     1.531   .     S
C24    O84     1.419   .     S
C25    C26     1.526   .     S
C25    H54     1.108   .     S
C25    H55     1.111   .     S
C26    H58     1.111   .     S
C26    H56     1.111   .     S
C26    H57     1.110   .     S
C27    O85     1.420   .     S
C27    H61     1.114   .     S
C27    H59     1.109   .     S
C27    C28     1.540   .     S
C28    H63     1.107   .     S
C28    H62     1.109   .     S
C28    C311    1.527   .     S
C29    H65     1.111   .     S
C29    H66     1.108   .     S
C29    C592    1.527   1_545 S
C29    H628    1.111   1_545 S
C30    C31     1.532   .     S
C30    O86     1.419   .     S
C30    H67     1.111   .     S
C30    H68     1.117   .     S
C31    H70     1.111   .     S
C31    C32     1.526   .     S
C31    H69     1.108   .     S
C32    H72     1.111   .     S
C32    H74     1.111   .     S
C32    H73     1.110   .     S
C33    O91     1.295   .     A
C33    O92     1.309   .     A
C34    Cl39    1.763   .     S
C34    N82     1.370   .     A
C34    C601    1.416   1_545 S
C35    N81     1.373   .     A
C35    Cl40    1.758   .     S
C35    C318    1.416   .     S
C36    N82     1.370   .     A
C36    Cl41    1.763   .     S
C36    C599    1.416   1_545 S
C37    Cl42    1.758   .     S
C37    N81     1.373   .     A
C37    C316    1.416   .     S
C38    Cl43    1.776   .     S
C38    C191    1.392   1_455 S
Cu47   O92     1.975   .     S
Cu47   O83     1.980   .     S
Cu47   Cu48    2.685   .     S
Cu47   O90     1.975   .     S
Cu47   O88     1.980   .     S
Cu47   N81     2.017   .     S
Cu48   O91     1.975   .     S
Cu48   O87     1.980   .     S
Cu48   O93     1.975   .     S
Cu48   O89     1.980   .     S
Cu48   N82     2.017   .     S
H64    C311    1.111   .     S
H80    C304    1.111   .     S
C95    C113    1.472   .     S
C95    O183    1.297   .     A
C95    O177    1.301   .     A
C96    C112    1.411   .     A
C96    Cl138   1.773   .     S
C96    C192    1.389   .     S
C97    C112    1.416   .     A
C97    Cl139   1.776   .     S
C97    C226    1.392   .     S
C98    Cl140   1.773   .     S
C98    C113    1.411   .     A
C99    H143    1.079   .     S
C99    C110    1.400   .     A
C99    C103    1.392   .     A
C100   H154    1.080   .     S
C100   C111    1.399   .     A
C100   C104    1.395   .     A
C101   C105    1.392   .     A
C101   C111    1.400   .     A
C101   H165    1.079   .     S
C102   C107    1.395   .     A
C102   C110    1.399   .     A
C102   H169    1.080   .     S
C103   C108    1.416   .     A
C103   O188    1.384   .     S
C104   C109    1.428   .     A
C104   O178    1.385   .     S
C105   C109    1.416   .     A
C105   O179    1.384   .     S
C106   O182    1.301   .     A
C106   O181    1.297   .     A
C106   C112    1.472   .     S
C107   O180    1.385   .     S
C107   C108    1.428   .     A
C108   C117    1.487   .     S
C109   C127    1.487   .     S
C110   C957    1.486   1_554 S
C111   C956    1.486   .     S
C113   C132    1.416   .     A
C114   H171    1.114   .     S
C114   H170    1.109   .     S
C114   O188    1.420   .     S
C114   C115    1.540   .     S
C115   H172    1.109   .     S
C115   H173    1.107   .     S
C115   C398    1.527   .     S
C116   H144    1.111   .     S
C116   H145    1.109   .     S
C116   C679    1.527   1_545 S
C116   H738    1.111   1_545 S
C117   O187    1.295   .     A
C117   O184    1.309   .     A
C118   H146    1.111   .     S
C118   H147    1.117   .     S
C118   C119    1.531   .     S
C118   O178    1.419   .     S
C119   C120    1.526   .     S
C119   H148    1.108   .     S
C119   H149    1.111   .     S
C120   H152    1.111   .     S
C120   H150    1.111   .     S
C120   H151    1.110   .     S
C121   O179    1.420   .     S
C121   H155    1.114   .     S
C121   H153    1.109   .     S
C121   C122    1.540   .     S
C122   H157    1.107   .     S
C122   H156    1.109   .     S
C122   C405    1.527   .     S
C123   H159    1.111   .     S
C123   H160    1.108   .     S
C123   C686    1.527   1_545 S
C123   H722    1.111   1_545 S
C124   C125    1.532   .     S
C124   O180    1.419   .     S
C124   H161    1.111   .     S
C124   H162    1.117   .     S
C125   H164    1.111   .     S
C125   C126    1.526   .     S
C125   H163    1.108   .     S
C126   H166    1.111   .     S
C126   H168    1.111   .     S
C126   H167    1.110   .     S
C127   O185    1.295   .     A
C127   O186    1.309   .     A
C128   Cl133   1.763   .     S
C128   N176    1.370   .     A
C128   C695    1.416   1_545 S
C129   N175    1.373   .     A
C129   Cl134   1.758   .     S
C129   C412    1.416   .     S
C130   N176    1.370   .     A
C130   Cl135   1.763   .     S
C130   C693    1.416   1_545 S
C131   Cl136   1.758   .     S
C131   N175    1.373   .     A
C131   C410    1.416   .     S
C132   Cl137   1.776   .     S
Cu141  O186    1.975   .     S
Cu141  O177    1.980   .     S
Cu141  Cu142   2.685   .     S
Cu141  O184    1.975   .     S
Cu141  O182    1.980   .     S
Cu141  N175    2.017   .     S
Cu142  O185    1.975   .     S
Cu142  O181    1.980   .     S
Cu142  O187    1.975   .     S
Cu142  O183    1.980   .     S
Cu142  N176    2.017   .     S
H158   C405    1.111   .     S
H174   C398    1.111   .     S
C189   C207    1.472   .     S
C189   O277    1.297   .     A
C189   O271    1.301   .     A
C190   C206    1.411   .     A
C190   Cl232   1.773   .     S
C190   C4      1.389   1_655 S
C191   C206    1.416   .     A
C191   Cl233   1.776   .     S
C191   C38     1.392   1_655 S
C192   Cl234   1.773   .     S
C192   C207    1.411   .     A
C193   H237    1.079   .     S
C193   C204    1.400   .     A
C193   C197    1.392   .     A
C194   H248    1.080   .     S
C194   C205    1.399   .     A
C194   C198    1.395   .     A
C195   C199    1.392   .     A
C195   C205    1.400   .     A
C195   H259    1.079   .     S
C196   C201    1.395   .     A
C196   C204    1.399   .     A
C196   H263    1.080   .     S
C197   C202    1.416   .     A
C197   O282    1.384   .     S
C198   C203    1.428   .     A
C198   O272    1.385   .     S
C199   C203    1.416   .     A
C199   O273    1.384   .     S
C200   O276    1.301   .     A
C200   O275    1.297   .     A
C200   C206    1.472   .     S
C201   O274    1.385   .     S
C201   C202    1.428   .     A
C202   C211    1.487   .     S
C203   C221    1.487   .     S
C204   C1051   1.486   1_554 S
C205   C1050   1.486   .     S
C207   C226    1.416   .     A
C208   H265    1.114   .     S
C208   H264    1.109   .     S
C208   O282    1.420   .     S
C208   C209    1.540   .     S
C209   H266    1.109   .     S
C209   H267    1.107   .     S
C209   C492    1.527   .     S
C210   H238    1.111   .     S
C210   H239    1.109   .     S
C210   C773    1.527   1_545 S
C210   H832    1.111   1_545 S
C211   O281    1.295   .     A
C211   O278    1.309   .     A
C212   H240    1.111   .     S
C212   H241    1.117   .     S
C212   C213    1.531   .     S
C212   O272    1.419   .     S
C213   C214    1.526   .     S
C213   H242    1.108   .     S
C213   H243    1.111   .     S
C214   H246    1.111   .     S
C214   H244    1.111   .     S
C214   H245    1.110   .     S
C215   O273    1.420   .     S
C215   H249    1.114   .     S
C215   H247    1.109   .     S
C215   C216    1.540   .     S
C216   H251    1.107   .     S
C216   H250    1.109   .     S
C216   C499    1.527   .     S
C217   H253    1.111   .     S
C217   H254    1.108   .     S
C217   C780    1.527   1_545 S
C217   H816    1.111   1_545 S
C218   C219    1.532   .     S
C218   O274    1.419   .     S
C218   H255    1.111   .     S
C218   H256    1.117   .     S
C219   H258    1.111   .     S
C219   C220    1.526   .     S
C219   H257    1.108   .     S
C220   H260    1.111   .     S
C220   H262    1.111   .     S
C220   H261    1.110   .     S
C221   O279    1.295   .     A
C221   O280    1.309   .     A
C222   Cl227   1.763   .     S
C222   N270    1.370   .     A
C222   C789    1.416   1_545 S
C223   N269    1.373   .     A
C223   Cl228   1.758   .     S
C223   C506    1.416   .     S
C224   N270    1.370   .     A
C224   Cl229   1.763   .     S
C224   C787    1.416   1_545 S
C225   Cl230   1.758   .     S
C225   N269    1.373   .     A
C225   C504    1.416   .     S
C226   Cl231   1.776   .     S
Cu235  O280    1.975   .     S
Cu235  O271    1.980   .     S
Cu235  Cu236   2.685   .     S
Cu235  O278    1.975   .     S
Cu235  O276    1.980   .     S
Cu235  N269    2.017   .     S
Cu236  O279    1.975   .     S
Cu236  O275    1.980   .     S
Cu236  O281    1.975   .     S
Cu236  O277    1.980   .     S
Cu236  N270    2.017   .     S
H252   C499    1.111   .     S
H268   C492    1.111   .     S
C283   C301    1.472   .     S
C283   O371    1.297   .     A
C283   O365    1.301   .     A
C284   C300    1.411   .     A
C284   Cl326   1.773   .     S
C284   C380    1.389   .     S
C285   C300    1.416   .     A
C285   Cl327   1.776   .     S
C285   C414    1.392   .     S
C286   Cl328   1.773   .     S
C286   C301    1.411   .     A
C286   C472    1.389   1_455 S
C287   H331    1.079   .     S
C287   C298    1.400   .     A
C287   C291    1.392   .     A
C288   H342    1.080   .     S
C288   C299    1.399   .     A
C288   C292    1.395   .     A
C289   C293    1.392   .     A
C289   C299    1.400   .     A
C289   H353    1.079   .     S
C290   C295    1.395   .     A
C290   C298    1.399   .     A
C290   H357    1.080   .     S
C291   C296    1.416   .     A
C291   O376    1.384   .     S
C292   C297    1.428   .     A
C292   O366    1.385   .     S
C293   C297    1.416   .     A
C293   O367    1.384   .     S
C294   O370    1.301   .     A
C294   O369    1.297   .     A
C294   C300    1.472   .     S
C295   O368    1.385   .     S
C295   C296    1.428   .     A
C296   C305    1.487   .     S
C297   C315    1.487   .     S
C298   C1145   1.486   1_554 S
C299   C1144   1.486   .     S
C301   C320    1.416   .     A
C302   H359    1.114   .     S
C302   H358    1.109   .     S
C302   O376    1.420   .     S
C302   C303    1.540   .     S
C303   H360    1.109   .     S
C303   H361    1.107   .     S
C303   C586    1.527   .     S
C304   H332    1.111   .     S
C304   H333    1.109   .     S
C305   O375    1.295   .     A
C305   O372    1.309   .     A
C306   H334    1.111   .     S
C306   H335    1.117   .     S
C306   C307    1.531   .     S
C306   O366    1.419   .     S
C307   C308    1.526   .     S
C307   H336    1.108   .     S
C307   H337    1.111   .     S
C308   H340    1.111   .     S
C308   H338    1.111   .     S
C308   H339    1.110   .     S
C309   O367    1.420   .     S
C309   H343    1.114   .     S
C309   H341    1.109   .     S
C309   C310    1.540   .     S
C310   H345    1.107   .     S
C310   H344    1.109   .     S
C310   C593    1.527   .     S
C311   H347    1.111   .     S
C311   H348    1.108   .     S
C312   C313    1.532   .     S
C312   O368    1.419   .     S
C312   H349    1.111   .     S
C312   H350    1.117   .     S
C313   H352    1.111   .     S
C313   C314    1.526   .     S
C313   H351    1.108   .     S
C314   H354    1.111   .     S
C314   H356    1.111   .     S
C314   H355    1.110   .     S
C315   O373    1.295   .     A
C315   O374    1.309   .     A
C316   Cl321   1.763   .     S
C316   N364    1.370   .     A
C317   N363    1.373   .     A
C317   Cl322   1.758   .     S
C317   C600    1.416   .     S
C318   N364    1.370   .     A
C318   Cl323   1.763   .     S
C319   Cl324   1.758   .     S
C319   N363    1.373   .     A
C319   C598    1.416   .     S
C320   Cl325   1.776   .     S
C320   C473    1.392   1_455 S
Cu329  O374    1.975   .     S
Cu329  O365    1.980   .     S
Cu329  Cu330   2.685   .     S
Cu329  O372    1.975   .     S
Cu329  O370    1.980   .     S
Cu329  N363    2.017   .     S
Cu330  O373    1.975   .     S
Cu330  O369    1.980   .     S
Cu330  O375    1.975   .     S
Cu330  O371    1.980   .     S
Cu330  N364    2.017   .     S
H346   C593    1.111   .     S
H362   C586    1.111   .     S
C377   C395    1.472   .     S
C377   O465    1.297   .     A
C377   O459    1.301   .     A
C378   C394    1.411   .     A
C378   Cl420   1.773   .     S
C378   C474    1.389   .     S
C379   C394    1.416   .     A
C379   Cl421   1.776   .     S
C379   C508    1.392   .     S
C380   Cl422   1.773   .     S
C380   C395    1.411   .     A
C381   H425    1.079   .     S
C381   C392    1.400   .     A
C381   C385    1.392   .     A
C382   H436    1.080   .     S
C382   C393    1.399   .     A
C382   C386    1.395   .     A
C383   C387    1.392   .     A
C383   C393    1.400   .     A
C383   H447    1.079   .     S
C384   C389    1.395   .     A
C384   C392    1.399   .     A
C384   H451    1.080   .     S
C385   C390    1.416   .     A
C385   O470    1.384   .     S
C386   C391    1.428   .     A
C386   O460    1.385   .     S
C387   C391    1.416   .     A
C387   O461    1.384   .     S
C388   O464    1.301   .     A
C388   O463    1.297   .     A
C388   C394    1.472   .     S
C389   O462    1.385   .     S
C389   C390    1.428   .     A
C390   C399    1.487   .     S
C391   C409    1.487   .     S
C392   C1239   1.486   1_554 S
C393   C1238   1.486   .     S
C395   C414    1.416   .     A
C396   H453    1.114   .     S
C396   H452    1.109   .     S
C396   O470    1.420   .     S
C396   C397    1.540   .     S
C397   H454    1.109   .     S
C397   H455    1.107   .     S
C397   C680    1.527   .     S
C398   H426    1.111   .     S
C398   H427    1.109   .     S
C399   O469    1.295   .     A
C399   O466    1.309   .     A
C400   H428    1.111   .     S
C400   H429    1.117   .     S
C400   C401    1.531   .     S
C400   O460    1.419   .     S
C401   C402    1.526   .     S
C401   H430    1.108   .     S
C401   H431    1.111   .     S
C402   H434    1.111   .     S
C402   H432    1.111   .     S
C402   H433    1.110   .     S
C403   O461    1.420   .     S
C403   H437    1.114   .     S
C403   H435    1.109   .     S
C403   C404    1.540   .     S
C404   H439    1.107   .     S
C404   H438    1.109   .     S
C404   C687    1.527   .     S
C405   H441    1.111   .     S
C405   H442    1.108   .     S
C406   C407    1.532   .     S
C406   O462    1.419   .     S
C406   H443    1.111   .     S
C406   H444    1.117   .     S
C407   H446    1.111   .     S
C407   C408    1.526   .     S
C407   H445    1.108   .     S
C408   H448    1.111   .     S
C408   H450    1.111   .     S
C408   H449    1.110   .     S
C409   O467    1.295   .     A
C409   O468    1.309   .     A
C410   Cl415   1.763   .     S
C410   N458    1.370   .     A
C411   N457    1.373   .     A
C411   Cl416   1.758   .     S
C411   C694    1.416   .     S
C412   N458    1.370   .     A
C412   Cl417   1.763   .     S
C413   Cl418   1.758   .     S
C413   N457    1.373   .     A
C413   C692    1.416   .     S
C414   Cl419   1.776   .     S
Cu423  O468    1.975   .     S
Cu423  O459    1.980   .     S
Cu423  Cu424   2.685   .     S
Cu423  O466    1.975   .     S
Cu423  O464    1.980   .     S
Cu423  N457    2.017   .     S
Cu424  O467    1.975   .     S
Cu424  O463    1.980   .     S
Cu424  O469    1.975   .     S
Cu424  O465    1.980   .     S
Cu424  N458    2.017   .     S
H440   C687    1.111   .     S
H456   C680    1.111   .     S
C471   C489    1.472   .     S
C471   O559    1.297   .     A
C471   O553    1.301   .     A
C472   C488    1.411   .     A
C472   Cl514   1.773   .     S
C472   C286    1.389   1_655 S
C473   C488    1.416   .     A
C473   Cl515   1.776   .     S
C473   C320    1.392   1_655 S
C474   Cl516   1.773   .     S
C474   C489    1.411   .     A
C475   H519    1.079   .     S
C475   C486    1.400   .     A
C475   C479    1.392   .     A
C476   H530    1.080   .     S
C476   C487    1.399   .     A
C476   C480    1.395   .     A
C477   C481    1.392   .     A
C477   C487    1.400   .     A
C477   H541    1.079   .     S
C478   C483    1.395   .     A
C478   C486    1.399   .     A
C478   H545    1.080   .     S
C479   C484    1.416   .     A
C479   O564    1.384   .     S
C480   C485    1.428   .     A
C480   O554    1.385   .     S
C481   C485    1.416   .     A
C481   O555    1.384   .     S
C482   O558    1.301   .     A
C482   O557    1.297   .     A
C482   C488    1.472   .     S
C483   O556    1.385   .     S
C483   C484    1.428   .     A
C484   C493    1.487   .     S
C485   C503    1.487   .     S
C486   C1333   1.486   1_554 S
C487   C1332   1.486   .     S
C489   C508    1.416   .     A
C490   H547    1.114   .     S
C490   H546    1.109   .     S
C490   O564    1.420   .     S
C490   C491    1.540   .     S
C491   H548    1.109   .     S
C491   H549    1.107   .     S
C491   C774    1.527   .     S
C492   H520    1.111   .     S
C492   H521    1.109   .     S
C493   O563    1.295   .     A
C493   O560    1.309   .     A
C494   H522    1.111   .     S
C494   H523    1.117   .     S
C494   C495    1.531   .     S
C494   O554    1.419   .     S
C495   C496    1.526   .     S
C495   H524    1.108   .     S
C495   H525    1.111   .     S
C496   H528    1.111   .     S
C496   H526    1.111   .     S
C496   H527    1.110   .     S
C497   O555    1.420   .     S
C497   H531    1.114   .     S
C497   H529    1.109   .     S
C497   C498    1.540   .     S
C498   H533    1.107   .     S
C498   H532    1.109   .     S
C498   C781    1.527   .     S
C499   H535    1.111   .     S
C499   H536    1.108   .     S
C500   C501    1.532   .     S
C500   O556    1.419   .     S
C500   H537    1.111   .     S
C500   H538    1.117   .     S
C501   H540    1.111   .     S
C501   C502    1.526   .     S
C501   H539    1.108   .     S
C502   H542    1.111   .     S
C502   H544    1.111   .     S
C502   H543    1.110   .     S
C503   O561    1.295   .     A
C503   O562    1.309   .     A
C504   Cl509   1.763   .     S
C504   N552    1.370   .     A
C505   N551    1.373   .     A
C505   Cl510   1.758   .     S
C505   C788    1.416   .     S
C506   N552    1.370   .     A
C506   Cl511   1.763   .     S
C507   Cl512   1.758   .     S
C507   N551    1.373   .     A
C507   C786    1.416   .     S
C508   Cl513   1.776   .     S
Cu517  O562    1.975   .     S
Cu517  O553    1.980   .     S
Cu517  Cu518   2.685   .     S
Cu517  O560    1.975   .     S
Cu517  O558    1.980   .     S
Cu517  N551    2.017   .     S
Cu518  O561    1.975   .     S
Cu518  O557    1.980   .     S
Cu518  O563    1.975   .     S
Cu518  O559    1.980   .     S
Cu518  N552    2.017   .     S
H534   C781    1.111   .     S
H550   C774    1.111   .     S
C565   C583    1.472   .     S
C565   O653    1.297   .     A
C565   O647    1.301   .     A
C566   C582    1.411   .     A
C566   Cl608   1.773   .     S
C566   C662    1.389   .     S
C567   C582    1.416   .     A
C567   Cl609   1.776   .     S
C567   C696    1.392   .     S
C568   Cl610   1.773   .     S
C568   C583    1.411   .     A
C568   C754    1.389   1_455 S
C569   H613    1.079   .     S
C569   C580    1.400   .     A
C569   C573    1.392   .     A
C570   H624    1.080   .     S
C570   C581    1.399   .     A
C570   C574    1.395   .     A
C571   C575    1.392   .     A
C571   C581    1.400   .     A
C571   H635    1.079   .     S
C572   C577    1.395   .     A
C572   C580    1.399   .     A
C572   H639    1.080   .     S
C573   C578    1.416   .     A
C573   O658    1.384   .     S
C574   C579    1.428   .     A
C574   O648    1.385   .     S
C575   C579    1.416   .     A
C575   O649    1.384   .     S
C576   O652    1.301   .     A
C576   O651    1.297   .     A
C576   C582    1.472   .     S
C577   O650    1.385   .     S
C577   C578    1.428   .     A
C578   C587    1.487   .     S
C579   C597    1.487   .     S
C580   C1427   1.486   1_554 S
C581   C1426   1.486   .     S
C583   C602    1.416   .     A
C584   H641    1.114   .     S
C584   H640    1.109   .     S
C584   O658    1.420   .     S
C584   C585    1.540   .     S
C585   H642    1.109   .     S
C585   H643    1.107   .     S
C585   C22     1.527   1_565 S
C586   H614    1.111   .     S
C586   H615    1.109   .     S
C587   O657    1.295   .     A
C587   O654    1.309   .     A
C588   H616    1.111   .     S
C588   H617    1.117   .     S
C588   C589    1.531   .     S
C588   O648    1.419   .     S
C589   C590    1.526   .     S
C589   H618    1.108   .     S
C589   H619    1.111   .     S
C590   H622    1.111   .     S
C590   H620    1.111   .     S
C590   H621    1.110   .     S
C591   O649    1.420   .     S
C591   H625    1.114   .     S
C591   H623    1.109   .     S
C591   C592    1.540   .     S
C592   H627    1.107   .     S
C592   H626    1.109   .     S
C592   C29     1.527   1_565 S
C593   H629    1.111   .     S
C593   H630    1.108   .     S
C594   C595    1.532   .     S
C594   O650    1.419   .     S
C594   H631    1.111   .     S
C594   H632    1.117   .     S
C595   H634    1.111   .     S
C595   C596    1.526   .     S
C595   H633    1.108   .     S
C596   H636    1.111   .     S
C596   H638    1.111   .     S
C596   H637    1.110   .     S
C597   O655    1.295   .     A
C597   O656    1.309   .     A
C598   Cl603   1.763   .     S
C598   N646    1.370   .     A
C599   N645    1.373   .     A
C599   Cl604   1.758   .     S
C599   C36     1.416   1_565 S
C600   N646    1.370   .     A
C600   Cl605   1.763   .     S
C601   Cl606   1.758   .     S
C601   N645    1.373   .     A
C601   C34     1.416   1_565 S
C602   Cl607   1.776   .     S
C602   C755    1.392   1_455 S
Cu611  O656    1.975   .     S
Cu611  O647    1.980   .     S
Cu611  Cu612   2.685   .     S
Cu611  O654    1.975   .     S
Cu611  O652    1.980   .     S
Cu611  N645    2.017   .     S
Cu612  O655    1.975   .     S
Cu612  O651    1.980   .     S
Cu612  O657    1.975   .     S
Cu612  O653    1.980   .     S
Cu612  N646    2.017   .     S
H628   C29     1.111   1_565 S
H644   C22     1.111   1_565 S
C659   C677    1.472   .     S
C659   O747    1.297   .     A
C659   O741    1.301   .     A
C660   C676    1.411   .     A
C660   Cl702   1.773   .     S
C660   C756    1.389   .     S
C661   C676    1.416   .     A
C661   Cl703   1.776   .     S
C661   C790    1.392   .     S
C662   Cl704   1.773   .     S
C662   C677    1.411   .     A
C663   H707    1.079   .     S
C663   C674    1.400   .     A
C663   C667    1.392   .     A
C664   H718    1.080   .     S
C664   C675    1.399   .     A
C664   C668    1.395   .     A
C665   C669    1.392   .     A
C665   C675    1.400   .     A
C665   H729    1.079   .     S
C666   C671    1.395   .     A
C666   C674    1.399   .     A
C666   H733    1.080   .     S
C667   C672    1.416   .     A
C667   O752    1.384   .     S
C668   C673    1.428   .     A
C668   O742    1.385   .     S
C669   C673    1.416   .     A
C669   O743    1.384   .     S
C670   O746    1.301   .     A
C670   O745    1.297   .     A
C670   C676    1.472   .     S
C671   O744    1.385   .     S
C671   C672    1.428   .     A
C672   C681    1.487   .     S
C673   C691    1.487   .     S
C674   C1521   1.486   1_554 S
C675   C1520   1.486   .     S
C677   C696    1.416   .     A
C678   H735    1.114   .     S
C678   H734    1.109   .     S
C678   O752    1.420   .     S
C678   C679    1.540   .     S
C679   H736    1.109   .     S
C679   H737    1.107   .     S
C679   C116    1.527   1_565 S
C680   H708    1.111   .     S
C680   H709    1.109   .     S
C681   O751    1.295   .     A
C681   O748    1.309   .     A
C682   H710    1.111   .     S
C682   H711    1.117   .     S
C682   C683    1.531   .     S
C682   O742    1.419   .     S
C683   C684    1.526   .     S
C683   H712    1.108   .     S
C683   H713    1.111   .     S
C684   H716    1.111   .     S
C684   H714    1.111   .     S
C684   H715    1.110   .     S
C685   O743    1.420   .     S
C685   H719    1.114   .     S
C685   H717    1.109   .     S
C685   C686    1.540   .     S
C686   H721    1.107   .     S
C686   H720    1.109   .     S
C686   C123    1.527   1_565 S
C687   H723    1.111   .     S
C687   H724    1.108   .     S
C688   C689    1.532   .     S
C688   O744    1.419   .     S
C688   H725    1.111   .     S
C688   H726    1.117   .     S
C689   H728    1.111   .     S
C689   C690    1.526   .     S
C689   H727    1.108   .     S
C690   H730    1.111   .     S
C690   H732    1.111   .     S
C690   H731    1.110   .     S
C691   O749    1.295   .     A
C691   O750    1.309   .     A
C692   Cl697   1.763   .     S
C692   N740    1.370   .     A
C693   N739    1.373   .     A
C693   Cl698   1.758   .     S
C693   C130    1.416   1_565 S
C694   N740    1.370   .     A
C694   Cl699   1.763   .     S
C695   Cl700   1.758   .     S
C695   N739    1.373   .     A
C695   C128    1.416   1_565 S
C696   Cl701   1.776   .     S
Cu705  O750    1.975   .     S
Cu705  O741    1.980   .     S
Cu705  Cu706   2.685   .     S
Cu705  O748    1.975   .     S
Cu705  O746    1.980   .     S
Cu705  N739    2.017   .     S
Cu706  O749    1.975   .     S
Cu706  O745    1.980   .     S
Cu706  O751    1.975   .     S
Cu706  O747    1.980   .     S
Cu706  N740    2.017   .     S
H722   C123    1.111   1_565 S
H738   C116    1.111   1_565 S
C753   C771    1.472   .     S
C753   O841    1.297   .     A
C753   O835    1.301   .     A
C754   C770    1.411   .     A
C754   Cl796   1.773   .     S
C754   C568    1.389   1_655 S
C755   C770    1.416   .     A
C755   Cl797   1.776   .     S
C755   C602    1.392   1_655 S
C756   Cl798   1.773   .     S
C756   C771    1.411   .     A
C757   H801    1.079   .     S
C757   C768    1.400   .     A
C757   C761    1.392   .     A
C758   H812    1.080   .     S
C758   C769    1.399   .     A
C758   C762    1.395   .     A
C759   C763    1.392   .     A
C759   C769    1.400   .     A
C759   H823    1.079   .     S
C760   C765    1.395   .     A
C760   C768    1.399   .     A
C760   H827    1.080   .     S
C761   C766    1.416   .     A
C761   O846    1.384   .     S
C762   C767    1.428   .     A
C762   O836    1.385   .     S
C763   C767    1.416   .     A
C763   O837    1.384   .     S
C764   O840    1.301   .     A
C764   O839    1.297   .     A
C764   C770    1.472   .     S
C765   O838    1.385   .     S
C765   C766    1.428   .     A
C766   C775    1.487   .     S
C767   C785    1.487   .     S
C768   C1615   1.486   1_554 S
C769   C1614   1.486   .     S
C771   C790    1.416   .     A
C772   H829    1.114   .     S
C772   H828    1.109   .     S
C772   O846    1.420   .     S
C772   C773    1.540   .     S
C773   H830    1.109   .     S
C773   H831    1.107   .     S
C773   C210    1.527   1_565 S
C774   H802    1.111   .     S
C774   H803    1.109   .     S
C775   O845    1.295   .     A
C775   O842    1.309   .     A
C776   H804    1.111   .     S
C776   H805    1.117   .     S
C776   C777    1.531   .     S
C776   O836    1.419   .     S
C777   C778    1.526   .     S
C777   H806    1.108   .     S
C777   H807    1.111   .     S
C778   H810    1.111   .     S
C778   H808    1.111   .     S
C778   H809    1.110   .     S
C779   O837    1.420   .     S
C779   H813    1.114   .     S
C779   H811    1.109   .     S
C779   C780    1.540   .     S
C780   H815    1.107   .     S
C780   H814    1.109   .     S
C780   C217    1.527   1_565 S
C781   H817    1.111   .     S
C781   H818    1.108   .     S
C782   C783    1.532   .     S
C782   O838    1.419   .     S
C782   H819    1.111   .     S
C782   H820    1.117   .     S
C783   H822    1.111   .     S
C783   C784    1.526   .     S
C783   H821    1.108   .     S
C784   H824    1.111   .     S
C784   H826    1.111   .     S
C784   H825    1.110   .     S
C785   O843    1.295   .     A
C785   O844    1.309   .     A
C786   Cl791   1.763   .     S
C786   N834    1.370   .     A
C787   N833    1.373   .     A
C787   Cl792   1.758   .     S
C787   C224    1.416   1_565 S
C788   N834    1.370   .     A
C788   Cl793   1.763   .     S
C789   Cl794   1.758   .     S
C789   N833    1.373   .     A
C789   C222    1.416   1_565 S
C790   Cl795   1.776   .     S
Cu799  O844    1.975   .     S
Cu799  O835    1.980   .     S
Cu799  Cu800   2.685   .     S
Cu799  O842    1.975   .     S
Cu799  O840    1.980   .     S
Cu799  N833    2.017   .     S
Cu800  O843    1.975   .     S
Cu800  O839    1.980   .     S
Cu800  O845    1.975   .     S
Cu800  O841    1.980   .     S
Cu800  N834    2.017   .     S
H816   C217    1.111   1_565 S
H832   C210    1.111   1_565 S
C847   C865    1.472   .     S
C847   O935    1.297   .     A
C847   O929    1.301   .     A
C848   C864    1.411   .     A
C848   Cl890   1.773   .     S
C848   C944    1.389   .     S
C849   C864    1.416   .     A
C849   Cl891   1.776   .     S
C849   C978    1.392   .     S
C850   Cl892   1.773   .     S
C850   C865    1.411   .     A
C850   C1036   1.389   1_455 S
C851   H895    1.079   .     S
C851   C862    1.400   .     A
C851   C855    1.392   .     A
C852   H906    1.080   .     S
C852   C863    1.399   .     A
C852   C856    1.395   .     A
C853   C857    1.392   .     A
C853   C863    1.400   .     A
C853   H917    1.079   .     S
C854   C859    1.395   .     A
C854   C862    1.399   .     A
C854   H921    1.080   .     S
C855   C860    1.416   .     A
C855   O940    1.384   .     S
C856   C861    1.428   .     A
C856   O930    1.385   .     S
C857   C861    1.416   .     A
C857   O931    1.384   .     S
C858   O934    1.301   .     A
C858   O933    1.297   .     A
C858   C864    1.472   .     S
C859   O932    1.385   .     S
C859   C860    1.428   .     A
C860   C869    1.487   .     S
C861   C879    1.487   .     S
C863   C16     1.486   1_556 S
C865   C884    1.416   .     A
C866   H923    1.114   .     S
C866   H922    1.109   .     S
C866   O940    1.420   .     S
C866   C867    1.540   .     S
C867   H924    1.109   .     S
C867   H925    1.107   .     S
C867   C1150   1.527   .     S
C868   H896    1.111   .     S
C868   H897    1.109   .     S
C868   C1431   1.527   1_545 S
C868   H1490   1.111   1_545 S
C869   O939    1.295   .     A
C869   O936    1.309   .     A
C870   H898    1.111   .     S
C870   H899    1.117   .     S
C870   C871    1.531   .     S
C870   O930    1.419   .     S
C871   C872    1.526   .     S
C871   H900    1.108   .     S
C871   H901    1.111   .     S
C872   H904    1.111   .     S
C872   H902    1.111   .     S
C872   H903    1.110   .     S
C873   O931    1.420   .     S
C873   H907    1.114   .     S
C873   H905    1.109   .     S
C873   C874    1.540   .     S
C874   H909    1.107   .     S
C874   H908    1.109   .     S
C874   C1157   1.527   .     S
C875   H911    1.111   .     S
C875   H912    1.108   .     S
C875   C1438   1.527   1_545 S
C875   H1474   1.111   1_545 S
C876   C877    1.532   .     S
C876   O932    1.419   .     S
C876   H913    1.111   .     S
C876   H914    1.117   .     S
C877   H916    1.111   .     S
C877   C878    1.526   .     S
C877   H915    1.108   .     S
C878   H918    1.111   .     S
C878   H920    1.111   .     S
C878   H919    1.110   .     S
C879   O937    1.295   .     A
C879   O938    1.309   .     A
C880   Cl885   1.763   .     S
C880   N928    1.370   .     A
C880   C1447   1.416   1_545 S
C881   N927    1.373   .     A
C881   Cl886   1.758   .     S
C881   C1164   1.416   .     S
C882   N928    1.370   .     A
C882   Cl887   1.763   .     S
C882   C1445   1.416   1_545 S
C883   Cl888   1.758   .     S
C883   N927    1.373   .     A
C883   C1162   1.416   .     S
C884   Cl889   1.776   .     S
C884   C1037   1.392   1_455 S
Cu893  O938    1.975   .     S
Cu893  O929    1.980   .     S
Cu893  Cu894   2.685   .     S
Cu893  O936    1.975   .     S
Cu893  O934    1.980   .     S
Cu893  N927    2.017   .     S
Cu894  O937    1.975   .     S
Cu894  O933    1.980   .     S
Cu894  O939    1.975   .     S
Cu894  O935    1.980   .     S
Cu894  N928    2.017   .     S
H910   C1157   1.111   .     S
H926   C1150   1.111   .     S
C941   C959    1.472   .     S
C941   O1029   1.297   .     A
C941   O1023   1.301   .     A
C942   C958    1.411   .     A
C942   Cl984   1.773   .     S
C942   C1038   1.389   .     S
C943   C958    1.416   .     A
C943   Cl985   1.776   .     S
C943   C1072   1.392   .     S
C944   Cl986   1.773   .     S
C944   C959    1.411   .     A
C945   H989    1.079   .     S
C945   C956    1.400   .     A
C945   C949    1.392   .     A
C946   H1000   1.080   .     S
C946   C957    1.399   .     A
C946   C950    1.395   .     A
C947   C951    1.392   .     A
C947   C957    1.400   .     A
C947   H1011   1.079   .     S
C948   C953    1.395   .     A
C948   C956    1.399   .     A
C948   H1015   1.080   .     S
C949   C954    1.416   .     A
C949   O1034   1.384   .     S
C950   C955    1.428   .     A
C950   O1024   1.385   .     S
C951   C955    1.416   .     A
C951   O1025   1.384   .     S
C952   O1028   1.301   .     A
C952   O1027   1.297   .     A
C952   C958    1.472   .     S
C953   O1026   1.385   .     S
C953   C954    1.428   .     A
C954   C963    1.487   .     S
C955   C973    1.487   .     S
C957   C110    1.486   1_556 S
C959   C978    1.416   .     A
C960   H1017   1.114   .     S
C960   H1016   1.109   .     S
C960   O1034   1.420   .     S
C960   C961    1.540   .     S
C961   H1018   1.109   .     S
C961   H1019   1.107   .     S
C961   C1244   1.527   .     S
C962   H990    1.111   .     S
C962   H991    1.109   .     S
C962   C1525   1.527   1_545 S
C962   H1584   1.111   1_545 S
C963   O1033   1.295   .     A
C963   O1030   1.309   .     A
C964   H992    1.111   .     S
C964   H993    1.117   .     S
C964   C965    1.531   .     S
C964   O1024   1.419   .     S
C965   C966    1.526   .     S
C965   H994    1.108   .     S
C965   H995    1.111   .     S
C966   H998    1.111   .     S
C966   H996    1.111   .     S
C966   H997    1.110   .     S
C967   O1025   1.420   .     S
C967   H1001   1.114   .     S
C967   H999    1.109   .     S
C967   C968    1.540   .     S
C968   H1003   1.107   .     S
C968   H1002   1.109   .     S
C968   C1251   1.527   .     S
C969   H1005   1.111   .     S
C969   H1006   1.108   .     S
C969   C1532   1.527   1_545 S
C969   H1568   1.111   1_545 S
C970   C971    1.532   .     S
C970   O1026   1.419   .     S
C970   H1007   1.111   .     S
C970   H1008   1.117   .     S
C971   H1010   1.111   .     S
C971   C972    1.526   .     S
C971   H1009   1.108   .     S
C972   H1012   1.111   .     S
C972   H1014   1.111   .     S
C972   H1013   1.110   .     S
C973   O1031   1.295   .     A
C973   O1032   1.309   .     A
C974   Cl979   1.763   .     S
C974   N1022   1.370   .     A
C974   C1541   1.416   1_545 S
C975   N1021   1.373   .     A
C975   Cl980   1.758   .     S
C975   C1258   1.416   .     S
C976   N1022   1.370   .     A
C976   Cl981   1.763   .     S
C976   C1539   1.416   1_545 S
C977   Cl982   1.758   .     S
C977   N1021   1.373   .     A
C977   C1256   1.416   .     S
C978   Cl983   1.776   .     S
Cu987  O1032   1.975   .     S
Cu987  O1023   1.980   .     S
Cu987  Cu988   2.685   .     S
Cu987  O1030   1.975   .     S
Cu987  O1028   1.980   .     S
Cu987  N1021   2.017   .     S
Cu988  O1031   1.975   .     S
Cu988  O1027   1.980   .     S
Cu988  O1033   1.975   .     S
Cu988  O1029   1.980   .     S
Cu988  N1022   2.017   .     S
H1004  C1251   1.111   .     S
H1020  C1244   1.111   .     S
C1035  C1053   1.472   .     S
C1035  O1123   1.297   .     A
C1035  O1117   1.301   .     A
C1036  C1052   1.411   .     A
C1036  Cl1078  1.773   .     S
C1036  C850    1.389   1_655 S
C1037  C1052   1.416   .     A
C1037  Cl1079  1.776   .     S
C1037  C884    1.392   1_655 S
C1038  Cl1080  1.773   .     S
C1038  C1053   1.411   .     A
C1039  H1083   1.079   .     S
C1039  C1050   1.400   .     A
C1039  C1043   1.392   .     A
C1040  H1094   1.080   .     S
C1040  C1051   1.399   .     A
C1040  C1044   1.395   .     A
C1041  C1045   1.392   .     A
C1041  C1051   1.400   .     A
C1041  H1105   1.079   .     S
C1042  C1047   1.395   .     A
C1042  C1050   1.399   .     A
C1042  H1109   1.080   .     S
C1043  C1048   1.416   .     A
C1043  O1128   1.384   .     S
C1044  C1049   1.428   .     A
C1044  O1118   1.385   .     S
C1045  C1049   1.416   .     A
C1045  O1119   1.384   .     S
C1046  O1122   1.301   .     A
C1046  O1121   1.297   .     A
C1046  C1052   1.472   .     S
C1047  O1120   1.385   .     S
C1047  C1048   1.428   .     A
C1048  C1057   1.487   .     S
C1049  C1067   1.487   .     S
C1051  C204    1.486   1_556 S
C1053  C1072   1.416   .     A
C1054  H1111   1.114   .     S
C1054  H1110   1.109   .     S
C1054  O1128   1.420   .     S
C1054  C1055   1.540   .     S
C1055  H1112   1.109   .     S
C1055  H1113   1.107   .     S
C1055  C1338   1.527   .     S
C1056  H1084   1.111   .     S
C1056  H1085   1.109   .     S
C1056  C1619   1.527   1_545 S
C1056  H1678   1.111   1_545 S
C1057  O1127   1.295   .     A
C1057  O1124   1.309   .     A
C1058  H1086   1.111   .     S
C1058  H1087   1.117   .     S
C1058  C1059   1.531   .     S
C1058  O1118   1.419   .     S
C1059  C1060   1.526   .     S
C1059  H1088   1.108   .     S
C1059  H1089   1.111   .     S
C1060  H1092   1.111   .     S
C1060  H1090   1.111   .     S
C1060  H1091   1.110   .     S
C1061  O1119   1.420   .     S
C1061  H1095   1.114   .     S
C1061  H1093   1.109   .     S
C1061  C1062   1.540   .     S
C1062  H1097   1.107   .     S
C1062  H1096   1.109   .     S
C1062  C1345   1.527   .     S
C1063  H1099   1.111   .     S
C1063  H1100   1.108   .     S
C1063  C1626   1.527   1_545 S
C1063  H1662   1.111   1_545 S
C1064  C1065   1.532   .     S
C1064  O1120   1.419   .     S
C1064  H1101   1.111   .     S
C1064  H1102   1.117   .     S
C1065  H1104   1.111   .     S
C1065  C1066   1.526   .     S
C1065  H1103   1.108   .     S
C1066  H1106   1.111   .     S
C1066  H1108   1.111   .     S
C1066  H1107   1.110   .     S
C1067  O1125   1.295   .     A
C1067  O1126   1.309   .     A
C1068  Cl1073  1.763   .     S
C1068  N1116   1.370   .     A
C1068  C1635   1.416   1_545 S
C1069  N1115   1.373   .     A
C1069  Cl1074  1.758   .     S
C1069  C1352   1.416   .     S
C1070  N1116   1.370   .     A
C1070  Cl1075  1.763   .     S
C1070  C1633   1.416   1_545 S
C1071  Cl1076  1.758   .     S
C1071  N1115   1.373   .     A
C1071  C1350   1.416   .     S
C1072  Cl1077  1.776   .     S
Cu1081 O1126   1.975   .     S
Cu1081 O1117   1.980   .     S
Cu1081 Cu1082  2.685   .     S
Cu1081 O1124   1.975   .     S
Cu1081 O1122   1.980   .     S
Cu1081 N1115   2.017   .     S
Cu1082 O1125   1.975   .     S
Cu1082 O1121   1.980   .     S
Cu1082 O1127   1.975   .     S
Cu1082 O1123   1.980   .     S
Cu1082 N1116   2.017   .     S
H1098  C1345   1.111   .     S
H1114  C1338   1.111   .     S
C1129  C1147   1.472   .     S
C1129  O1217   1.297   .     A
C1129  O1211   1.301   .     A
C1130  C1146   1.411   .     A
C1130  Cl1172  1.773   .     S
C1130  C1226   1.389   .     S
C1131  C1146   1.416   .     A
C1131  Cl1173  1.776   .     S
C1131  C1260   1.392   .     S
C1132  Cl1174  1.773   .     S
C1132  C1147   1.411   .     A
C1132  C1318   1.389   1_455 S
C1133  H1177   1.079   .     S
C1133  C1144   1.400   .     A
C1133  C1137   1.392   .     A
C1134  H1188   1.080   .     S
C1134  C1145   1.399   .     A
C1134  C1138   1.395   .     A
C1135  C1139   1.392   .     A
C1135  C1145   1.400   .     A
C1135  H1199   1.079   .     S
C1136  C1141   1.395   .     A
C1136  C1144   1.399   .     A
C1136  H1203   1.080   .     S
C1137  C1142   1.416   .     A
C1137  O1222   1.384   .     S
C1138  C1143   1.428   .     A
C1138  O1212   1.385   .     S
C1139  C1143   1.416   .     A
C1139  O1213   1.384   .     S
C1140  O1216   1.301   .     A
C1140  O1215   1.297   .     A
C1140  C1146   1.472   .     S
C1141  O1214   1.385   .     S
C1141  C1142   1.428   .     A
C1142  C1151   1.487   .     S
C1143  C1161   1.487   .     S
C1145  C298    1.486   1_556 S
C1147  C1166   1.416   .     A
C1148  H1205   1.114   .     S
C1148  H1204   1.109   .     S
C1148  O1222   1.420   .     S
C1148  C1149   1.540   .     S
C1149  H1206   1.109   .     S
C1149  H1207   1.107   .     S
C1149  C1432   1.527   .     S
C1150  H1178   1.111   .     S
C1150  H1179   1.109   .     S
C1151  O1221   1.295   .     A
C1151  O1218   1.309   .     A
C1152  H1180   1.111   .     S
C1152  H1181   1.117   .     S
C1152  C1153   1.531   .     S
C1152  O1212   1.419   .     S
C1153  C1154   1.526   .     S
C1153  H1182   1.108   .     S
C1153  H1183   1.111   .     S
C1154  H1186   1.111   .     S
C1154  H1184   1.111   .     S
C1154  H1185   1.110   .     S
C1155  O1213   1.420   .     S
C1155  H1189   1.114   .     S
C1155  H1187   1.109   .     S
C1155  C1156   1.540   .     S
C1156  H1191   1.107   .     S
C1156  H1190   1.109   .     S
C1156  C1439   1.527   .     S
C1157  H1193   1.111   .     S
C1157  H1194   1.108   .     S
C1158  C1159   1.532   .     S
C1158  O1214   1.419   .     S
C1158  H1195   1.111   .     S
C1158  H1196   1.117   .     S
C1159  H1198   1.111   .     S
C1159  C1160   1.526   .     S
C1159  H1197   1.108   .     S
C1160  H1200   1.111   .     S
C1160  H1202   1.111   .     S
C1160  H1201   1.110   .     S
C1161  O1219   1.295   .     A
C1161  O1220   1.309   .     A
C1162  Cl1167  1.763   .     S
C1162  N1210   1.370   .     A
C1163  N1209   1.373   .     A
C1163  Cl1168  1.758   .     S
C1163  C1446   1.416   .     S
C1164  N1210   1.370   .     A
C1164  Cl1169  1.763   .     S
C1165  Cl1170  1.758   .     S
C1165  N1209   1.373   .     A
C1165  C1444   1.416   .     S
C1166  Cl1171  1.776   .     S
C1166  C1319   1.392   1_455 S
Cu1175 O1220   1.975   .     S
Cu1175 O1211   1.980   .     S
Cu1175 Cu1176  2.685   .     S
Cu1175 O1218   1.975   .     S
Cu1175 O1216   1.980   .     S
Cu1175 N1209   2.017   .     S
Cu1176 O1219   1.975   .     S
Cu1176 O1215   1.980   .     S
Cu1176 O1221   1.975   .     S
Cu1176 O1217   1.980   .     S
Cu1176 N1210   2.017   .     S
H1192  C1439   1.111   .     S
H1208  C1432   1.111   .     S
C1223  C1241   1.472   .     S
C1223  O1311   1.297   .     A
C1223  O1305   1.301   .     A
C1224  C1240   1.411   .     A
C1224  Cl1266  1.773   .     S
C1224  C1320   1.389   .     S
C1225  C1240   1.416   .     A
C1225  Cl1267  1.776   .     S
C1225  C1354   1.392   .     S
C1226  Cl1268  1.773   .     S
C1226  C1241   1.411   .     A
C1227  H1271   1.079   .     S
C1227  C1238   1.400   .     A
C1227  C1231   1.392   .     A
C1228  H1282   1.080   .     S
C1228  C1239   1.399   .     A
C1228  C1232   1.395   .     A
C1229  C1233   1.392   .     A
C1229  C1239   1.400   .     A
C1229  H1293   1.079   .     S
C1230  C1235   1.395   .     A
C1230  C1238   1.399   .     A
C1230  H1297   1.080   .     S
C1231  C1236   1.416   .     A
C1231  O1316   1.384   .     S
C1232  C1237   1.428   .     A
C1232  O1306   1.385   .     S
C1233  C1237   1.416   .     A
C1233  O1307   1.384   .     S
C1234  O1310   1.301   .     A
C1234  O1309   1.297   .     A
C1234  C1240   1.472   .     S
C1235  O1308   1.385   .     S
C1235  C1236   1.428   .     A
C1236  C1245   1.487   .     S
C1237  C1255   1.487   .     S
C1239  C392    1.486   1_556 S
C1241  C1260   1.416   .     A
C1242  H1299   1.114   .     S
C1242  H1298   1.109   .     S
C1242  O1316   1.420   .     S
C1242  C1243   1.540   .     S
C1243  H1300   1.109   .     S
C1243  H1301   1.107   .     S
C1243  C1526   1.527   .     S
C1244  H1272   1.111   .     S
C1244  H1273   1.109   .     S
C1245  O1315   1.295   .     A
C1245  O1312   1.309   .     A
C1246  H1274   1.111   .     S
C1246  H1275   1.117   .     S
C1246  C1247   1.531   .     S
C1246  O1306   1.419   .     S
C1247  C1248   1.526   .     S
C1247  H1276   1.108   .     S
C1247  H1277   1.111   .     S
C1248  H1280   1.111   .     S
C1248  H1278   1.111   .     S
C1248  H1279   1.110   .     S
C1249  O1307   1.420   .     S
C1249  H1283   1.114   .     S
C1249  H1281   1.109   .     S
C1249  C1250   1.540   .     S
C1250  H1285   1.107   .     S
C1250  H1284   1.109   .     S
C1250  C1533   1.527   .     S
C1251  H1287   1.111   .     S
C1251  H1288   1.108   .     S
C1252  C1253   1.532   .     S
C1252  O1308   1.419   .     S
C1252  H1289   1.111   .     S
C1252  H1290   1.117   .     S
C1253  H1292   1.111   .     S
C1253  C1254   1.526   .     S
C1253  H1291   1.108   .     S
C1254  H1294   1.111   .     S
C1254  H1296   1.111   .     S
C1254  H1295   1.110   .     S
C1255  O1313   1.295   .     A
C1255  O1314   1.309   .     A
C1256  Cl1261  1.763   .     S
C1256  N1304   1.370   .     A
C1257  N1303   1.373   .     A
C1257  Cl1262  1.758   .     S
C1257  C1540   1.416   .     S
C1258  N1304   1.370   .     A
C1258  Cl1263  1.763   .     S
C1259  Cl1264  1.758   .     S
C1259  N1303   1.373   .     A
C1259  C1538   1.416   .     S
C1260  Cl1265  1.776   .     S
Cu1269 O1314   1.975   .     S
Cu1269 O1305   1.980   .     S
Cu1269 Cu1270  2.685   .     S
Cu1269 O1312   1.975   .     S
Cu1269 O1310   1.980   .     S
Cu1269 N1303   2.017   .     S
Cu1270 O1313   1.975   .     S
Cu1270 O1309   1.980   .     S
Cu1270 O1315   1.975   .     S
Cu1270 O1311   1.980   .     S
Cu1270 N1304   2.017   .     S
H1286  C1533   1.111   .     S
H1302  C1526   1.111   .     S
C1317  C1335   1.472   .     S
C1317  O1405   1.297   .     A
C1317  O1399   1.301   .     A
C1318  C1334   1.411   .     A
C1318  Cl1360  1.773   .     S
C1318  C1132   1.389   1_655 S
C1319  C1334   1.416   .     A
C1319  Cl1361  1.776   .     S
C1319  C1166   1.392   1_655 S
C1320  Cl1362  1.773   .     S
C1320  C1335   1.411   .     A
C1321  H1365   1.079   .     S
C1321  C1332   1.400   .     A
C1321  C1325   1.392   .     A
C1322  H1376   1.080   .     S
C1322  C1333   1.399   .     A
C1322  C1326   1.395   .     A
C1323  C1327   1.392   .     A
C1323  C1333   1.400   .     A
C1323  H1387   1.079   .     S
C1324  C1329   1.395   .     A
C1324  C1332   1.399   .     A
C1324  H1391   1.080   .     S
C1325  C1330   1.416   .     A
C1325  O1410   1.384   .     S
C1326  C1331   1.428   .     A
C1326  O1400   1.385   .     S
C1327  C1331   1.416   .     A
C1327  O1401   1.384   .     S
C1328  O1404   1.301   .     A
C1328  O1403   1.297   .     A
C1328  C1334   1.472   .     S
C1329  O1402   1.385   .     S
C1329  C1330   1.428   .     A
C1330  C1339   1.487   .     S
C1331  C1349   1.487   .     S
C1333  C486    1.486   1_556 S
C1335  C1354   1.416   .     A
C1336  H1393   1.114   .     S
C1336  H1392   1.109   .     S
C1336  O1410   1.420   .     S
C1336  C1337   1.540   .     S
C1337  H1394   1.109   .     S
C1337  H1395   1.107   .     S
C1337  C1620   1.527   .     S
C1338  H1366   1.111   .     S
C1338  H1367   1.109   .     S
C1339  O1409   1.295   .     A
C1339  O1406   1.309   .     A
C1340  H1368   1.111   .     S
C1340  H1369   1.117   .     S
C1340  C1341   1.531   .     S
C1340  O1400   1.419   .     S
C1341  C1342   1.526   .     S
C1341  H1370   1.108   .     S
C1341  H1371   1.111   .     S
C1342  H1374   1.111   .     S
C1342  H1372   1.111   .     S
C1342  H1373   1.110   .     S
C1343  O1401   1.420   .     S
C1343  H1377   1.114   .     S
C1343  H1375   1.109   .     S
C1343  C1344   1.540   .     S
C1344  H1379   1.107   .     S
C1344  H1378   1.109   .     S
C1344  C1627   1.527   .     S
C1345  H1381   1.111   .     S
C1345  H1382   1.108   .     S
C1346  C1347   1.532   .     S
C1346  O1402   1.419   .     S
C1346  H1383   1.111   .     S
C1346  H1384   1.117   .     S
C1347  H1386   1.111   .     S
C1347  C1348   1.526   .     S
C1347  H1385   1.108   .     S
C1348  H1388   1.111   .     S
C1348  H1390   1.111   .     S
C1348  H1389   1.110   .     S
C1349  O1407   1.295   .     A
C1349  O1408   1.309   .     A
C1350  Cl1355  1.763   .     S
C1350  N1398   1.370   .     A
C1351  N1397   1.373   .     A
C1351  Cl1356  1.758   .     S
C1351  C1634   1.416   .     S
C1352  N1398   1.370   .     A
C1352  Cl1357  1.763   .     S
C1353  Cl1358  1.758   .     S
C1353  N1397   1.373   .     A
C1353  C1632   1.416   .     S
C1354  Cl1359  1.776   .     S
Cu1363 O1408   1.975   .     S
Cu1363 O1399   1.980   .     S
Cu1363 Cu1364  2.685   .     S
Cu1363 O1406   1.975   .     S
Cu1363 O1404   1.980   .     S
Cu1363 N1397   2.017   .     S
Cu1364 O1407   1.975   .     S
Cu1364 O1403   1.980   .     S
Cu1364 O1409   1.975   .     S
Cu1364 O1405   1.980   .     S
Cu1364 N1398   2.017   .     S
H1380  C1627   1.111   .     S
H1396  C1620   1.111   .     S
C1411  C1429   1.472   .     S
C1411  O1499   1.297   .     A
C1411  O1493   1.301   .     A
C1412  C1428   1.411   .     A
C1412  Cl1454  1.773   .     S
C1412  C1508   1.389   .     S
C1413  C1428   1.416   .     A
C1413  Cl1455  1.776   .     S
C1413  C1542   1.392   .     S
C1414  Cl1456  1.773   .     S
C1414  C1429   1.411   .     A
C1414  C1600   1.389   1_455 S
C1415  H1459   1.079   .     S
C1415  C1426   1.400   .     A
C1415  C1419   1.392   .     A
C1416  H1470   1.080   .     S
C1416  C1427   1.399   .     A
C1416  C1420   1.395   .     A
C1417  C1421   1.392   .     A
C1417  C1427   1.400   .     A
C1417  H1481   1.079   .     S
C1418  C1423   1.395   .     A
C1418  C1426   1.399   .     A
C1418  H1485   1.080   .     S
C1419  C1424   1.416   .     A
C1419  O1504   1.384   .     S
C1420  C1425   1.428   .     A
C1420  O1494   1.385   .     S
C1421  C1425   1.416   .     A
C1421  O1495   1.384   .     S
C1422  O1498   1.301   .     A
C1422  O1497   1.297   .     A
C1422  C1428   1.472   .     S
C1423  O1496   1.385   .     S
C1423  C1424   1.428   .     A
C1424  C1433   1.487   .     S
C1425  C1443   1.487   .     S
C1427  C580    1.486   1_556 S
C1429  C1448   1.416   .     A
C1430  H1487   1.114   .     S
C1430  H1486   1.109   .     S
C1430  O1504   1.420   .     S
C1430  C1431   1.540   .     S
C1431  H1488   1.109   .     S
C1431  H1489   1.107   .     S
C1431  C868    1.527   1_565 S
C1432  H1460   1.111   .     S
C1432  H1461   1.109   .     S
C1433  O1503   1.295   .     A
C1433  O1500   1.309   .     A
C1434  H1462   1.111   .     S
C1434  H1463   1.117   .     S
C1434  C1435   1.531   .     S
C1434  O1494   1.419   .     S
C1435  C1436   1.526   .     S
C1435  H1464   1.108   .     S
C1435  H1465   1.111   .     S
C1436  H1468   1.111   .     S
C1436  H1466   1.111   .     S
C1436  H1467   1.110   .     S
C1437  O1495   1.420   .     S
C1437  H1471   1.114   .     S
C1437  H1469   1.109   .     S
C1437  C1438   1.540   .     S
C1438  H1473   1.107   .     S
C1438  H1472   1.109   .     S
C1438  C875    1.527   1_565 S
C1439  H1475   1.111   .     S
C1439  H1476   1.108   .     S
C1440  C1441   1.532   .     S
C1440  O1496   1.419   .     S
C1440  H1477   1.111   .     S
C1440  H1478   1.117   .     S
C1441  H1480   1.111   .     S
C1441  C1442   1.526   .     S
C1441  H1479   1.108   .     S
C1442  H1482   1.111   .     S
C1442  H1484   1.111   .     S
C1442  H1483   1.110   .     S
C1443  O1501   1.295   .     A
C1443  O1502   1.309   .     A
C1444  Cl1449  1.763   .     S
C1444  N1492   1.370   .     A
C1445  N1491   1.373   .     A
C1445  Cl1450  1.758   .     S
C1445  C882    1.416   1_565 S
C1446  N1492   1.370   .     A
C1446  Cl1451  1.763   .     S
C1447  Cl1452  1.758   .     S
C1447  N1491   1.373   .     A
C1447  C880    1.416   1_565 S
C1448  Cl1453  1.776   .     S
C1448  C1601   1.392   1_455 S
Cu1457 O1502   1.975   .     S
Cu1457 O1493   1.980   .     S
Cu1457 Cu1458  2.685   .     S
Cu1457 O1500   1.975   .     S
Cu1457 O1498   1.980   .     S
Cu1457 N1491   2.017   .     S
Cu1458 O1501   1.975   .     S
Cu1458 O1497   1.980   .     S
Cu1458 O1503   1.975   .     S
Cu1458 O1499   1.980   .     S
Cu1458 N1492   2.017   .     S
H1474  C875    1.111   1_565 S
H1490  C868    1.111   1_565 S
C1505  C1523   1.472   .     S
C1505  O1593   1.297   .     A
C1505  O1587   1.301   .     A
C1506  C1522   1.411   .     A
C1506  Cl1548  1.773   .     S
C1506  C1602   1.389   .     S
C1507  C1522   1.416   .     A
C1507  Cl1549  1.776   .     S
C1507  C1636   1.392   .     S
C1508  Cl1550  1.773   .     S
C1508  C1523   1.411   .     A
C1509  H1553   1.079   .     S
C1509  C1520   1.400   .     A
C1509  C1513   1.392   .     A
C1510  H1564   1.080   .     S
C1510  C1521   1.399   .     A
C1510  C1514   1.395   .     A
C1511  C1515   1.392   .     A
C1511  C1521   1.400   .     A
C1511  H1575   1.079   .     S
C1512  C1517   1.395   .     A
C1512  C1520   1.399   .     A
C1512  H1579   1.080   .     S
C1513  C1518   1.416   .     A
C1513  O1598   1.384   .     S
C1514  C1519   1.428   .     A
C1514  O1588   1.385   .     S
C1515  C1519   1.416   .     A
C1515  O1589   1.384   .     S
C1516  O1592   1.301   .     A
C1516  O1591   1.297   .     A
C1516  C1522   1.472   .     S
C1517  O1590   1.385   .     S
C1517  C1518   1.428   .     A
C1518  C1527   1.487   .     S
C1519  C1537   1.487   .     S
C1521  C674    1.486   1_556 S
C1523  C1542   1.416   .     A
C1524  H1581   1.114   .     S
C1524  H1580   1.109   .     S
C1524  O1598   1.420   .     S
C1524  C1525   1.540   .     S
C1525  H1582   1.109   .     S
C1525  H1583   1.107   .     S
C1525  C962    1.527   1_565 S
C1526  H1554   1.111   .     S
C1526  H1555   1.109   .     S
C1527  O1597   1.295   .     A
C1527  O1594   1.309   .     A
C1528  H1556   1.111   .     S
C1528  H1557   1.117   .     S
C1528  C1529   1.531   .     S
C1528  O1588   1.419   .     S
C1529  C1530   1.526   .     S
C1529  H1558   1.108   .     S
C1529  H1559   1.111   .     S
C1530  H1562   1.111   .     S
C1530  H1560   1.111   .     S
C1530  H1561   1.110   .     S
C1531  O1589   1.420   .     S
C1531  H1565   1.114   .     S
C1531  H1563   1.109   .     S
C1531  C1532   1.540   .     S
C1532  H1567   1.107   .     S
C1532  H1566   1.109   .     S
C1532  C969    1.527   1_565 S
C1533  H1569   1.111   .     S
C1533  H1570   1.108   .     S
C1534  C1535   1.532   .     S
C1534  O1590   1.419   .     S
C1534  H1571   1.111   .     S
C1534  H1572   1.117   .     S
C1535  H1574   1.111   .     S
C1535  C1536   1.526   .     S
C1535  H1573   1.108   .     S
C1536  H1576   1.111   .     S
C1536  H1578   1.111   .     S
C1536  H1577   1.110   .     S
C1537  O1595   1.295   .     A
C1537  O1596   1.309   .     A
C1538  Cl1543  1.763   .     S
C1538  N1586   1.370   .     A
C1539  N1585   1.373   .     A
C1539  Cl1544  1.758   .     S
C1539  C976    1.416   1_565 S
C1540  N1586   1.370   .     A
C1540  Cl1545  1.763   .     S
C1541  Cl1546  1.758   .     S
C1541  N1585   1.373   .     A
C1541  C974    1.416   1_565 S
C1542  Cl1547  1.776   .     S
Cu1551 O1596   1.975   .     S
Cu1551 O1587   1.980   .     S
Cu1551 Cu1552  2.685   .     S
Cu1551 O1594   1.975   .     S
Cu1551 O1592   1.980   .     S
Cu1551 N1585   2.017   .     S
Cu1552 O1595   1.975   .     S
Cu1552 O1591   1.980   .     S
Cu1552 O1597   1.975   .     S
Cu1552 O1593   1.980   .     S
Cu1552 N1586   2.017   .     S
H1568  C969    1.111   1_565 S
H1584  C962    1.111   1_565 S
C1599  C1617   1.472   .     S
C1599  O1687   1.297   .     A
C1599  O1681   1.301   .     A
C1600  C1616   1.411   .     A
C1600  Cl1642  1.773   .     S
C1600  C1414   1.389   1_655 S
C1601  C1616   1.416   .     A
C1601  Cl1643  1.776   .     S
C1601  C1448   1.392   1_655 S
C1602  Cl1644  1.773   .     S
C1602  C1617   1.411   .     A
C1603  H1647   1.079   .     S
C1603  C1614   1.400   .     A
C1603  C1607   1.392   .     A
C1604  H1658   1.080   .     S
C1604  C1615   1.399   .     A
C1604  C1608   1.395   .     A
C1605  C1609   1.392   .     A
C1605  C1615   1.400   .     A
C1605  H1669   1.079   .     S
C1606  C1611   1.395   .     A
C1606  C1614   1.399   .     A
C1606  H1673   1.080   .     S
C1607  C1612   1.416   .     A
C1607  O1692   1.384   .     S
C1608  C1613   1.428   .     A
C1608  O1682   1.385   .     S
C1609  C1613   1.416   .     A
C1609  O1683   1.384   .     S
C1610  O1686   1.301   .     A
C1610  O1685   1.297   .     A
C1610  C1616   1.472   .     S
C1611  O1684   1.385   .     S
C1611  C1612   1.428   .     A
C1612  C1621   1.487   .     S
C1613  C1631   1.487   .     S
C1615  C768    1.486   1_556 S
C1617  C1636   1.416   .     A
C1618  H1675   1.114   .     S
C1618  H1674   1.109   .     S
C1618  O1692   1.420   .     S
C1618  C1619   1.540   .     S
C1619  H1676   1.109   .     S
C1619  H1677   1.107   .     S
C1619  C1056   1.527   1_565 S
C1620  H1648   1.111   .     S
C1620  H1649   1.109   .     S
C1621  O1691   1.295   .     A
C1621  O1688   1.309   .     A
C1622  H1650   1.111   .     S
C1622  H1651   1.117   .     S
C1622  C1623   1.531   .     S
C1622  O1682   1.419   .     S
C1623  C1624   1.526   .     S
C1623  H1652   1.108   .     S
C1623  H1653   1.111   .     S
C1624  H1656   1.111   .     S
C1624  H1654   1.111   .     S
C1624  H1655   1.110   .     S
C1625  O1683   1.420   .     S
C1625  H1659   1.114   .     S
C1625  H1657   1.109   .     S
C1625  C1626   1.540   .     S
C1626  H1661   1.107   .     S
C1626  H1660   1.109   .     S
C1626  C1063   1.527   1_565 S
C1627  H1663   1.111   .     S
C1627  H1664   1.108   .     S
C1628  C1629   1.532   .     S
C1628  O1684   1.419   .     S
C1628  H1665   1.111   .     S
C1628  H1666   1.117   .     S
C1629  H1668   1.111   .     S
C1629  C1630   1.526   .     S
C1629  H1667   1.108   .     S
C1630  H1670   1.111   .     S
C1630  H1672   1.111   .     S
C1630  H1671   1.110   .     S
C1631  O1689   1.295   .     A
C1631  O1690   1.309   .     A
C1632  Cl1637  1.763   .     S
C1632  N1680   1.370   .     A
C1633  N1679   1.373   .     A
C1633  Cl1638  1.758   .     S
C1633  C1070   1.416   1_565 S
C1634  N1680   1.370   .     A
C1634  Cl1639  1.763   .     S
C1635  Cl1640  1.758   .     S
C1635  N1679   1.373   .     A
C1635  C1068   1.416   1_565 S
C1636  Cl1641  1.776   .     S
Cu1645 O1690   1.975   .     S
Cu1645 O1681   1.980   .     S
Cu1645 Cu1646  2.685   .     S
Cu1645 O1688   1.975   .     S
Cu1645 O1686   1.980   .     S
Cu1645 N1679   2.017   .     S
Cu1646 O1689   1.975   .     S
Cu1646 O1685   1.980   .     S
Cu1646 O1691   1.975   .     S
Cu1646 O1687   1.980   .     S
Cu1646 N1680   2.017   .     S
H1662  C1063   1.111   1_565 S
H1678  C1056   1.111   1_565 S
