data_str_m2_o10_o18_pcu_sym.95
_audit_creation_date              2020-01-03
_audit_creation_method            'Materials Studio'
_symmetry_space_group_name_H-M    'P1'
_symmetry_Int_Tables_number       1
_symmetry_cell_setting            triclinic
loop_
_symmetry_equiv_pos_as_xyz
  x,y,z
_cell_length_a                    22.4302
_cell_length_b                    26.0666
_cell_length_c                    31.4007
_cell_angle_alpha                 94.9609
_cell_angle_beta                  75.6082
_cell_angle_gamma                 103.4711
loop_
_atom_site_label
_atom_site_type_symbol
_atom_site_fract_x
_atom_site_fract_y
_atom_site_fract_z
_atom_site_U_iso_or_equiv
_atom_site_adp_type
_atom_site_occupancy
C1     C     0.18175   0.26673   0.25137   0.00000  Uiso   1.00
C2     C     0.15155   0.06660   0.24869   0.00000  Uiso   1.00
C3     C     0.10795   0.09937   0.03098   0.00000  Uiso   1.00
C4     C     0.24947   0.17148   0.45367   0.00000  Uiso   1.00
C5     C     0.06686   0.08317   0.00287   0.00000  Uiso   1.00
C6     C     0.29236   0.18164   0.48092   0.00000  Uiso   1.00
C7     C     0.19014   0.32282   0.25201   0.00000  Uiso   1.00
C8     C     0.14312   0.01052   0.24814   0.00000  Uiso   1.00
C9     C     0.12835   0.16224   0.33306   0.00000  Uiso   1.00
C10    C     0.20493   0.17052   0.16663   0.00000  Uiso   1.00
C11    C     0.10535   0.15031   0.37980   0.00000  Uiso   1.00
C12    C     0.22774   0.17193   0.11820   0.00000  Uiso   1.00
C13    C     0.03769   0.08953   0.43477   0.00000  Uiso   1.00
C14    C     0.31424   0.18661   0.05323   0.00000  Uiso   1.00
C15    C     0.05155   0.11029   0.39322   0.00000  Uiso   1.00
C16    C     0.29268   0.18249   0.09873   0.00000  Uiso   1.00
C17    C     0.14464   0.17052   0.40894   0.00000  Uiso   1.00
C18    C     0.18446   0.16370   0.09106   0.00000  Uiso   1.00
C19    C     0.13746   0.14273   0.44718   0.00000  Uiso   1.00
C20    C     0.20629   0.15794   0.04493   0.00000  Uiso   1.00
C21    C     0.08036   0.10525   0.46179   0.00000  Uiso   1.00
C22    C     0.27126   0.17553   0.02624   0.00000  Uiso   1.00
C23    C     0.18398   0.15229   0.47228   0.00000  Uiso   1.00
C24    C     0.16497   0.13750   0.01685   0.00000  Uiso   1.00
Cu25   Cu    0.10737   0.16108   0.24516   0.00000  Uiso   1.00
Cu26   Cu    0.22596   0.17225   0.25484   0.00000  Uiso   1.00
H27    H     0.02381   0.05354   0.01333   0.00000  Uiso   1.00
H28    H     0.00908   0.19473   0.46666   0.00000  Uiso   1.00
H29    H     0.32681   0.18997   0.11883   0.00000  Uiso   1.00
H30    H     0.02098   0.09429   0.37122   0.00000  Uiso   1.00
H31    H     0.32814   0.05972   0.44511   0.00000  Uiso   1.00
H32    H     0.03119   0.19796   0.03909   0.00000  Uiso   1.00
H33    H     0.23534   0.01355   0.25562   0.00000  Uiso   1.00
H34    H     0.09791   0.31979   0.24454   0.00000  Uiso   1.00
N35    N     0.31506   0.18068   0.26212   0.00000  Uiso   1.00
N36    N     0.01827   0.15265   0.23788   0.00000  Uiso   1.00
O37    O     0.12815   0.23809   0.24686   0.00000  Uiso   1.00
O38    O     0.20518   0.09524   0.25314   0.00000  Uiso   1.00
O39    O     0.22829   0.24753   0.25503   0.00000  Uiso   1.00
O40    O     0.10504   0.08580   0.24498   0.00000  Uiso   1.00
O41    O     0.08851   0.15930   0.30854   0.00000  Uiso   1.00
O42    O     0.24482   0.17403   0.19146   0.00000  Uiso   1.00
O43    O     0.18866   0.16874   0.31671   0.00000  Uiso   1.00
O44    O     0.14468   0.16460   0.18329   0.00000  Uiso   1.00
O45    O     0.12255   0.16649   0.10979   0.00000  Uiso   1.00
H46    H     0.10532   0.17973   0.08779   0.00000  Uiso   1.00
O47    O     0.18671   0.21887   0.40239   0.00000  Uiso   1.00
H48    H     0.17697   0.23823   0.38007   0.00000  Uiso   1.00
O49    O     0.09625   0.07463   0.07038   0.00000  Uiso   1.00
H50    H     0.05490   0.04921   0.07513   0.00000  Uiso   1.00
O51    O     0.27181   0.17360   0.40854   0.00000  Uiso   1.00
H52    H     0.31723   0.19104   0.40143   0.00000  Uiso   1.00
O53    O     0.00507   0.21136   0.29322   0.00000  Uiso   1.00
H54    H     0.30420   0.22896   0.30895   0.00000  Uiso   1.00
O55    O     0.32823   0.12193   0.20682   0.00000  Uiso   1.00
H56    H     0.02906   0.10426   0.19113   0.00000  Uiso   1.00
C57    C     0.51509   0.26673   0.25137   0.00000  Uiso   1.00
C58    C     0.48488   0.06660   0.24869   0.00000  Uiso   1.00
C59    C     0.44129   0.09937   0.03098   0.00000  Uiso   1.00
C60    C     0.58280   0.17148   0.45367   0.00000  Uiso   1.00
C61    C     0.40019   0.08317   0.00287   0.00000  Uiso   1.00
C62    C     0.62569   0.18164   0.48092   0.00000  Uiso   1.00
C63    C     0.52347   0.32282   0.25201   0.00000  Uiso   1.00
C64    C     0.47645   0.01052   0.24814   0.00000  Uiso   1.00
C65    C     0.46168   0.16224   0.33306   0.00000  Uiso   1.00
C66    C     0.53827   0.17052   0.16663   0.00000  Uiso   1.00
C67    C     0.43868   0.15031   0.37980   0.00000  Uiso   1.00
C68    C     0.56107   0.17193   0.11820   0.00000  Uiso   1.00
C69    C     0.37102   0.08953   0.43477   0.00000  Uiso   1.00
C70    C     0.64758   0.18661   0.05323   0.00000  Uiso   1.00
C71    C     0.38488   0.11029   0.39322   0.00000  Uiso   1.00
C72    C     0.62601   0.18249   0.09873   0.00000  Uiso   1.00
C73    C     0.47797   0.17052   0.40894   0.00000  Uiso   1.00
C74    C     0.51779   0.16370   0.09106   0.00000  Uiso   1.00
C75    C     0.47079   0.14273   0.44718   0.00000  Uiso   1.00
C76    C     0.53962   0.15794   0.04493   0.00000  Uiso   1.00
C77    C     0.41370   0.10525   0.46179   0.00000  Uiso   1.00
C78    C     0.60459   0.17553   0.02624   0.00000  Uiso   1.00
C79    C     0.51732   0.15229   0.47228   0.00000  Uiso   1.00
C80    C     0.49831   0.13750   0.01685   0.00000  Uiso   1.00
Cu81   Cu    0.44071   0.16108   0.24516   0.00000  Uiso   1.00
Cu82   Cu    0.55929   0.17225   0.25484   0.00000  Uiso   1.00
H83    H     0.35714   0.05354   0.01333   0.00000  Uiso   1.00
H84    H     0.34241   0.19473   0.46666   0.00000  Uiso   1.00
H85    H     0.66014   0.18997   0.11883   0.00000  Uiso   1.00
H86    H     0.35431   0.09429   0.37122   0.00000  Uiso   1.00
H87    H     0.66147   0.05972   0.44511   0.00000  Uiso   1.00
H88    H     0.36452   0.19796   0.03909   0.00000  Uiso   1.00
H89    H     0.56867   0.01355   0.25562   0.00000  Uiso   1.00
H90    H     0.43125   0.31979   0.24454   0.00000  Uiso   1.00
N91    N     0.64839   0.18068   0.26212   0.00000  Uiso   1.00
N92    N     0.35161   0.15265   0.23788   0.00000  Uiso   1.00
O93    O     0.46148   0.23809   0.24686   0.00000  Uiso   1.00
O94    O     0.53852   0.09524   0.25314   0.00000  Uiso   1.00
O95    O     0.56163   0.24753   0.25503   0.00000  Uiso   1.00
O96    O     0.43837   0.08580   0.24498   0.00000  Uiso   1.00
O97    O     0.42185   0.15930   0.30854   0.00000  Uiso   1.00
O98    O     0.57815   0.17403   0.19146   0.00000  Uiso   1.00
O99    O     0.52199   0.16874   0.31671   0.00000  Uiso   1.00
O100   O     0.47801   0.16460   0.18329   0.00000  Uiso   1.00
O101   O     0.45588   0.16649   0.10979   0.00000  Uiso   1.00
H102   H     0.43865   0.17973   0.08779   0.00000  Uiso   1.00
O103   O     0.52005   0.21887   0.40239   0.00000  Uiso   1.00
H104   H     0.51031   0.23823   0.38007   0.00000  Uiso   1.00
O105   O     0.42958   0.07463   0.07038   0.00000  Uiso   1.00
H106   H     0.38823   0.04921   0.07513   0.00000  Uiso   1.00
O107   O     0.60514   0.17360   0.40854   0.00000  Uiso   1.00
H108   H     0.65056   0.19104   0.40143   0.00000  Uiso   1.00
O109   O     0.33841   0.21136   0.29322   0.00000  Uiso   1.00
H110   H     0.63753   0.22896   0.30895   0.00000  Uiso   1.00
O111   O     0.66156   0.12193   0.20682   0.00000  Uiso   1.00
H112   H     0.36240   0.10426   0.19113   0.00000  Uiso   1.00
C113   C     0.84842   0.26673   0.25137   0.00000  Uiso   1.00
C114   C     0.81821   0.06660   0.24869   0.00000  Uiso   1.00
C115   C     0.77462   0.09937   0.03098   0.00000  Uiso   1.00
C116   C     0.91613   0.17148   0.45367   0.00000  Uiso   1.00
C117   C     0.73353   0.08317   0.00287   0.00000  Uiso   1.00
C118   C     0.95902   0.18164   0.48092   0.00000  Uiso   1.00
C119   C     0.85680   0.32282   0.25201   0.00000  Uiso   1.00
C120   C     0.80979   0.01052   0.24814   0.00000  Uiso   1.00
C121   C     0.79501   0.16224   0.33306   0.00000  Uiso   1.00
C122   C     0.87160   0.17052   0.16663   0.00000  Uiso   1.00
C123   C     0.77202   0.15031   0.37980   0.00000  Uiso   1.00
C124   C     0.89440   0.17193   0.11820   0.00000  Uiso   1.00
C125   C     0.70435   0.08953   0.43477   0.00000  Uiso   1.00
C126   C     0.98091   0.18661   0.05323   0.00000  Uiso   1.00
C127   C     0.71822   0.11029   0.39322   0.00000  Uiso   1.00
C128   C     0.95934   0.18249   0.09873   0.00000  Uiso   1.00
C129   C     0.81130   0.17052   0.40894   0.00000  Uiso   1.00
C130   C     0.85112   0.16370   0.09106   0.00000  Uiso   1.00
C131   C     0.80412   0.14273   0.44718   0.00000  Uiso   1.00
C132   C     0.87296   0.15794   0.04493   0.00000  Uiso   1.00
C133   C     0.74703   0.10525   0.46179   0.00000  Uiso   1.00
C134   C     0.93792   0.17553   0.02624   0.00000  Uiso   1.00
C135   C     0.85065   0.15229   0.47228   0.00000  Uiso   1.00
C136   C     0.83164   0.13750   0.01685   0.00000  Uiso   1.00
Cu137  Cu    0.77404   0.16108   0.24516   0.00000  Uiso   1.00
Cu138  Cu    0.89263   0.17225   0.25484   0.00000  Uiso   1.00
H139   H     0.69047   0.05354   0.01333   0.00000  Uiso   1.00
H140   H     0.67574   0.19473   0.46666   0.00000  Uiso   1.00
H141   H     0.99348   0.18997   0.11883   0.00000  Uiso   1.00
H142   H     0.68765   0.09429   0.37122   0.00000  Uiso   1.00
H143   H     0.99480   0.05972   0.44511   0.00000  Uiso   1.00
H144   H     0.69786   0.19796   0.03909   0.00000  Uiso   1.00
H145   H     0.90201   0.01355   0.25562   0.00000  Uiso   1.00
H146   H     0.76458   0.31979   0.24454   0.00000  Uiso   1.00
N147   N     0.98173   0.18068   0.26212   0.00000  Uiso   1.00
N148   N     0.68494   0.15265   0.23788   0.00000  Uiso   1.00
O149   O     0.79482   0.23809   0.24686   0.00000  Uiso   1.00
O150   O     0.87185   0.09524   0.25314   0.00000  Uiso   1.00
O151   O     0.89496   0.24753   0.25503   0.00000  Uiso   1.00
O152   O     0.77171   0.08580   0.24498   0.00000  Uiso   1.00
O153   O     0.75518   0.15930   0.30854   0.00000  Uiso   1.00
O154   O     0.91149   0.17403   0.19146   0.00000  Uiso   1.00
O155   O     0.85532   0.16874   0.31671   0.00000  Uiso   1.00
O156   O     0.81134   0.16460   0.18329   0.00000  Uiso   1.00
O157   O     0.78921   0.16649   0.10979   0.00000  Uiso   1.00
H158   H     0.77199   0.17973   0.08779   0.00000  Uiso   1.00
O159   O     0.85338   0.21887   0.40239   0.00000  Uiso   1.00
H160   H     0.84364   0.23823   0.38007   0.00000  Uiso   1.00
O161   O     0.76292   0.07463   0.07038   0.00000  Uiso   1.00
H162   H     0.72156   0.04921   0.07513   0.00000  Uiso   1.00
O163   O     0.93848   0.17360   0.40854   0.00000  Uiso   1.00
H164   H     0.98389   0.19104   0.40143   0.00000  Uiso   1.00
O165   O     0.67174   0.21136   0.29322   0.00000  Uiso   1.00
H166   H     0.97086   0.22896   0.30895   0.00000  Uiso   1.00
O167   O     0.99489   0.12193   0.20682   0.00000  Uiso   1.00
H168   H     0.69573   0.10426   0.19113   0.00000  Uiso   1.00
C169   C     0.18175   0.60007   0.25137   0.00000  Uiso   1.00
C170   C     0.15155   0.39993   0.24869   0.00000  Uiso   1.00
C171   C     0.10795   0.43270   0.03098   0.00000  Uiso   1.00
C172   C     0.24947   0.50482   0.45367   0.00000  Uiso   1.00
C173   C     0.06686   0.41651   0.00287   0.00000  Uiso   1.00
C174   C     0.29236   0.51497   0.48092   0.00000  Uiso   1.00
C175   C     0.19014   0.65615   0.25201   0.00000  Uiso   1.00
C176   C     0.14312   0.34385   0.24814   0.00000  Uiso   1.00
C177   C     0.12835   0.49557   0.33306   0.00000  Uiso   1.00
C178   C     0.20493   0.50385   0.16663   0.00000  Uiso   1.00
C179   C     0.10535   0.48364   0.37980   0.00000  Uiso   1.00
C180   C     0.22774   0.50526   0.11820   0.00000  Uiso   1.00
C181   C     0.03769   0.42287   0.43477   0.00000  Uiso   1.00
C182   C     0.31424   0.51994   0.05323   0.00000  Uiso   1.00
C183   C     0.05155   0.44362   0.39322   0.00000  Uiso   1.00
C184   C     0.29268   0.51583   0.09873   0.00000  Uiso   1.00
C185   C     0.14464   0.50385   0.40894   0.00000  Uiso   1.00
C186   C     0.18446   0.49704   0.09106   0.00000  Uiso   1.00
C187   C     0.13746   0.47606   0.44718   0.00000  Uiso   1.00
C188   C     0.20629   0.49127   0.04493   0.00000  Uiso   1.00
C189   C     0.08036   0.43858   0.46179   0.00000  Uiso   1.00
C190   C     0.27126   0.50886   0.02624   0.00000  Uiso   1.00
C191   C     0.18398   0.48563   0.47228   0.00000  Uiso   1.00
C192   C     0.16497   0.47083   0.01685   0.00000  Uiso   1.00
Cu193  Cu    0.10737   0.49441   0.24516   0.00000  Uiso   1.00
Cu194  Cu    0.22596   0.50559   0.25484   0.00000  Uiso   1.00
H195   H     0.02381   0.38687   0.01333   0.00000  Uiso   1.00
H196   H     0.00908   0.52807   0.46666   0.00000  Uiso   1.00
H197   H     0.32681   0.52330   0.11883   0.00000  Uiso   1.00
H198   H     0.02098   0.42762   0.37122   0.00000  Uiso   1.00
H199   H     0.32814   0.39305   0.44511   0.00000  Uiso   1.00
H200   H     0.03119   0.53129   0.03909   0.00000  Uiso   1.00
H201   H     0.23534   0.34688   0.25562   0.00000  Uiso   1.00
H202   H     0.09791   0.65312   0.24454   0.00000  Uiso   1.00
N203   N     0.31506   0.51401   0.26212   0.00000  Uiso   1.00
N204   N     0.01827   0.48599   0.23788   0.00000  Uiso   1.00
O205   O     0.12815   0.57142   0.24686   0.00000  Uiso   1.00
O206   O     0.20518   0.42858   0.25314   0.00000  Uiso   1.00
O207   O     0.22829   0.58086   0.25503   0.00000  Uiso   1.00
O208   O     0.10504   0.41914   0.24498   0.00000  Uiso   1.00
O209   O     0.08851   0.49263   0.30854   0.00000  Uiso   1.00
O210   O     0.24482   0.50737   0.19146   0.00000  Uiso   1.00
O211   O     0.18866   0.50207   0.31671   0.00000  Uiso   1.00
O212   O     0.14468   0.49793   0.18329   0.00000  Uiso   1.00
O213   O     0.12255   0.49982   0.10979   0.00000  Uiso   1.00
H214   H     0.10532   0.51307   0.08779   0.00000  Uiso   1.00
O215   O     0.18671   0.55221   0.40239   0.00000  Uiso   1.00
H216   H     0.17697   0.57156   0.38007   0.00000  Uiso   1.00
O217   O     0.09625   0.40796   0.07038   0.00000  Uiso   1.00
H218   H     0.05490   0.38254   0.07513   0.00000  Uiso   1.00
O219   O     0.27181   0.50694   0.40854   0.00000  Uiso   1.00
H220   H     0.31723   0.52437   0.40143   0.00000  Uiso   1.00
O221   O     0.00507   0.54469   0.29322   0.00000  Uiso   1.00
H222   H     0.30420   0.56229   0.30895   0.00000  Uiso   1.00
O223   O     0.32823   0.45526   0.20682   0.00000  Uiso   1.00
H224   H     0.02906   0.43760   0.19113   0.00000  Uiso   1.00
C225   C     0.51509   0.60007   0.25137   0.00000  Uiso   1.00
C226   C     0.48488   0.39993   0.24869   0.00000  Uiso   1.00
C227   C     0.44129   0.43270   0.03098   0.00000  Uiso   1.00
C228   C     0.58280   0.50482   0.45367   0.00000  Uiso   1.00
C229   C     0.40019   0.41651   0.00287   0.00000  Uiso   1.00
C230   C     0.62569   0.51497   0.48092   0.00000  Uiso   1.00
C231   C     0.52347   0.65615   0.25201   0.00000  Uiso   1.00
C232   C     0.47645   0.34385   0.24814   0.00000  Uiso   1.00
C233   C     0.46168   0.49557   0.33306   0.00000  Uiso   1.00
C234   C     0.53827   0.50385   0.16663   0.00000  Uiso   1.00
C235   C     0.43868   0.48364   0.37980   0.00000  Uiso   1.00
C236   C     0.56107   0.50526   0.11820   0.00000  Uiso   1.00
C237   C     0.37102   0.42287   0.43477   0.00000  Uiso   1.00
C238   C     0.64758   0.51994   0.05323   0.00000  Uiso   1.00
C239   C     0.38488   0.44362   0.39322   0.00000  Uiso   1.00
C240   C     0.62601   0.51583   0.09873   0.00000  Uiso   1.00
C241   C     0.47797   0.50385   0.40894   0.00000  Uiso   1.00
C242   C     0.51779   0.49704   0.09106   0.00000  Uiso   1.00
C243   C     0.47079   0.47606   0.44718   0.00000  Uiso   1.00
C244   C     0.53962   0.49127   0.04493   0.00000  Uiso   1.00
C245   C     0.41370   0.43858   0.46179   0.00000  Uiso   1.00
C246   C     0.60459   0.50886   0.02624   0.00000  Uiso   1.00
C247   C     0.51732   0.48563   0.47228   0.00000  Uiso   1.00
C248   C     0.49831   0.47083   0.01685   0.00000  Uiso   1.00
Cu249  Cu    0.44071   0.49441   0.24516   0.00000  Uiso   1.00
Cu250  Cu    0.55929   0.50559   0.25484   0.00000  Uiso   1.00
H251   H     0.35714   0.38687   0.01333   0.00000  Uiso   1.00
H252   H     0.34241   0.52807   0.46666   0.00000  Uiso   1.00
H253   H     0.66014   0.52330   0.11883   0.00000  Uiso   1.00
H254   H     0.35431   0.42762   0.37122   0.00000  Uiso   1.00
H255   H     0.66147   0.39305   0.44511   0.00000  Uiso   1.00
H256   H     0.36452   0.53129   0.03909   0.00000  Uiso   1.00
H257   H     0.56867   0.34688   0.25562   0.00000  Uiso   1.00
H258   H     0.43125   0.65312   0.24454   0.00000  Uiso   1.00
N259   N     0.64839   0.51401   0.26212   0.00000  Uiso   1.00
N260   N     0.35161   0.48599   0.23788   0.00000  Uiso   1.00
O261   O     0.46148   0.57142   0.24686   0.00000  Uiso   1.00
O262   O     0.53852   0.42858   0.25314   0.00000  Uiso   1.00
O263   O     0.56163   0.58086   0.25503   0.00000  Uiso   1.00
O264   O     0.43837   0.41914   0.24498   0.00000  Uiso   1.00
O265   O     0.42185   0.49263   0.30854   0.00000  Uiso   1.00
O266   O     0.57815   0.50737   0.19146   0.00000  Uiso   1.00
O267   O     0.52199   0.50207   0.31671   0.00000  Uiso   1.00
O268   O     0.47801   0.49793   0.18329   0.00000  Uiso   1.00
O269   O     0.45588   0.49982   0.10979   0.00000  Uiso   1.00
H270   H     0.43865   0.51307   0.08779   0.00000  Uiso   1.00
O271   O     0.52005   0.55221   0.40239   0.00000  Uiso   1.00
H272   H     0.51031   0.57156   0.38007   0.00000  Uiso   1.00
O273   O     0.42958   0.40796   0.07038   0.00000  Uiso   1.00
H274   H     0.38823   0.38254   0.07513   0.00000  Uiso   1.00
O275   O     0.60514   0.50694   0.40854   0.00000  Uiso   1.00
H276   H     0.65056   0.52437   0.40143   0.00000  Uiso   1.00
O277   O     0.33841   0.54469   0.29322   0.00000  Uiso   1.00
H278   H     0.63753   0.56229   0.30895   0.00000  Uiso   1.00
O279   O     0.66156   0.45526   0.20682   0.00000  Uiso   1.00
H280   H     0.36240   0.43760   0.19113   0.00000  Uiso   1.00
C281   C     0.84842   0.60007   0.25137   0.00000  Uiso   1.00
C282   C     0.81821   0.39993   0.24869   0.00000  Uiso   1.00
C283   C     0.77462   0.43270   0.03098   0.00000  Uiso   1.00
C284   C     0.91613   0.50482   0.45367   0.00000  Uiso   1.00
C285   C     0.73353   0.41651   0.00287   0.00000  Uiso   1.00
C286   C     0.95902   0.51497   0.48092   0.00000  Uiso   1.00
C287   C     0.85680   0.65615   0.25201   0.00000  Uiso   1.00
C288   C     0.80979   0.34385   0.24814   0.00000  Uiso   1.00
C289   C     0.79501   0.49557   0.33306   0.00000  Uiso   1.00
C290   C     0.87160   0.50385   0.16663   0.00000  Uiso   1.00
C291   C     0.77202   0.48364   0.37980   0.00000  Uiso   1.00
C292   C     0.89440   0.50526   0.11820   0.00000  Uiso   1.00
C293   C     0.70435   0.42287   0.43477   0.00000  Uiso   1.00
C294   C     0.98091   0.51994   0.05323   0.00000  Uiso   1.00
C295   C     0.71822   0.44362   0.39322   0.00000  Uiso   1.00
C296   C     0.95934   0.51583   0.09873   0.00000  Uiso   1.00
C297   C     0.81130   0.50385   0.40894   0.00000  Uiso   1.00
C298   C     0.85112   0.49704   0.09106   0.00000  Uiso   1.00
C299   C     0.80412   0.47606   0.44718   0.00000  Uiso   1.00
C300   C     0.87296   0.49127   0.04493   0.00000  Uiso   1.00
C301   C     0.74703   0.43858   0.46179   0.00000  Uiso   1.00
C302   C     0.93792   0.50886   0.02624   0.00000  Uiso   1.00
C303   C     0.85065   0.48563   0.47228   0.00000  Uiso   1.00
C304   C     0.83164   0.47083   0.01685   0.00000  Uiso   1.00
Cu305  Cu    0.77404   0.49441   0.24516   0.00000  Uiso   1.00
Cu306  Cu    0.89263   0.50559   0.25484   0.00000  Uiso   1.00
H307   H     0.69047   0.38687   0.01333   0.00000  Uiso   1.00
H308   H     0.67574   0.52807   0.46666   0.00000  Uiso   1.00
H309   H     0.99348   0.52330   0.11883   0.00000  Uiso   1.00
H310   H     0.68765   0.42762   0.37122   0.00000  Uiso   1.00
H311   H     0.99480   0.39305   0.44511   0.00000  Uiso   1.00
H312   H     0.69786   0.53129   0.03909   0.00000  Uiso   1.00
H313   H     0.90201   0.34688   0.25562   0.00000  Uiso   1.00
H314   H     0.76458   0.65312   0.24454   0.00000  Uiso   1.00
N315   N     0.98173   0.51401   0.26212   0.00000  Uiso   1.00
N316   N     0.68494   0.48599   0.23788   0.00000  Uiso   1.00
O317   O     0.79482   0.57142   0.24686   0.00000  Uiso   1.00
O318   O     0.87185   0.42858   0.25314   0.00000  Uiso   1.00
O319   O     0.89496   0.58086   0.25503   0.00000  Uiso   1.00
O320   O     0.77171   0.41914   0.24498   0.00000  Uiso   1.00
O321   O     0.75518   0.49263   0.30854   0.00000  Uiso   1.00
O322   O     0.91149   0.50737   0.19146   0.00000  Uiso   1.00
O323   O     0.85532   0.50207   0.31671   0.00000  Uiso   1.00
O324   O     0.81134   0.49793   0.18329   0.00000  Uiso   1.00
O325   O     0.78921   0.49982   0.10979   0.00000  Uiso   1.00
H326   H     0.77199   0.51307   0.08779   0.00000  Uiso   1.00
O327   O     0.85338   0.55221   0.40239   0.00000  Uiso   1.00
H328   H     0.84364   0.57156   0.38007   0.00000  Uiso   1.00
O329   O     0.76292   0.40796   0.07038   0.00000  Uiso   1.00
H330   H     0.72156   0.38254   0.07513   0.00000  Uiso   1.00
O331   O     0.93848   0.50694   0.40854   0.00000  Uiso   1.00
H332   H     0.98389   0.52437   0.40143   0.00000  Uiso   1.00
O333   O     0.67174   0.54469   0.29322   0.00000  Uiso   1.00
H334   H     0.97086   0.56229   0.30895   0.00000  Uiso   1.00
O335   O     0.99489   0.45526   0.20682   0.00000  Uiso   1.00
H336   H     0.69573   0.43760   0.19113   0.00000  Uiso   1.00
C337   C     0.18175   0.93340   0.25137   0.00000  Uiso   1.00
C338   C     0.15155   0.73326   0.24869   0.00000  Uiso   1.00
C339   C     0.10795   0.76604   0.03098   0.00000  Uiso   1.00
C340   C     0.24947   0.83815   0.45367   0.00000  Uiso   1.00
C341   C     0.06686   0.74984   0.00287   0.00000  Uiso   1.00
C342   C     0.29236   0.84830   0.48092   0.00000  Uiso   1.00
C343   C     0.19014   0.98948   0.25201   0.00000  Uiso   1.00
C344   C     0.14312   0.67719   0.24814   0.00000  Uiso   1.00
C345   C     0.12835   0.82891   0.33306   0.00000  Uiso   1.00
C346   C     0.20493   0.83719   0.16663   0.00000  Uiso   1.00
C347   C     0.10535   0.81698   0.37980   0.00000  Uiso   1.00
C348   C     0.22774   0.83859   0.11820   0.00000  Uiso   1.00
C349   C     0.03769   0.75620   0.43477   0.00000  Uiso   1.00
C350   C     0.31424   0.85327   0.05323   0.00000  Uiso   1.00
C351   C     0.05155   0.77695   0.39322   0.00000  Uiso   1.00
C352   C     0.29268   0.84916   0.09873   0.00000  Uiso   1.00
C353   C     0.14464   0.83718   0.40894   0.00000  Uiso   1.00
C354   C     0.18446   0.83037   0.09106   0.00000  Uiso   1.00
C355   C     0.13746   0.80939   0.44718   0.00000  Uiso   1.00
C356   C     0.20629   0.82461   0.04493   0.00000  Uiso   1.00
C357   C     0.08036   0.77191   0.46179   0.00000  Uiso   1.00
C358   C     0.27126   0.84219   0.02624   0.00000  Uiso   1.00
C359   C     0.18398   0.81896   0.47228   0.00000  Uiso   1.00
C360   C     0.16497   0.80416   0.01685   0.00000  Uiso   1.00
Cu361  Cu    0.10737   0.82775   0.24516   0.00000  Uiso   1.00
Cu362  Cu    0.22596   0.83892   0.25484   0.00000  Uiso   1.00
H363   H     0.02381   0.72021   0.01333   0.00000  Uiso   1.00
H364   H     0.00908   0.86140   0.46666   0.00000  Uiso   1.00
H365   H     0.32681   0.85663   0.11883   0.00000  Uiso   1.00
H366   H     0.02098   0.76095   0.37122   0.00000  Uiso   1.00
H367   H     0.32814   0.72638   0.44511   0.00000  Uiso   1.00
H368   H     0.03119   0.86462   0.03909   0.00000  Uiso   1.00
H369   H     0.23534   0.68022   0.25562   0.00000  Uiso   1.00
H370   H     0.09791   0.98645   0.24454   0.00000  Uiso   1.00
N371   N     0.31506   0.84735   0.26212   0.00000  Uiso   1.00
N372   N     0.01827   0.81932   0.23788   0.00000  Uiso   1.00
O373   O     0.12815   0.90476   0.24686   0.00000  Uiso   1.00
O374   O     0.20518   0.76191   0.25314   0.00000  Uiso   1.00
O375   O     0.22829   0.91420   0.25503   0.00000  Uiso   1.00
O376   O     0.10504   0.75247   0.24498   0.00000  Uiso   1.00
O377   O     0.08851   0.82597   0.30854   0.00000  Uiso   1.00
O378   O     0.24482   0.84070   0.19146   0.00000  Uiso   1.00
O379   O     0.18866   0.83540   0.31671   0.00000  Uiso   1.00
O380   O     0.14468   0.83126   0.18329   0.00000  Uiso   1.00
O381   O     0.12255   0.83315   0.10979   0.00000  Uiso   1.00
H382   H     0.10532   0.84640   0.08779   0.00000  Uiso   1.00
O383   O     0.18671   0.88554   0.40239   0.00000  Uiso   1.00
H384   H     0.17697   0.90490   0.38007   0.00000  Uiso   1.00
O385   O     0.09625   0.74129   0.07038   0.00000  Uiso   1.00
H386   H     0.05490   0.71588   0.07513   0.00000  Uiso   1.00
O387   O     0.27181   0.84027   0.40854   0.00000  Uiso   1.00
H388   H     0.31723   0.85771   0.40143   0.00000  Uiso   1.00
O389   O     0.00507   0.87803   0.29322   0.00000  Uiso   1.00
H390   H     0.30420   0.89563   0.30895   0.00000  Uiso   1.00
O391   O     0.32823   0.78860   0.20682   0.00000  Uiso   1.00
H392   H     0.02906   0.77093   0.19113   0.00000  Uiso   1.00
C393   C     0.51509   0.93340   0.25137   0.00000  Uiso   1.00
C394   C     0.48488   0.73326   0.24869   0.00000  Uiso   1.00
C395   C     0.44129   0.76604   0.03098   0.00000  Uiso   1.00
C396   C     0.58280   0.83815   0.45367   0.00000  Uiso   1.00
C397   C     0.40019   0.74984   0.00287   0.00000  Uiso   1.00
C398   C     0.62569   0.84830   0.48092   0.00000  Uiso   1.00
C399   C     0.52347   0.98948   0.25201   0.00000  Uiso   1.00
C400   C     0.47645   0.67719   0.24814   0.00000  Uiso   1.00
C401   C     0.46168   0.82891   0.33306   0.00000  Uiso   1.00
C402   C     0.53827   0.83719   0.16663   0.00000  Uiso   1.00
C403   C     0.43868   0.81698   0.37980   0.00000  Uiso   1.00
C404   C     0.56107   0.83859   0.11820   0.00000  Uiso   1.00
C405   C     0.37102   0.75620   0.43477   0.00000  Uiso   1.00
C406   C     0.64758   0.85327   0.05323   0.00000  Uiso   1.00
C407   C     0.38488   0.77695   0.39322   0.00000  Uiso   1.00
C408   C     0.62601   0.84916   0.09873   0.00000  Uiso   1.00
C409   C     0.47797   0.83718   0.40894   0.00000  Uiso   1.00
C410   C     0.51779   0.83037   0.09106   0.00000  Uiso   1.00
C411   C     0.47079   0.80939   0.44718   0.00000  Uiso   1.00
C412   C     0.53962   0.82461   0.04493   0.00000  Uiso   1.00
C413   C     0.41370   0.77191   0.46179   0.00000  Uiso   1.00
C414   C     0.60459   0.84219   0.02624   0.00000  Uiso   1.00
C415   C     0.51732   0.81896   0.47228   0.00000  Uiso   1.00
C416   C     0.49831   0.80416   0.01685   0.00000  Uiso   1.00
Cu417  Cu    0.44071   0.82775   0.24516   0.00000  Uiso   1.00
Cu418  Cu    0.55929   0.83892   0.25484   0.00000  Uiso   1.00
H419   H     0.35714   0.72021   0.01333   0.00000  Uiso   1.00
H420   H     0.34241   0.86140   0.46666   0.00000  Uiso   1.00
H421   H     0.66014   0.85663   0.11883   0.00000  Uiso   1.00
H422   H     0.35431   0.76095   0.37122   0.00000  Uiso   1.00
H423   H     0.66147   0.72638   0.44511   0.00000  Uiso   1.00
H424   H     0.36452   0.86462   0.03909   0.00000  Uiso   1.00
H425   H     0.56867   0.68022   0.25562   0.00000  Uiso   1.00
H426   H     0.43125   0.98645   0.24454   0.00000  Uiso   1.00
N427   N     0.64839   0.84735   0.26212   0.00000  Uiso   1.00
N428   N     0.35161   0.81932   0.23788   0.00000  Uiso   1.00
O429   O     0.46148   0.90476   0.24686   0.00000  Uiso   1.00
O430   O     0.53852   0.76191   0.25314   0.00000  Uiso   1.00
O431   O     0.56163   0.91420   0.25503   0.00000  Uiso   1.00
O432   O     0.43837   0.75247   0.24498   0.00000  Uiso   1.00
O433   O     0.42185   0.82597   0.30854   0.00000  Uiso   1.00
O434   O     0.57815   0.84070   0.19146   0.00000  Uiso   1.00
O435   O     0.52199   0.83540   0.31671   0.00000  Uiso   1.00
O436   O     0.47801   0.83126   0.18329   0.00000  Uiso   1.00
O437   O     0.45588   0.83315   0.10979   0.00000  Uiso   1.00
H438   H     0.43865   0.84640   0.08779   0.00000  Uiso   1.00
O439   O     0.52005   0.88554   0.40239   0.00000  Uiso   1.00
H440   H     0.51031   0.90490   0.38007   0.00000  Uiso   1.00
O441   O     0.42958   0.74129   0.07038   0.00000  Uiso   1.00
H442   H     0.38823   0.71588   0.07513   0.00000  Uiso   1.00
O443   O     0.60514   0.84027   0.40854   0.00000  Uiso   1.00
H444   H     0.65056   0.85771   0.40143   0.00000  Uiso   1.00
O445   O     0.33841   0.87803   0.29322   0.00000  Uiso   1.00
H446   H     0.63753   0.89563   0.30895   0.00000  Uiso   1.00
O447   O     0.66156   0.78860   0.20682   0.00000  Uiso   1.00
H448   H     0.36240   0.77093   0.19113   0.00000  Uiso   1.00
C449   C     0.84842   0.93340   0.25137   0.00000  Uiso   1.00
C450   C     0.81821   0.73326   0.24869   0.00000  Uiso   1.00
C451   C     0.77462   0.76604   0.03098   0.00000  Uiso   1.00
C452   C     0.91613   0.83815   0.45367   0.00000  Uiso   1.00
C453   C     0.73353   0.74984   0.00287   0.00000  Uiso   1.00
C454   C     0.95902   0.84830   0.48092   0.00000  Uiso   1.00
C455   C     0.85680   0.98948   0.25201   0.00000  Uiso   1.00
C456   C     0.80979   0.67719   0.24814   0.00000  Uiso   1.00
C457   C     0.79501   0.82891   0.33306   0.00000  Uiso   1.00
C458   C     0.87160   0.83719   0.16663   0.00000  Uiso   1.00
C459   C     0.77202   0.81698   0.37980   0.00000  Uiso   1.00
C460   C     0.89440   0.83859   0.11820   0.00000  Uiso   1.00
C461   C     0.70435   0.75620   0.43477   0.00000  Uiso   1.00
C462   C     0.98091   0.85327   0.05323   0.00000  Uiso   1.00
C463   C     0.71822   0.77695   0.39322   0.00000  Uiso   1.00
C464   C     0.95934   0.84916   0.09873   0.00000  Uiso   1.00
C465   C     0.81130   0.83718   0.40894   0.00000  Uiso   1.00
C466   C     0.85112   0.83037   0.09106   0.00000  Uiso   1.00
C467   C     0.80412   0.80939   0.44718   0.00000  Uiso   1.00
C468   C     0.87296   0.82461   0.04493   0.00000  Uiso   1.00
C469   C     0.74703   0.77191   0.46179   0.00000  Uiso   1.00
C470   C     0.93792   0.84219   0.02624   0.00000  Uiso   1.00
C471   C     0.85065   0.81896   0.47228   0.00000  Uiso   1.00
C472   C     0.83164   0.80416   0.01685   0.00000  Uiso   1.00
Cu473  Cu    0.77404   0.82775   0.24516   0.00000  Uiso   1.00
Cu474  Cu    0.89263   0.83892   0.25484   0.00000  Uiso   1.00
H475   H     0.69047   0.72021   0.01333   0.00000  Uiso   1.00
H476   H     0.67574   0.86140   0.46666   0.00000  Uiso   1.00
H477   H     0.99348   0.85663   0.11883   0.00000  Uiso   1.00
H478   H     0.68765   0.76095   0.37122   0.00000  Uiso   1.00
H479   H     0.99480   0.72638   0.44511   0.00000  Uiso   1.00
H480   H     0.69786   0.86462   0.03909   0.00000  Uiso   1.00
H481   H     0.90201   0.68022   0.25562   0.00000  Uiso   1.00
H482   H     0.76458   0.98645   0.24454   0.00000  Uiso   1.00
N483   N     0.98173   0.84735   0.26212   0.00000  Uiso   1.00
N484   N     0.68494   0.81932   0.23788   0.00000  Uiso   1.00
O485   O     0.79482   0.90476   0.24686   0.00000  Uiso   1.00
O486   O     0.87185   0.76191   0.25314   0.00000  Uiso   1.00
O487   O     0.89496   0.91420   0.25503   0.00000  Uiso   1.00
O488   O     0.77171   0.75247   0.24498   0.00000  Uiso   1.00
O489   O     0.75518   0.82597   0.30854   0.00000  Uiso   1.00
O490   O     0.91149   0.84070   0.19146   0.00000  Uiso   1.00
O491   O     0.85532   0.83540   0.31671   0.00000  Uiso   1.00
O492   O     0.81134   0.83126   0.18329   0.00000  Uiso   1.00
O493   O     0.78921   0.83315   0.10979   0.00000  Uiso   1.00
H494   H     0.77199   0.84640   0.08779   0.00000  Uiso   1.00
O495   O     0.85338   0.88554   0.40239   0.00000  Uiso   1.00
H496   H     0.84364   0.90490   0.38007   0.00000  Uiso   1.00
O497   O     0.76292   0.74129   0.07038   0.00000  Uiso   1.00
H498   H     0.72156   0.71588   0.07513   0.00000  Uiso   1.00
O499   O     0.93848   0.84027   0.40854   0.00000  Uiso   1.00
H500   H     0.98389   0.85771   0.40143   0.00000  Uiso   1.00
O501   O     0.67174   0.87803   0.29322   0.00000  Uiso   1.00
H502   H     0.97086   0.89563   0.30895   0.00000  Uiso   1.00
O503   O     0.99489   0.78860   0.20682   0.00000  Uiso   1.00
H504   H     0.69573   0.77093   0.19113   0.00000  Uiso   1.00
C505   C     0.18175   0.26673   0.75137   0.00000  Uiso   1.00
C506   C     0.15155   0.06660   0.74869   0.00000  Uiso   1.00
C507   C     0.10795   0.09937   0.53098   0.00000  Uiso   1.00
C508   C     0.24947   0.17148   0.95367   0.00000  Uiso   1.00
C509   C     0.06686   0.08317   0.50287   0.00000  Uiso   1.00
C510   C     0.29236   0.18164   0.98092   0.00000  Uiso   1.00
C511   C     0.19014   0.32282   0.75201   0.00000  Uiso   1.00
C512   C     0.14312   0.01052   0.74814   0.00000  Uiso   1.00
C513   C     0.12835   0.16224   0.83306   0.00000  Uiso   1.00
C514   C     0.20493   0.17052   0.66663   0.00000  Uiso   1.00
C515   C     0.10535   0.15031   0.87980   0.00000  Uiso   1.00
C516   C     0.22774   0.17193   0.61820   0.00000  Uiso   1.00
C517   C     0.03769   0.08953   0.93477   0.00000  Uiso   1.00
C518   C     0.31424   0.18661   0.55323   0.00000  Uiso   1.00
C519   C     0.05155   0.11029   0.89322   0.00000  Uiso   1.00
C520   C     0.29268   0.18249   0.59873   0.00000  Uiso   1.00
C521   C     0.14464   0.17052   0.90894   0.00000  Uiso   1.00
C522   C     0.18446   0.16370   0.59106   0.00000  Uiso   1.00
C523   C     0.13746   0.14273   0.94718   0.00000  Uiso   1.00
C524   C     0.20629   0.15794   0.54493   0.00000  Uiso   1.00
C525   C     0.08036   0.10525   0.96179   0.00000  Uiso   1.00
C526   C     0.27126   0.17553   0.52624   0.00000  Uiso   1.00
C527   C     0.18398   0.15229   0.97228   0.00000  Uiso   1.00
C528   C     0.16497   0.13750   0.51685   0.00000  Uiso   1.00
Cu529  Cu    0.10737   0.16108   0.74516   0.00000  Uiso   1.00
Cu530  Cu    0.22596   0.17225   0.75484   0.00000  Uiso   1.00
H531   H     0.02381   0.05354   0.51333   0.00000  Uiso   1.00
H532   H     0.00908   0.19473   0.96666   0.00000  Uiso   1.00
H533   H     0.32681   0.18997   0.61883   0.00000  Uiso   1.00
H534   H     0.02098   0.09429   0.87122   0.00000  Uiso   1.00
H535   H     0.32814   0.05972   0.94511   0.00000  Uiso   1.00
H536   H     0.03119   0.19796   0.53909   0.00000  Uiso   1.00
H537   H     0.23534   0.01355   0.75562   0.00000  Uiso   1.00
H538   H     0.09791   0.31979   0.74454   0.00000  Uiso   1.00
N539   N     0.31506   0.18068   0.76212   0.00000  Uiso   1.00
N540   N     0.01827   0.15265   0.73788   0.00000  Uiso   1.00
O541   O     0.12815   0.23809   0.74686   0.00000  Uiso   1.00
O542   O     0.20518   0.09524   0.75314   0.00000  Uiso   1.00
O543   O     0.22829   0.24753   0.75503   0.00000  Uiso   1.00
O544   O     0.10504   0.08580   0.74498   0.00000  Uiso   1.00
O545   O     0.08851   0.15930   0.80854   0.00000  Uiso   1.00
O546   O     0.24482   0.17403   0.69146   0.00000  Uiso   1.00
O547   O     0.18866   0.16874   0.81671   0.00000  Uiso   1.00
O548   O     0.14468   0.16460   0.68329   0.00000  Uiso   1.00
O549   O     0.12255   0.16649   0.60979   0.00000  Uiso   1.00
H550   H     0.10532   0.17973   0.58779   0.00000  Uiso   1.00
O551   O     0.18671   0.21887   0.90239   0.00000  Uiso   1.00
H552   H     0.17697   0.23823   0.88007   0.00000  Uiso   1.00
O553   O     0.09625   0.07463   0.57038   0.00000  Uiso   1.00
H554   H     0.05490   0.04921   0.57513   0.00000  Uiso   1.00
O555   O     0.27181   0.17360   0.90854   0.00000  Uiso   1.00
H556   H     0.31723   0.19104   0.90143   0.00000  Uiso   1.00
O557   O     0.00507   0.21136   0.79322   0.00000  Uiso   1.00
H558   H     0.30420   0.22896   0.80895   0.00000  Uiso   1.00
O559   O     0.32823   0.12193   0.70682   0.00000  Uiso   1.00
H560   H     0.02906   0.10426   0.69113   0.00000  Uiso   1.00
C561   C     0.51509   0.26673   0.75137   0.00000  Uiso   1.00
C562   C     0.48488   0.06660   0.74869   0.00000  Uiso   1.00
C563   C     0.44129   0.09937   0.53098   0.00000  Uiso   1.00
C564   C     0.58280   0.17148   0.95367   0.00000  Uiso   1.00
C565   C     0.40019   0.08317   0.50287   0.00000  Uiso   1.00
C566   C     0.62569   0.18164   0.98092   0.00000  Uiso   1.00
C567   C     0.52347   0.32282   0.75201   0.00000  Uiso   1.00
C568   C     0.47645   0.01052   0.74814   0.00000  Uiso   1.00
C569   C     0.46168   0.16224   0.83306   0.00000  Uiso   1.00
C570   C     0.53827   0.17052   0.66663   0.00000  Uiso   1.00
C571   C     0.43868   0.15031   0.87980   0.00000  Uiso   1.00
C572   C     0.56107   0.17193   0.61820   0.00000  Uiso   1.00
C573   C     0.37102   0.08953   0.93477   0.00000  Uiso   1.00
C574   C     0.64758   0.18661   0.55323   0.00000  Uiso   1.00
C575   C     0.38488   0.11029   0.89322   0.00000  Uiso   1.00
C576   C     0.62601   0.18249   0.59873   0.00000  Uiso   1.00
C577   C     0.47797   0.17052   0.90894   0.00000  Uiso   1.00
C578   C     0.51779   0.16370   0.59106   0.00000  Uiso   1.00
C579   C     0.47079   0.14273   0.94718   0.00000  Uiso   1.00
C580   C     0.53962   0.15794   0.54493   0.00000  Uiso   1.00
C581   C     0.41370   0.10525   0.96179   0.00000  Uiso   1.00
C582   C     0.60459   0.17553   0.52624   0.00000  Uiso   1.00
C583   C     0.51732   0.15229   0.97228   0.00000  Uiso   1.00
C584   C     0.49831   0.13750   0.51685   0.00000  Uiso   1.00
Cu585  Cu    0.44071   0.16108   0.74516   0.00000  Uiso   1.00
Cu586  Cu    0.55929   0.17225   0.75484   0.00000  Uiso   1.00
H587   H     0.35714   0.05354   0.51333   0.00000  Uiso   1.00
H588   H     0.34241   0.19473   0.96666   0.00000  Uiso   1.00
H589   H     0.66014   0.18997   0.61883   0.00000  Uiso   1.00
H590   H     0.35431   0.09429   0.87122   0.00000  Uiso   1.00
H591   H     0.66147   0.05972   0.94511   0.00000  Uiso   1.00
H592   H     0.36452   0.19796   0.53909   0.00000  Uiso   1.00
H593   H     0.56867   0.01355   0.75562   0.00000  Uiso   1.00
H594   H     0.43125   0.31979   0.74454   0.00000  Uiso   1.00
N595   N     0.64839   0.18068   0.76212   0.00000  Uiso   1.00
N596   N     0.35161   0.15265   0.73788   0.00000  Uiso   1.00
O597   O     0.46148   0.23809   0.74686   0.00000  Uiso   1.00
O598   O     0.53852   0.09524   0.75314   0.00000  Uiso   1.00
O599   O     0.56163   0.24753   0.75503   0.00000  Uiso   1.00
O600   O     0.43837   0.08580   0.74498   0.00000  Uiso   1.00
O601   O     0.42185   0.15930   0.80854   0.00000  Uiso   1.00
O602   O     0.57815   0.17403   0.69146   0.00000  Uiso   1.00
O603   O     0.52199   0.16874   0.81671   0.00000  Uiso   1.00
O604   O     0.47801   0.16460   0.68329   0.00000  Uiso   1.00
O605   O     0.45588   0.16649   0.60979   0.00000  Uiso   1.00
H606   H     0.43865   0.17973   0.58779   0.00000  Uiso   1.00
O607   O     0.52005   0.21887   0.90239   0.00000  Uiso   1.00
H608   H     0.51031   0.23823   0.88007   0.00000  Uiso   1.00
O609   O     0.42958   0.07463   0.57038   0.00000  Uiso   1.00
H610   H     0.38823   0.04921   0.57513   0.00000  Uiso   1.00
O611   O     0.60514   0.17360   0.90854   0.00000  Uiso   1.00
H612   H     0.65056   0.19104   0.90143   0.00000  Uiso   1.00
O613   O     0.33841   0.21136   0.79322   0.00000  Uiso   1.00
H614   H     0.63753   0.22896   0.80895   0.00000  Uiso   1.00
O615   O     0.66156   0.12193   0.70682   0.00000  Uiso   1.00
H616   H     0.36240   0.10426   0.69113   0.00000  Uiso   1.00
C617   C     0.84842   0.26673   0.75137   0.00000  Uiso   1.00
C618   C     0.81821   0.06660   0.74869   0.00000  Uiso   1.00
C619   C     0.77462   0.09937   0.53098   0.00000  Uiso   1.00
C620   C     0.91613   0.17148   0.95367   0.00000  Uiso   1.00
C621   C     0.73353   0.08317   0.50287   0.00000  Uiso   1.00
C622   C     0.95902   0.18164   0.98092   0.00000  Uiso   1.00
C623   C     0.85680   0.32282   0.75201   0.00000  Uiso   1.00
C624   C     0.80979   0.01052   0.74814   0.00000  Uiso   1.00
C625   C     0.79501   0.16224   0.83306   0.00000  Uiso   1.00
C626   C     0.87160   0.17052   0.66663   0.00000  Uiso   1.00
C627   C     0.77202   0.15031   0.87980   0.00000  Uiso   1.00
C628   C     0.89440   0.17193   0.61820   0.00000  Uiso   1.00
C629   C     0.70435   0.08953   0.93477   0.00000  Uiso   1.00
C630   C     0.98091   0.18661   0.55323   0.00000  Uiso   1.00
C631   C     0.71822   0.11029   0.89322   0.00000  Uiso   1.00
C632   C     0.95934   0.18249   0.59873   0.00000  Uiso   1.00
C633   C     0.81130   0.17052   0.90894   0.00000  Uiso   1.00
C634   C     0.85112   0.16370   0.59106   0.00000  Uiso   1.00
C635   C     0.80412   0.14273   0.94718   0.00000  Uiso   1.00
C636   C     0.87296   0.15794   0.54493   0.00000  Uiso   1.00
C637   C     0.74703   0.10525   0.96179   0.00000  Uiso   1.00
C638   C     0.93792   0.17553   0.52624   0.00000  Uiso   1.00
C639   C     0.85065   0.15229   0.97228   0.00000  Uiso   1.00
C640   C     0.83164   0.13750   0.51685   0.00000  Uiso   1.00
Cu641  Cu    0.77404   0.16108   0.74516   0.00000  Uiso   1.00
Cu642  Cu    0.89263   0.17225   0.75484   0.00000  Uiso   1.00
H643   H     0.69047   0.05354   0.51333   0.00000  Uiso   1.00
H644   H     0.67574   0.19473   0.96666   0.00000  Uiso   1.00
H645   H     0.99348   0.18997   0.61883   0.00000  Uiso   1.00
H646   H     0.68765   0.09429   0.87122   0.00000  Uiso   1.00
H647   H     0.99480   0.05972   0.94511   0.00000  Uiso   1.00
H648   H     0.69786   0.19796   0.53909   0.00000  Uiso   1.00
H649   H     0.90201   0.01355   0.75562   0.00000  Uiso   1.00
H650   H     0.76458   0.31979   0.74454   0.00000  Uiso   1.00
N651   N     0.98173   0.18068   0.76212   0.00000  Uiso   1.00
N652   N     0.68494   0.15265   0.73788   0.00000  Uiso   1.00
O653   O     0.79482   0.23809   0.74686   0.00000  Uiso   1.00
O654   O     0.87185   0.09524   0.75314   0.00000  Uiso   1.00
O655   O     0.89496   0.24753   0.75503   0.00000  Uiso   1.00
O656   O     0.77171   0.08580   0.74498   0.00000  Uiso   1.00
O657   O     0.75518   0.15930   0.80854   0.00000  Uiso   1.00
O658   O     0.91149   0.17403   0.69146   0.00000  Uiso   1.00
O659   O     0.85532   0.16874   0.81671   0.00000  Uiso   1.00
O660   O     0.81134   0.16460   0.68329   0.00000  Uiso   1.00
O661   O     0.78921   0.16649   0.60979   0.00000  Uiso   1.00
H662   H     0.77199   0.17973   0.58779   0.00000  Uiso   1.00
O663   O     0.85338   0.21887   0.90239   0.00000  Uiso   1.00
H664   H     0.84364   0.23823   0.88007   0.00000  Uiso   1.00
O665   O     0.76292   0.07463   0.57038   0.00000  Uiso   1.00
H666   H     0.72156   0.04921   0.57513   0.00000  Uiso   1.00
O667   O     0.93848   0.17360   0.90854   0.00000  Uiso   1.00
H668   H     0.98389   0.19104   0.90143   0.00000  Uiso   1.00
O669   O     0.67174   0.21136   0.79322   0.00000  Uiso   1.00
H670   H     0.97086   0.22896   0.80895   0.00000  Uiso   1.00
O671   O     0.99489   0.12193   0.70682   0.00000  Uiso   1.00
H672   H     0.69573   0.10426   0.69113   0.00000  Uiso   1.00
C673   C     0.18175   0.60007   0.75137   0.00000  Uiso   1.00
C674   C     0.15155   0.39993   0.74869   0.00000  Uiso   1.00
C675   C     0.10795   0.43270   0.53098   0.00000  Uiso   1.00
C676   C     0.24947   0.50482   0.95367   0.00000  Uiso   1.00
C677   C     0.06686   0.41651   0.50287   0.00000  Uiso   1.00
C678   C     0.29236   0.51497   0.98092   0.00000  Uiso   1.00
C679   C     0.19014   0.65615   0.75201   0.00000  Uiso   1.00
C680   C     0.14312   0.34385   0.74814   0.00000  Uiso   1.00
C681   C     0.12835   0.49557   0.83306   0.00000  Uiso   1.00
C682   C     0.20493   0.50385   0.66663   0.00000  Uiso   1.00
C683   C     0.10535   0.48364   0.87980   0.00000  Uiso   1.00
C684   C     0.22774   0.50526   0.61820   0.00000  Uiso   1.00
C685   C     0.03769   0.42287   0.93477   0.00000  Uiso   1.00
C686   C     0.31424   0.51994   0.55323   0.00000  Uiso   1.00
C687   C     0.05155   0.44362   0.89322   0.00000  Uiso   1.00
C688   C     0.29268   0.51583   0.59873   0.00000  Uiso   1.00
C689   C     0.14464   0.50385   0.90894   0.00000  Uiso   1.00
C690   C     0.18446   0.49704   0.59106   0.00000  Uiso   1.00
C691   C     0.13746   0.47606   0.94718   0.00000  Uiso   1.00
C692   C     0.20629   0.49127   0.54493   0.00000  Uiso   1.00
C693   C     0.08036   0.43858   0.96179   0.00000  Uiso   1.00
C694   C     0.27126   0.50886   0.52624   0.00000  Uiso   1.00
C695   C     0.18398   0.48563   0.97228   0.00000  Uiso   1.00
C696   C     0.16497   0.47083   0.51685   0.00000  Uiso   1.00
Cu697  Cu    0.10737   0.49441   0.74516   0.00000  Uiso   1.00
Cu698  Cu    0.22596   0.50559   0.75484   0.00000  Uiso   1.00
H699   H     0.02381   0.38687   0.51333   0.00000  Uiso   1.00
H700   H     0.00908   0.52807   0.96666   0.00000  Uiso   1.00
H701   H     0.32681   0.52330   0.61883   0.00000  Uiso   1.00
H702   H     0.02098   0.42762   0.87122   0.00000  Uiso   1.00
H703   H     0.32814   0.39305   0.94511   0.00000  Uiso   1.00
H704   H     0.03119   0.53129   0.53909   0.00000  Uiso   1.00
H705   H     0.23534   0.34688   0.75562   0.00000  Uiso   1.00
H706   H     0.09791   0.65312   0.74454   0.00000  Uiso   1.00
N707   N     0.31506   0.51401   0.76212   0.00000  Uiso   1.00
N708   N     0.01827   0.48599   0.73788   0.00000  Uiso   1.00
O709   O     0.12815   0.57142   0.74686   0.00000  Uiso   1.00
O710   O     0.20518   0.42858   0.75314   0.00000  Uiso   1.00
O711   O     0.22829   0.58086   0.75503   0.00000  Uiso   1.00
O712   O     0.10504   0.41914   0.74498   0.00000  Uiso   1.00
O713   O     0.08851   0.49263   0.80854   0.00000  Uiso   1.00
O714   O     0.24482   0.50737   0.69146   0.00000  Uiso   1.00
O715   O     0.18866   0.50207   0.81671   0.00000  Uiso   1.00
O716   O     0.14468   0.49793   0.68329   0.00000  Uiso   1.00
O717   O     0.12255   0.49982   0.60979   0.00000  Uiso   1.00
H718   H     0.10532   0.51307   0.58779   0.00000  Uiso   1.00
O719   O     0.18671   0.55221   0.90239   0.00000  Uiso   1.00
H720   H     0.17697   0.57156   0.88007   0.00000  Uiso   1.00
O721   O     0.09625   0.40796   0.57038   0.00000  Uiso   1.00
H722   H     0.05490   0.38254   0.57513   0.00000  Uiso   1.00
O723   O     0.27181   0.50694   0.90854   0.00000  Uiso   1.00
H724   H     0.31723   0.52437   0.90143   0.00000  Uiso   1.00
O725   O     0.00507   0.54469   0.79322   0.00000  Uiso   1.00
H726   H     0.30420   0.56229   0.80895   0.00000  Uiso   1.00
O727   O     0.32823   0.45526   0.70682   0.00000  Uiso   1.00
H728   H     0.02906   0.43760   0.69113   0.00000  Uiso   1.00
C729   C     0.51509   0.60007   0.75137   0.00000  Uiso   1.00
C730   C     0.48488   0.39993   0.74869   0.00000  Uiso   1.00
C731   C     0.44129   0.43270   0.53098   0.00000  Uiso   1.00
C732   C     0.58280   0.50482   0.95367   0.00000  Uiso   1.00
C733   C     0.40019   0.41651   0.50287   0.00000  Uiso   1.00
C734   C     0.62569   0.51497   0.98092   0.00000  Uiso   1.00
C735   C     0.52347   0.65615   0.75201   0.00000  Uiso   1.00
C736   C     0.47645   0.34385   0.74814   0.00000  Uiso   1.00
C737   C     0.46168   0.49557   0.83306   0.00000  Uiso   1.00
C738   C     0.53827   0.50385   0.66663   0.00000  Uiso   1.00
C739   C     0.43868   0.48364   0.87980   0.00000  Uiso   1.00
C740   C     0.56107   0.50526   0.61820   0.00000  Uiso   1.00
C741   C     0.37102   0.42287   0.93477   0.00000  Uiso   1.00
C742   C     0.64758   0.51994   0.55323   0.00000  Uiso   1.00
C743   C     0.38488   0.44362   0.89322   0.00000  Uiso   1.00
C744   C     0.62601   0.51583   0.59873   0.00000  Uiso   1.00
C745   C     0.47797   0.50385   0.90894   0.00000  Uiso   1.00
C746   C     0.51779   0.49704   0.59106   0.00000  Uiso   1.00
C747   C     0.47079   0.47606   0.94718   0.00000  Uiso   1.00
C748   C     0.53962   0.49127   0.54493   0.00000  Uiso   1.00
C749   C     0.41370   0.43858   0.96179   0.00000  Uiso   1.00
C750   C     0.60459   0.50886   0.52624   0.00000  Uiso   1.00
C751   C     0.51732   0.48563   0.97228   0.00000  Uiso   1.00
C752   C     0.49831   0.47083   0.51685   0.00000  Uiso   1.00
Cu753  Cu    0.44071   0.49441   0.74516   0.00000  Uiso   1.00
Cu754  Cu    0.55929   0.50559   0.75484   0.00000  Uiso   1.00
H755   H     0.35714   0.38687   0.51333   0.00000  Uiso   1.00
H756   H     0.34241   0.52807   0.96666   0.00000  Uiso   1.00
H757   H     0.66014   0.52330   0.61883   0.00000  Uiso   1.00
H758   H     0.35431   0.42762   0.87122   0.00000  Uiso   1.00
H759   H     0.66147   0.39305   0.94511   0.00000  Uiso   1.00
H760   H     0.36452   0.53129   0.53909   0.00000  Uiso   1.00
H761   H     0.56867   0.34688   0.75562   0.00000  Uiso   1.00
H762   H     0.43125   0.65312   0.74454   0.00000  Uiso   1.00
N763   N     0.64839   0.51401   0.76212   0.00000  Uiso   1.00
N764   N     0.35161   0.48599   0.73788   0.00000  Uiso   1.00
O765   O     0.46148   0.57142   0.74686   0.00000  Uiso   1.00
O766   O     0.53852   0.42858   0.75314   0.00000  Uiso   1.00
O767   O     0.56163   0.58086   0.75503   0.00000  Uiso   1.00
O768   O     0.43837   0.41914   0.74498   0.00000  Uiso   1.00
O769   O     0.42185   0.49263   0.80854   0.00000  Uiso   1.00
O770   O     0.57815   0.50737   0.69146   0.00000  Uiso   1.00
O771   O     0.52199   0.50207   0.81671   0.00000  Uiso   1.00
O772   O     0.47801   0.49793   0.68329   0.00000  Uiso   1.00
O773   O     0.45588   0.49982   0.60979   0.00000  Uiso   1.00
H774   H     0.43865   0.51307   0.58779   0.00000  Uiso   1.00
O775   O     0.52005   0.55221   0.90239   0.00000  Uiso   1.00
H776   H     0.51031   0.57156   0.88007   0.00000  Uiso   1.00
O777   O     0.42958   0.40796   0.57038   0.00000  Uiso   1.00
H778   H     0.38823   0.38254   0.57513   0.00000  Uiso   1.00
O779   O     0.60514   0.50694   0.90854   0.00000  Uiso   1.00
H780   H     0.65056   0.52437   0.90143   0.00000  Uiso   1.00
O781   O     0.33841   0.54469   0.79322   0.00000  Uiso   1.00
H782   H     0.63753   0.56229   0.80895   0.00000  Uiso   1.00
O783   O     0.66156   0.45526   0.70682   0.00000  Uiso   1.00
H784   H     0.36240   0.43760   0.69113   0.00000  Uiso   1.00
C785   C     0.84842   0.60007   0.75137   0.00000  Uiso   1.00
C786   C     0.81821   0.39993   0.74869   0.00000  Uiso   1.00
C787   C     0.77462   0.43270   0.53098   0.00000  Uiso   1.00
C788   C     0.91613   0.50482   0.95367   0.00000  Uiso   1.00
C789   C     0.73353   0.41651   0.50287   0.00000  Uiso   1.00
C790   C     0.95902   0.51497   0.98092   0.00000  Uiso   1.00
C791   C     0.85680   0.65615   0.75201   0.00000  Uiso   1.00
C792   C     0.80979   0.34385   0.74814   0.00000  Uiso   1.00
C793   C     0.79501   0.49557   0.83306   0.00000  Uiso   1.00
C794   C     0.87160   0.50385   0.66663   0.00000  Uiso   1.00
C795   C     0.77202   0.48364   0.87980   0.00000  Uiso   1.00
C796   C     0.89440   0.50526   0.61820   0.00000  Uiso   1.00
C797   C     0.70435   0.42287   0.93477   0.00000  Uiso   1.00
C798   C     0.98091   0.51994   0.55323   0.00000  Uiso   1.00
C799   C     0.71822   0.44362   0.89322   0.00000  Uiso   1.00
C800   C     0.95934   0.51583   0.59873   0.00000  Uiso   1.00
C801   C     0.81130   0.50385   0.90894   0.00000  Uiso   1.00
C802   C     0.85112   0.49704   0.59106   0.00000  Uiso   1.00
C803   C     0.80412   0.47606   0.94718   0.00000  Uiso   1.00
C804   C     0.87296   0.49127   0.54493   0.00000  Uiso   1.00
C805   C     0.74703   0.43858   0.96179   0.00000  Uiso   1.00
C806   C     0.93792   0.50886   0.52624   0.00000  Uiso   1.00
C807   C     0.85065   0.48563   0.97228   0.00000  Uiso   1.00
C808   C     0.83164   0.47083   0.51685   0.00000  Uiso   1.00
Cu809  Cu    0.77404   0.49441   0.74516   0.00000  Uiso   1.00
Cu810  Cu    0.89263   0.50559   0.75484   0.00000  Uiso   1.00
H811   H     0.69047   0.38687   0.51333   0.00000  Uiso   1.00
H812   H     0.67574   0.52807   0.96666   0.00000  Uiso   1.00
H813   H     0.99348   0.52330   0.61883   0.00000  Uiso   1.00
H814   H     0.68765   0.42762   0.87122   0.00000  Uiso   1.00
H815   H     0.99480   0.39305   0.94511   0.00000  Uiso   1.00
H816   H     0.69786   0.53129   0.53909   0.00000  Uiso   1.00
H817   H     0.90201   0.34688   0.75562   0.00000  Uiso   1.00
H818   H     0.76458   0.65312   0.74454   0.00000  Uiso   1.00
N819   N     0.98173   0.51401   0.76212   0.00000  Uiso   1.00
N820   N     0.68494   0.48599   0.73788   0.00000  Uiso   1.00
O821   O     0.79482   0.57142   0.74686   0.00000  Uiso   1.00
O822   O     0.87185   0.42858   0.75314   0.00000  Uiso   1.00
O823   O     0.89496   0.58086   0.75503   0.00000  Uiso   1.00
O824   O     0.77171   0.41914   0.74498   0.00000  Uiso   1.00
O825   O     0.75518   0.49263   0.80854   0.00000  Uiso   1.00
O826   O     0.91149   0.50737   0.69146   0.00000  Uiso   1.00
O827   O     0.85532   0.50207   0.81671   0.00000  Uiso   1.00
O828   O     0.81134   0.49793   0.68329   0.00000  Uiso   1.00
O829   O     0.78921   0.49982   0.60979   0.00000  Uiso   1.00
H830   H     0.77199   0.51307   0.58779   0.00000  Uiso   1.00
O831   O     0.85338   0.55221   0.90239   0.00000  Uiso   1.00
H832   H     0.84364   0.57156   0.88007   0.00000  Uiso   1.00
O833   O     0.76292   0.40796   0.57038   0.00000  Uiso   1.00
H834   H     0.72156   0.38254   0.57513   0.00000  Uiso   1.00
O835   O     0.93848   0.50694   0.90854   0.00000  Uiso   1.00
H836   H     0.98389   0.52437   0.90143   0.00000  Uiso   1.00
O837   O     0.67174   0.54469   0.79322   0.00000  Uiso   1.00
H838   H     0.97086   0.56229   0.80895   0.00000  Uiso   1.00
O839   O     0.99489   0.45526   0.70682   0.00000  Uiso   1.00
H840   H     0.69573   0.43760   0.69113   0.00000  Uiso   1.00
C841   C     0.18175   0.93340   0.75137   0.00000  Uiso   1.00
C842   C     0.15155   0.73326   0.74869   0.00000  Uiso   1.00
C843   C     0.10795   0.76604   0.53098   0.00000  Uiso   1.00
C844   C     0.24947   0.83815   0.95367   0.00000  Uiso   1.00
C845   C     0.06686   0.74984   0.50287   0.00000  Uiso   1.00
C846   C     0.29236   0.84830   0.98092   0.00000  Uiso   1.00
C847   C     0.19014   0.98948   0.75201   0.00000  Uiso   1.00
C848   C     0.14312   0.67719   0.74814   0.00000  Uiso   1.00
C849   C     0.12835   0.82891   0.83306   0.00000  Uiso   1.00
C850   C     0.20493   0.83719   0.66663   0.00000  Uiso   1.00
C851   C     0.10535   0.81698   0.87980   0.00000  Uiso   1.00
C852   C     0.22774   0.83859   0.61820   0.00000  Uiso   1.00
C853   C     0.03769   0.75620   0.93477   0.00000  Uiso   1.00
C854   C     0.31424   0.85327   0.55323   0.00000  Uiso   1.00
C855   C     0.05155   0.77695   0.89322   0.00000  Uiso   1.00
C856   C     0.29268   0.84916   0.59873   0.00000  Uiso   1.00
C857   C     0.14464   0.83718   0.90894   0.00000  Uiso   1.00
C858   C     0.18446   0.83037   0.59106   0.00000  Uiso   1.00
C859   C     0.13746   0.80939   0.94718   0.00000  Uiso   1.00
C860   C     0.20629   0.82461   0.54493   0.00000  Uiso   1.00
C861   C     0.08036   0.77191   0.96179   0.00000  Uiso   1.00
C862   C     0.27126   0.84219   0.52624   0.00000  Uiso   1.00
C863   C     0.18398   0.81896   0.97228   0.00000  Uiso   1.00
C864   C     0.16497   0.80416   0.51685   0.00000  Uiso   1.00
Cu865  Cu    0.10737   0.82775   0.74516   0.00000  Uiso   1.00
Cu866  Cu    0.22596   0.83892   0.75484   0.00000  Uiso   1.00
H867   H     0.02381   0.72021   0.51333   0.00000  Uiso   1.00
H868   H     0.00908   0.86140   0.96666   0.00000  Uiso   1.00
H869   H     0.32681   0.85663   0.61883   0.00000  Uiso   1.00
H870   H     0.02098   0.76095   0.87122   0.00000  Uiso   1.00
H871   H     0.32814   0.72638   0.94511   0.00000  Uiso   1.00
H872   H     0.03119   0.86462   0.53909   0.00000  Uiso   1.00
H873   H     0.23534   0.68022   0.75562   0.00000  Uiso   1.00
H874   H     0.09791   0.98645   0.74454   0.00000  Uiso   1.00
N875   N     0.31506   0.84735   0.76212   0.00000  Uiso   1.00
N876   N     0.01827   0.81932   0.73788   0.00000  Uiso   1.00
O877   O     0.12815   0.90476   0.74686   0.00000  Uiso   1.00
O878   O     0.20518   0.76191   0.75314   0.00000  Uiso   1.00
O879   O     0.22829   0.91420   0.75503   0.00000  Uiso   1.00
O880   O     0.10504   0.75247   0.74498   0.00000  Uiso   1.00
O881   O     0.08851   0.82597   0.80854   0.00000  Uiso   1.00
O882   O     0.24482   0.84070   0.69146   0.00000  Uiso   1.00
O883   O     0.18866   0.83540   0.81671   0.00000  Uiso   1.00
O884   O     0.14468   0.83126   0.68329   0.00000  Uiso   1.00
O885   O     0.12255   0.83315   0.60979   0.00000  Uiso   1.00
H886   H     0.10532   0.84640   0.58779   0.00000  Uiso   1.00
O887   O     0.18671   0.88554   0.90239   0.00000  Uiso   1.00
H888   H     0.17697   0.90490   0.88007   0.00000  Uiso   1.00
O889   O     0.09625   0.74129   0.57038   0.00000  Uiso   1.00
H890   H     0.05490   0.71588   0.57513   0.00000  Uiso   1.00
O891   O     0.27181   0.84027   0.90854   0.00000  Uiso   1.00
H892   H     0.31723   0.85771   0.90143   0.00000  Uiso   1.00
O893   O     0.00507   0.87803   0.79322   0.00000  Uiso   1.00
H894   H     0.30420   0.89563   0.80895   0.00000  Uiso   1.00
O895   O     0.32823   0.78860   0.70682   0.00000  Uiso   1.00
H896   H     0.02906   0.77093   0.69113   0.00000  Uiso   1.00
C897   C     0.51509   0.93340   0.75137   0.00000  Uiso   1.00
C898   C     0.48488   0.73326   0.74869   0.00000  Uiso   1.00
C899   C     0.44129   0.76604   0.53098   0.00000  Uiso   1.00
C900   C     0.58280   0.83815   0.95367   0.00000  Uiso   1.00
C901   C     0.40019   0.74984   0.50287   0.00000  Uiso   1.00
C902   C     0.62569   0.84830   0.98092   0.00000  Uiso   1.00
C903   C     0.52347   0.98948   0.75201   0.00000  Uiso   1.00
C904   C     0.47645   0.67719   0.74814   0.00000  Uiso   1.00
C905   C     0.46168   0.82891   0.83306   0.00000  Uiso   1.00
C906   C     0.53827   0.83719   0.66663   0.00000  Uiso   1.00
C907   C     0.43868   0.81698   0.87980   0.00000  Uiso   1.00
C908   C     0.56107   0.83859   0.61820   0.00000  Uiso   1.00
C909   C     0.37102   0.75620   0.93477   0.00000  Uiso   1.00
C910   C     0.64758   0.85327   0.55323   0.00000  Uiso   1.00
C911   C     0.38488   0.77695   0.89322   0.00000  Uiso   1.00
C912   C     0.62601   0.84916   0.59873   0.00000  Uiso   1.00
C913   C     0.47797   0.83718   0.90894   0.00000  Uiso   1.00
C914   C     0.51779   0.83037   0.59106   0.00000  Uiso   1.00
C915   C     0.47079   0.80939   0.94718   0.00000  Uiso   1.00
C916   C     0.53962   0.82461   0.54493   0.00000  Uiso   1.00
C917   C     0.41370   0.77191   0.96179   0.00000  Uiso   1.00
C918   C     0.60459   0.84219   0.52624   0.00000  Uiso   1.00
C919   C     0.51732   0.81896   0.97228   0.00000  Uiso   1.00
C920   C     0.49831   0.80416   0.51685   0.00000  Uiso   1.00
Cu921  Cu    0.44071   0.82775   0.74516   0.00000  Uiso   1.00
Cu922  Cu    0.55929   0.83892   0.75484   0.00000  Uiso   1.00
H923   H     0.35714   0.72021   0.51333   0.00000  Uiso   1.00
H924   H     0.34241   0.86140   0.96666   0.00000  Uiso   1.00
H925   H     0.66014   0.85663   0.61883   0.00000  Uiso   1.00
H926   H     0.35431   0.76095   0.87122   0.00000  Uiso   1.00
H927   H     0.66147   0.72638   0.94511   0.00000  Uiso   1.00
H928   H     0.36452   0.86462   0.53909   0.00000  Uiso   1.00
H929   H     0.56867   0.68022   0.75562   0.00000  Uiso   1.00
H930   H     0.43125   0.98645   0.74454   0.00000  Uiso   1.00
N931   N     0.64839   0.84735   0.76212   0.00000  Uiso   1.00
N932   N     0.35161   0.81932   0.73788   0.00000  Uiso   1.00
O933   O     0.46148   0.90476   0.74686   0.00000  Uiso   1.00
O934   O     0.53852   0.76191   0.75314   0.00000  Uiso   1.00
O935   O     0.56163   0.91420   0.75503   0.00000  Uiso   1.00
O936   O     0.43837   0.75247   0.74498   0.00000  Uiso   1.00
O937   O     0.42185   0.82597   0.80854   0.00000  Uiso   1.00
O938   O     0.57815   0.84070   0.69146   0.00000  Uiso   1.00
O939   O     0.52199   0.83540   0.81671   0.00000  Uiso   1.00
O940   O     0.47801   0.83126   0.68329   0.00000  Uiso   1.00
O941   O     0.45588   0.83315   0.60979   0.00000  Uiso   1.00
H942   H     0.43865   0.84640   0.58779   0.00000  Uiso   1.00
O943   O     0.52005   0.88554   0.90239   0.00000  Uiso   1.00
H944   H     0.51031   0.90490   0.88007   0.00000  Uiso   1.00
O945   O     0.42958   0.74129   0.57038   0.00000  Uiso   1.00
H946   H     0.38823   0.71588   0.57513   0.00000  Uiso   1.00
O947   O     0.60514   0.84027   0.90854   0.00000  Uiso   1.00
H948   H     0.65056   0.85771   0.90143   0.00000  Uiso   1.00
O949   O     0.33841   0.87803   0.79322   0.00000  Uiso   1.00
H950   H     0.63753   0.89563   0.80895   0.00000  Uiso   1.00
O951   O     0.66156   0.78860   0.70682   0.00000  Uiso   1.00
H952   H     0.36240   0.77093   0.69113   0.00000  Uiso   1.00
C953   C     0.84842   0.93340   0.75137   0.00000  Uiso   1.00
C954   C     0.81821   0.73326   0.74869   0.00000  Uiso   1.00
C955   C     0.77462   0.76604   0.53098   0.00000  Uiso   1.00
C956   C     0.91613   0.83815   0.95367   0.00000  Uiso   1.00
C957   C     0.73353   0.74984   0.50287   0.00000  Uiso   1.00
C958   C     0.95902   0.84830   0.98092   0.00000  Uiso   1.00
C959   C     0.85680   0.98948   0.75201   0.00000  Uiso   1.00
C960   C     0.80979   0.67719   0.74814   0.00000  Uiso   1.00
C961   C     0.79501   0.82891   0.83306   0.00000  Uiso   1.00
C962   C     0.87160   0.83719   0.66663   0.00000  Uiso   1.00
C963   C     0.77202   0.81698   0.87980   0.00000  Uiso   1.00
C964   C     0.89440   0.83859   0.61820   0.00000  Uiso   1.00
C965   C     0.70435   0.75620   0.93477   0.00000  Uiso   1.00
C966   C     0.98091   0.85327   0.55323   0.00000  Uiso   1.00
C967   C     0.71822   0.77695   0.89322   0.00000  Uiso   1.00
C968   C     0.95934   0.84916   0.59873   0.00000  Uiso   1.00
C969   C     0.81130   0.83718   0.90894   0.00000  Uiso   1.00
C970   C     0.85112   0.83037   0.59106   0.00000  Uiso   1.00
C971   C     0.80412   0.80939   0.94718   0.00000  Uiso   1.00
C972   C     0.87296   0.82461   0.54493   0.00000  Uiso   1.00
C973   C     0.74703   0.77191   0.96179   0.00000  Uiso   1.00
C974   C     0.93792   0.84219   0.52624   0.00000  Uiso   1.00
C975   C     0.85065   0.81896   0.97228   0.00000  Uiso   1.00
C976   C     0.83164   0.80416   0.51685   0.00000  Uiso   1.00
Cu977  Cu    0.77404   0.82775   0.74516   0.00000  Uiso   1.00
Cu978  Cu    0.89263   0.83892   0.75484   0.00000  Uiso   1.00
H979   H     0.69047   0.72021   0.51333   0.00000  Uiso   1.00
H980   H     0.67574   0.86140   0.96666   0.00000  Uiso   1.00
H981   H     0.99348   0.85663   0.61883   0.00000  Uiso   1.00
H982   H     0.68765   0.76095   0.87122   0.00000  Uiso   1.00
H983   H     0.99480   0.72638   0.94511   0.00000  Uiso   1.00
H984   H     0.69786   0.86462   0.53909   0.00000  Uiso   1.00
H985   H     0.90201   0.68022   0.75562   0.00000  Uiso   1.00
H986   H     0.76458   0.98645   0.74454   0.00000  Uiso   1.00
N987   N     0.98173   0.84735   0.76212   0.00000  Uiso   1.00
N988   N     0.68494   0.81932   0.73788   0.00000  Uiso   1.00
O989   O     0.79482   0.90476   0.74686   0.00000  Uiso   1.00
O990   O     0.87185   0.76191   0.75314   0.00000  Uiso   1.00
O991   O     0.89496   0.91420   0.75503   0.00000  Uiso   1.00
O992   O     0.77171   0.75247   0.74498   0.00000  Uiso   1.00
O993   O     0.75518   0.82597   0.80854   0.00000  Uiso   1.00
O994   O     0.91149   0.84070   0.69146   0.00000  Uiso   1.00
O995   O     0.85532   0.83540   0.81671   0.00000  Uiso   1.00
O996   O     0.81134   0.83126   0.68329   0.00000  Uiso   1.00
O997   O     0.78921   0.83315   0.60979   0.00000  Uiso   1.00
H998   H     0.77199   0.84640   0.58779   0.00000  Uiso   1.00
O999   O     0.85338   0.88554   0.90239   0.00000  Uiso   1.00
H1000  H     0.84364   0.90490   0.88007   0.00000  Uiso   1.00
O1001  O     0.76292   0.74129   0.57038   0.00000  Uiso   1.00
H1002  H     0.72156   0.71588   0.57513   0.00000  Uiso   1.00
O1003  O     0.93848   0.84027   0.90854   0.00000  Uiso   1.00
H1004  H     0.98389   0.85771   0.90143   0.00000  Uiso   1.00
O1005  O     0.67174   0.87803   0.79322   0.00000  Uiso   1.00
H1006  H     0.97086   0.89563   0.80895   0.00000  Uiso   1.00
O1007  O     0.99489   0.78860   0.70682   0.00000  Uiso   1.00
H1008  H     0.69573   0.77093   0.69113   0.00000  Uiso   1.00
loop_
_geom_bond_atom_site_label_1
_geom_bond_atom_site_label_2
_geom_bond_distance
_geom_bond_site_symmetry_2
_ccdc_geom_bond_type
C1     O37     1.293   .     A
C1     C7      1.429   .     S
C1     O39     1.291   .     A
C2     O38     1.293   .     A
C2     O40     1.291   .     A
C2     C8      1.429   .     S
C3     O49     1.383   .     S
C3     C24     1.422   .     A
C3     C5      1.402   .     A
C4     O51     1.382   .     S
C4     C6      1.407   .     A
C4     C23     1.425   .     A
C5     H27     1.084   .     S
C5     C525    1.393   1_554 S
C6     C526    1.394   .     S
C6     H84     1.084   .     S
C7     C176    1.331   .     S
C7     H201    1.088   .     S
C8     C343    1.331   1_545 S
C8     H370    1.088   1_545 S
C9     C11     1.464   .     S
C9     O41     1.302   .     A
C9     O43     1.298   .     A
C10    O44     1.300   .     A
C10    C12     1.480   .     S
C10    O42     1.309   .     A
C11    C15     1.400   .     A
C11    C17     1.411   .     A
C12    C18     1.413   .     A
C12    C16     1.404   .     A
C13    C21     1.402   .     A
C13    C15     1.391   .     A
C13    H143    1.084   1_455 S
C14    C22     1.402   .     A
C14    C16     1.395   .     A
C14    H88     1.084   .     S
C15    H30     1.083   .     S
C16    H29     1.083   .     S
C17    C19     1.412   .     A
C17    O47     1.384   .     S
C18    C20     1.416   .     A
C18    O45     1.383   .     S
C19    C23     1.423   .     A
C19    C21     1.417   .     A
C20    C22     1.410   .     A
C20    C24     1.419   .     A
C21    C509    1.393   .     S
C22    C510    1.394   1_554 S
C23    C528    1.418   .     S
C24    C527    1.418   1_554 S
Cu25   O37     1.951   .     S
Cu25   O44     1.916   .     S
Cu25   O40     1.950   .     S
Cu25   O41     1.931   .     S
Cu25   N36     2.027   .     S
Cu25   Cu26    2.698   .     S
Cu26   O43     1.916   .     S
Cu26   O39     1.950   .     S
Cu26   N35     2.027   .     S
Cu26   O42     1.931   .     S
Cu26   O38     1.951   .     S
H28    C118    1.084   1_455 S
H31    C69     1.084   .     S
H32    C126    1.084   1_455 S
H33    C343    1.088   1_545 S
H34    C176    1.088   .     S
N35    N92     1.288   .     S
N35    O109    1.338   .     S
N36    N147    1.288   1_455 S
N36    O167    1.338   1_455 S
O45    H46     0.991   .     S
O47    H48     0.991   .     S
O49    H50     0.992   .     S
O51    H52     0.991   .     S
O53    N147    1.338   1_455 S
O53    H166    0.990   1_455 S
H54    O109    0.990   .     S
O55    N92     1.338   .     S
O55    H112    0.990   .     S
H56    O167    0.990   1_455 S
C57    O93     1.293   .     A
C57    C63     1.429   .     S
C57    O95     1.291   .     A
C58    O94     1.293   .     A
C58    O96     1.291   .     A
C58    C64     1.429   .     S
C59    O105    1.383   .     S
C59    C80     1.422   .     A
C59    C61     1.402   .     A
C60    O107    1.382   .     S
C60    C62     1.407   .     A
C60    C79     1.425   .     A
C61    H83     1.084   .     S
C61    C581    1.393   1_554 S
C62    C582    1.394   .     S
C62    H140    1.084   .     S
C63    C232    1.331   .     S
C63    H257    1.088   .     S
C64    C399    1.331   1_545 S
C64    H426    1.088   1_545 S
C65    C67     1.464   .     S
C65    O97     1.302   .     A
C65    O99     1.298   .     A
C66    O100    1.300   .     A
C66    C68     1.480   .     S
C66    O98     1.309   .     A
C67    C71     1.400   .     A
C67    C73     1.411   .     A
C68    C74     1.413   .     A
C68    C72     1.404   .     A
C69    C77     1.402   .     A
C69    C71     1.391   .     A
C70    C78     1.402   .     A
C70    C72     1.395   .     A
C70    H144    1.084   .     S
C71    H86     1.083   .     S
C72    H85     1.083   .     S
C73    C75     1.412   .     A
C73    O103    1.384   .     S
C74    C76     1.416   .     A
C74    O101    1.383   .     S
C75    C79     1.423   .     A
C75    C77     1.417   .     A
C76    C78     1.410   .     A
C76    C80     1.419   .     A
C77    C565    1.393   .     S
C78    C566    1.394   1_554 S
C79    C584    1.418   .     S
C80    C583    1.418   1_554 S
Cu81   O93     1.951   .     S
Cu81   O100    1.916   .     S
Cu81   O96     1.950   .     S
Cu81   O97     1.931   .     S
Cu81   N92     2.027   .     S
Cu81   Cu82    2.698   .     S
Cu82   O99     1.916   .     S
Cu82   O95     1.950   .     S
Cu82   N91     2.027   .     S
Cu82   O98     1.931   .     S
Cu82   O94     1.951   .     S
H87    C125    1.084   .     S
H89    C399    1.088   1_545 S
H90    C232    1.088   .     S
N91    N148    1.288   .     S
N91    O165    1.338   .     S
O101   H102    0.991   .     S
O103   H104    0.991   .     S
O105   H106    0.992   .     S
O107   H108    0.991   .     S
H110   O165    0.990   .     S
O111   N148    1.338   .     S
O111   H168    0.990   .     S
C113   O149    1.293   .     A
C113   C119    1.429   .     S
C113   O151    1.291   .     A
C114   O150    1.293   .     A
C114   O152    1.291   .     A
C114   C120    1.429   .     S
C115   O161    1.383   .     S
C115   C136    1.422   .     A
C115   C117    1.402   .     A
C116   O163    1.382   .     S
C116   C118    1.407   .     A
C116   C135    1.425   .     A
C117   H139    1.084   .     S
C117   C637    1.393   1_554 S
C118   C638    1.394   .     S
C118   H28     1.084   1_655 S
C119   C288    1.331   .     S
C119   H313    1.088   .     S
C120   C455    1.331   1_545 S
C120   H482    1.088   1_545 S
C121   C123    1.464   .     S
C121   O153    1.302   .     A
C121   O155    1.298   .     A
C122   O156    1.300   .     A
C122   C124    1.480   .     S
C122   O154    1.309   .     A
C123   C127    1.400   .     A
C123   C129    1.411   .     A
C124   C130    1.413   .     A
C124   C128    1.404   .     A
C125   C133    1.402   .     A
C125   C127    1.391   .     A
C126   C134    1.402   .     A
C126   C128    1.395   .     A
C126   H32     1.084   1_655 S
C127   H142    1.083   .     S
C128   H141    1.083   .     S
C129   C131    1.412   .     A
C129   O159    1.384   .     S
C130   C132    1.416   .     A
C130   O157    1.383   .     S
C131   C135    1.423   .     A
C131   C133    1.417   .     A
C132   C134    1.410   .     A
C132   C136    1.419   .     A
C133   C621    1.393   .     S
C134   C622    1.394   1_554 S
C135   C640    1.418   .     S
C136   C639    1.418   1_554 S
Cu137  O149    1.951   .     S
Cu137  O156    1.916   .     S
Cu137  O152    1.950   .     S
Cu137  O153    1.931   .     S
Cu137  N148    2.027   .     S
Cu137  Cu138   2.698   .     S
Cu138  O155    1.916   .     S
Cu138  O151    1.950   .     S
Cu138  N147    2.027   .     S
Cu138  O154    1.931   .     S
Cu138  O150    1.951   .     S
H143   C13     1.084   1_655 S
H145   C455    1.088   1_545 S
H146   C288    1.088   .     S
N147   N36     1.288   1_655 S
N147   O53     1.338   1_655 S
O157   H158    0.991   .     S
O159   H160    0.991   .     S
O161   H162    0.992   .     S
O163   H164    0.991   .     S
H166   O53     0.990   1_655 S
O167   N36     1.338   1_655 S
O167   H56     0.990   1_655 S
C169   O205    1.293   .     A
C169   C175    1.429   .     S
C169   O207    1.291   .     A
C170   O206    1.293   .     A
C170   O208    1.291   .     A
C170   C176    1.429   .     S
C171   O217    1.383   .     S
C171   C192    1.422   .     A
C171   C173    1.402   .     A
C172   O219    1.382   .     S
C172   C174    1.407   .     A
C172   C191    1.425   .     A
C173   H195    1.084   .     S
C173   C693    1.393   1_554 S
C174   C694    1.394   .     S
C174   H252    1.084   .     S
C175   C344    1.331   .     S
C175   H369    1.088   .     S
C177   C179    1.464   .     S
C177   O209    1.302   .     A
C177   O211    1.298   .     A
C178   O212    1.300   .     A
C178   C180    1.480   .     S
C178   O210    1.309   .     A
C179   C183    1.400   .     A
C179   C185    1.411   .     A
C180   C186    1.413   .     A
C180   C184    1.404   .     A
C181   C189    1.402   .     A
C181   C183    1.391   .     A
C181   H311    1.084   1_455 S
C182   C190    1.402   .     A
C182   C184    1.395   .     A
C182   H256    1.084   .     S
C183   H198    1.083   .     S
C184   H197    1.083   .     S
C185   C187    1.412   .     A
C185   O215    1.384   .     S
C186   C188    1.416   .     A
C186   O213    1.383   .     S
C187   C191    1.423   .     A
C187   C189    1.417   .     A
C188   C190    1.410   .     A
C188   C192    1.419   .     A
C189   C677    1.393   .     S
C190   C678    1.394   1_554 S
C191   C696    1.418   .     S
C192   C695    1.418   1_554 S
Cu193  O205    1.951   .     S
Cu193  O212    1.916   .     S
Cu193  O208    1.950   .     S
Cu193  O209    1.931   .     S
Cu193  N204    2.027   .     S
Cu193  Cu194   2.698   .     S
Cu194  O211    1.916   .     S
Cu194  O207    1.950   .     S
Cu194  N203    2.027   .     S
Cu194  O210    1.931   .     S
Cu194  O206    1.951   .     S
H196   C286    1.084   1_455 S
H199   C237    1.084   .     S
H200   C294    1.084   1_455 S
H202   C344    1.088   .     S
N203   N260    1.288   .     S
N203   O277    1.338   .     S
N204   N315    1.288   1_455 S
N204   O335    1.338   1_455 S
O213   H214    0.991   .     S
O215   H216    0.991   .     S
O217   H218    0.992   .     S
O219   H220    0.991   .     S
O221   N315    1.338   1_455 S
O221   H334    0.990   1_455 S
H222   O277    0.990   .     S
O223   N260    1.338   .     S
O223   H280    0.990   .     S
H224   O335    0.990   1_455 S
C225   O261    1.293   .     A
C225   C231    1.429   .     S
C225   O263    1.291   .     A
C226   O262    1.293   .     A
C226   O264    1.291   .     A
C226   C232    1.429   .     S
C227   O273    1.383   .     S
C227   C248    1.422   .     A
C227   C229    1.402   .     A
C228   O275    1.382   .     S
C228   C230    1.407   .     A
C228   C247    1.425   .     A
C229   H251    1.084   .     S
C229   C749    1.393   1_554 S
C230   C750    1.394   .     S
C230   H308    1.084   .     S
C231   C400    1.331   .     S
C231   H425    1.088   .     S
C233   C235    1.464   .     S
C233   O265    1.302   .     A
C233   O267    1.298   .     A
C234   O268    1.300   .     A
C234   C236    1.480   .     S
C234   O266    1.309   .     A
C235   C239    1.400   .     A
C235   C241    1.411   .     A
C236   C242    1.413   .     A
C236   C240    1.404   .     A
C237   C245    1.402   .     A
C237   C239    1.391   .     A
C238   C246    1.402   .     A
C238   C240    1.395   .     A
C238   H312    1.084   .     S
C239   H254    1.083   .     S
C240   H253    1.083   .     S
C241   C243    1.412   .     A
C241   O271    1.384   .     S
C242   C244    1.416   .     A
C242   O269    1.383   .     S
C243   C247    1.423   .     A
C243   C245    1.417   .     A
C244   C246    1.410   .     A
C244   C248    1.419   .     A
C245   C733    1.393   .     S
C246   C734    1.394   1_554 S
C247   C752    1.418   .     S
C248   C751    1.418   1_554 S
Cu249  O261    1.951   .     S
Cu249  O268    1.916   .     S
Cu249  O264    1.950   .     S
Cu249  O265    1.931   .     S
Cu249  N260    2.027   .     S
Cu249  Cu250   2.698   .     S
Cu250  O267    1.916   .     S
Cu250  O263    1.950   .     S
Cu250  N259    2.027   .     S
Cu250  O266    1.931   .     S
Cu250  O262    1.951   .     S
H255   C293    1.084   .     S
H258   C400    1.088   .     S
N259   N316    1.288   .     S
N259   O333    1.338   .     S
O269   H270    0.991   .     S
O271   H272    0.991   .     S
O273   H274    0.992   .     S
O275   H276    0.991   .     S
H278   O333    0.990   .     S
O279   N316    1.338   .     S
O279   H336    0.990   .     S
C281   O317    1.293   .     A
C281   C287    1.429   .     S
C281   O319    1.291   .     A
C282   O318    1.293   .     A
C282   O320    1.291   .     A
C282   C288    1.429   .     S
C283   O329    1.383   .     S
C283   C304    1.422   .     A
C283   C285    1.402   .     A
C284   O331    1.382   .     S
C284   C286    1.407   .     A
C284   C303    1.425   .     A
C285   H307    1.084   .     S
C285   C805    1.393   1_554 S
C286   C806    1.394   .     S
C286   H196    1.084   1_655 S
C287   C456    1.331   .     S
C287   H481    1.088   .     S
C289   C291    1.464   .     S
C289   O321    1.302   .     A
C289   O323    1.298   .     A
C290   O324    1.300   .     A
C290   C292    1.480   .     S
C290   O322    1.309   .     A
C291   C295    1.400   .     A
C291   C297    1.411   .     A
C292   C298    1.413   .     A
C292   C296    1.404   .     A
C293   C301    1.402   .     A
C293   C295    1.391   .     A
C294   C302    1.402   .     A
C294   C296    1.395   .     A
C294   H200    1.084   1_655 S
C295   H310    1.083   .     S
C296   H309    1.083   .     S
C297   C299    1.412   .     A
C297   O327    1.384   .     S
C298   C300    1.416   .     A
C298   O325    1.383   .     S
C299   C303    1.423   .     A
C299   C301    1.417   .     A
C300   C302    1.410   .     A
C300   C304    1.419   .     A
C301   C789    1.393   .     S
C302   C790    1.394   1_554 S
C303   C808    1.418   .     S
C304   C807    1.418   1_554 S
Cu305  O317    1.951   .     S
Cu305  O324    1.916   .     S
Cu305  O320    1.950   .     S
Cu305  O321    1.931   .     S
Cu305  N316    2.027   .     S
Cu305  Cu306   2.698   .     S
Cu306  O323    1.916   .     S
Cu306  O319    1.950   .     S
Cu306  N315    2.027   .     S
Cu306  O322    1.931   .     S
Cu306  O318    1.951   .     S
H311   C181    1.084   1_655 S
H314   C456    1.088   .     S
N315   N204    1.288   1_655 S
N315   O221    1.338   1_655 S
O325   H326    0.991   .     S
O327   H328    0.991   .     S
O329   H330    0.992   .     S
O331   H332    0.991   .     S
H334   O221    0.990   1_655 S
O335   N204    1.338   1_655 S
O335   H224    0.990   1_655 S
C337   O373    1.293   .     A
C337   C343    1.429   .     S
C337   O375    1.291   .     A
C338   O374    1.293   .     A
C338   O376    1.291   .     A
C338   C344    1.429   .     S
C339   O385    1.383   .     S
C339   C360    1.422   .     A
C339   C341    1.402   .     A
C340   O387    1.382   .     S
C340   C342    1.407   .     A
C340   C359    1.425   .     A
C341   H363    1.084   .     S
C341   C861    1.393   1_554 S
C342   C862    1.394   .     S
C342   H420    1.084   .     S
C343   C8      1.331   1_565 S
C343   H33     1.088   1_565 S
C345   C347    1.464   .     S
C345   O377    1.302   .     A
C345   O379    1.298   .     A
C346   O380    1.300   .     A
C346   C348    1.480   .     S
C346   O378    1.309   .     A
C347   C351    1.400   .     A
C347   C353    1.411   .     A
C348   C354    1.413   .     A
C348   C352    1.404   .     A
C349   C357    1.402   .     A
C349   C351    1.391   .     A
C349   H479    1.084   1_455 S
C350   C358    1.402   .     A
C350   C352    1.395   .     A
C350   H424    1.084   .     S
C351   H366    1.083   .     S
C352   H365    1.083   .     S
C353   C355    1.412   .     A
C353   O383    1.384   .     S
C354   C356    1.416   .     A
C354   O381    1.383   .     S
C355   C359    1.423   .     A
C355   C357    1.417   .     A
C356   C358    1.410   .     A
C356   C360    1.419   .     A
C357   C845    1.393   .     S
C358   C846    1.394   1_554 S
C359   C864    1.418   .     S
C360   C863    1.418   1_554 S
Cu361  O373    1.951   .     S
Cu361  O380    1.916   .     S
Cu361  O376    1.950   .     S
Cu361  O377    1.931   .     S
Cu361  N372    2.027   .     S
Cu361  Cu362   2.698   .     S
Cu362  O379    1.916   .     S
Cu362  O375    1.950   .     S
Cu362  N371    2.027   .     S
Cu362  O378    1.931   .     S
Cu362  O374    1.951   .     S
H364   C454    1.084   1_455 S
H367   C405    1.084   .     S
H368   C462    1.084   1_455 S
H370   C8      1.088   1_565 S
N371   N428    1.288   .     S
N371   O445    1.338   .     S
N372   N483    1.288   1_455 S
N372   O503    1.338   1_455 S
O381   H382    0.991   .     S
O383   H384    0.991   .     S
O385   H386    0.992   .     S
O387   H388    0.991   .     S
O389   N483    1.338   1_455 S
O389   H502    0.990   1_455 S
H390   O445    0.990   .     S
O391   N428    1.338   .     S
O391   H448    0.990   .     S
H392   O503    0.990   1_455 S
C393   O429    1.293   .     A
C393   C399    1.429   .     S
C393   O431    1.291   .     A
C394   O430    1.293   .     A
C394   O432    1.291   .     A
C394   C400    1.429   .     S
C395   O441    1.383   .     S
C395   C416    1.422   .     A
C395   C397    1.402   .     A
C396   O443    1.382   .     S
C396   C398    1.407   .     A
C396   C415    1.425   .     A
C397   H419    1.084   .     S
C397   C917    1.393   1_554 S
C398   C918    1.394   .     S
C398   H476    1.084   .     S
C399   C64     1.331   1_565 S
C399   H89     1.088   1_565 S
C401   C403    1.464   .     S
C401   O433    1.302   .     A
C401   O435    1.298   .     A
C402   O436    1.300   .     A
C402   C404    1.480   .     S
C402   O434    1.309   .     A
C403   C407    1.400   .     A
C403   C409    1.411   .     A
C404   C410    1.413   .     A
C404   C408    1.404   .     A
C405   C413    1.402   .     A
C405   C407    1.391   .     A
C406   C414    1.402   .     A
C406   C408    1.395   .     A
C406   H480    1.084   .     S
C407   H422    1.083   .     S
C408   H421    1.083   .     S
C409   C411    1.412   .     A
C409   O439    1.384   .     S
C410   C412    1.416   .     A
C410   O437    1.383   .     S
C411   C415    1.423   .     A
C411   C413    1.417   .     A
C412   C414    1.410   .     A
C412   C416    1.419   .     A
C413   C901    1.393   .     S
C414   C902    1.394   1_554 S
C415   C920    1.418   .     S
C416   C919    1.418   1_554 S
Cu417  O429    1.951   .     S
Cu417  O436    1.916   .     S
Cu417  O432    1.950   .     S
Cu417  O433    1.931   .     S
Cu417  N428    2.027   .     S
Cu417  Cu418   2.698   .     S
Cu418  O435    1.916   .     S
Cu418  O431    1.950   .     S
Cu418  N427    2.027   .     S
Cu418  O434    1.931   .     S
Cu418  O430    1.951   .     S
H423   C461    1.084   .     S
H426   C64     1.088   1_565 S
N427   N484    1.288   .     S
N427   O501    1.338   .     S
O437   H438    0.991   .     S
O439   H440    0.991   .     S
O441   H442    0.992   .     S
O443   H444    0.991   .     S
H446   O501    0.990   .     S
O447   N484    1.338   .     S
O447   H504    0.990   .     S
C449   O485    1.293   .     A
C449   C455    1.429   .     S
C449   O487    1.291   .     A
C450   O486    1.293   .     A
C450   O488    1.291   .     A
C450   C456    1.429   .     S
C451   O497    1.383   .     S
C451   C472    1.422   .     A
C451   C453    1.402   .     A
C452   O499    1.382   .     S
C452   C454    1.407   .     A
C452   C471    1.425   .     A
C453   H475    1.084   .     S
C453   C973    1.393   1_554 S
C454   C974    1.394   .     S
C454   H364    1.084   1_655 S
C455   C120    1.331   1_565 S
C455   H145    1.088   1_565 S
C457   C459    1.464   .     S
C457   O489    1.302   .     A
C457   O491    1.298   .     A
C458   O492    1.300   .     A
C458   C460    1.480   .     S
C458   O490    1.309   .     A
C459   C463    1.400   .     A
C459   C465    1.411   .     A
C460   C466    1.413   .     A
C460   C464    1.404   .     A
C461   C469    1.402   .     A
C461   C463    1.391   .     A
C462   C470    1.402   .     A
C462   C464    1.395   .     A
C462   H368    1.084   1_655 S
C463   H478    1.083   .     S
C464   H477    1.083   .     S
C465   C467    1.412   .     A
C465   O495    1.384   .     S
C466   C468    1.416   .     A
C466   O493    1.383   .     S
C467   C471    1.423   .     A
C467   C469    1.417   .     A
C468   C470    1.410   .     A
C468   C472    1.419   .     A
C469   C957    1.393   .     S
C470   C958    1.394   1_554 S
C471   C976    1.418   .     S
C472   C975    1.418   1_554 S
Cu473  O485    1.951   .     S
Cu473  O492    1.916   .     S
Cu473  O488    1.950   .     S
Cu473  O489    1.931   .     S
Cu473  N484    2.027   .     S
Cu473  Cu474   2.698   .     S
Cu474  O491    1.916   .     S
Cu474  O487    1.950   .     S
Cu474  N483    2.027   .     S
Cu474  O490    1.931   .     S
Cu474  O486    1.951   .     S
H479   C349    1.084   1_655 S
H482   C120    1.088   1_565 S
N483   N372    1.288   1_655 S
N483   O389    1.338   1_655 S
O493   H494    0.991   .     S
O495   H496    0.991   .     S
O497   H498    0.992   .     S
O499   H500    0.991   .     S
H502   O389    0.990   1_655 S
O503   N372    1.338   1_655 S
O503   H392    0.990   1_655 S
C505   O541    1.293   .     A
C505   C511    1.429   .     S
C505   O543    1.291   .     A
C506   O542    1.293   .     A
C506   O544    1.291   .     A
C506   C512    1.429   .     S
C507   O553    1.383   .     S
C507   C528    1.422   .     A
C507   C509    1.402   .     A
C508   O555    1.382   .     S
C508   C510    1.407   .     A
C508   C527    1.425   .     A
C509   H531    1.084   .     S
C510   C22     1.394   1_556 S
C510   H588    1.084   .     S
C511   C680    1.331   .     S
C511   H705    1.088   .     S
C512   C847    1.331   1_545 S
C512   H874    1.088   1_545 S
C513   C515    1.464   .     S
C513   O545    1.302   .     A
C513   O547    1.298   .     A
C514   O548    1.300   .     A
C514   C516    1.480   .     S
C514   O546    1.309   .     A
C515   C519    1.400   .     A
C515   C521    1.411   .     A
C516   C522    1.413   .     A
C516   C520    1.404   .     A
C517   C525    1.402   .     A
C517   C519    1.391   .     A
C517   H647    1.084   1_455 S
C518   C526    1.402   .     A
C518   C520    1.395   .     A
C518   H592    1.084   .     S
C519   H534    1.083   .     S
C520   H533    1.083   .     S
C521   C523    1.412   .     A
C521   O551    1.384   .     S
C522   C524    1.416   .     A
C522   O549    1.383   .     S
C523   C527    1.423   .     A
C523   C525    1.417   .     A
C524   C526    1.410   .     A
C524   C528    1.419   .     A
C525   C5      1.393   1_556 S
C527   C24     1.418   1_556 S
Cu529  O541    1.951   .     S
Cu529  O548    1.916   .     S
Cu529  O544    1.950   .     S
Cu529  O545    1.931   .     S
Cu529  N540    2.027   .     S
Cu529  Cu530   2.698   .     S
Cu530  O547    1.916   .     S
Cu530  O543    1.950   .     S
Cu530  N539    2.027   .     S
Cu530  O546    1.931   .     S
Cu530  O542    1.951   .     S
H532   C622    1.084   1_455 S
H535   C573    1.084   .     S
H536   C630    1.084   1_455 S
H537   C847    1.088   1_545 S
H538   C680    1.088   .     S
N539   N596    1.288   .     S
N539   O613    1.338   .     S
N540   N651    1.288   1_455 S
N540   O671    1.338   1_455 S
O549   H550    0.991   .     S
O551   H552    0.991   .     S
O553   H554    0.992   .     S
O555   H556    0.991   .     S
O557   N651    1.338   1_455 S
O557   H670    0.990   1_455 S
H558   O613    0.990   .     S
O559   N596    1.338   .     S
O559   H616    0.990   .     S
H560   O671    0.990   1_455 S
C561   O597    1.293   .     A
C561   C567    1.429   .     S
C561   O599    1.291   .     A
C562   O598    1.293   .     A
C562   O600    1.291   .     A
C562   C568    1.429   .     S
C563   O609    1.383   .     S
C563   C584    1.422   .     A
C563   C565    1.402   .     A
C564   O611    1.382   .     S
C564   C566    1.407   .     A
C564   C583    1.425   .     A
C565   H587    1.084   .     S
C566   C78     1.394   1_556 S
C566   H644    1.084   .     S
C567   C736    1.331   .     S
C567   H761    1.088   .     S
C568   C903    1.331   1_545 S
C568   H930    1.088   1_545 S
C569   C571    1.464   .     S
C569   O601    1.302   .     A
C569   O603    1.298   .     A
C570   O604    1.300   .     A
C570   C572    1.480   .     S
C570   O602    1.309   .     A
C571   C575    1.400   .     A
C571   C577    1.411   .     A
C572   C578    1.413   .     A
C572   C576    1.404   .     A
C573   C581    1.402   .     A
C573   C575    1.391   .     A
C574   C582    1.402   .     A
C574   C576    1.395   .     A
C574   H648    1.084   .     S
C575   H590    1.083   .     S
C576   H589    1.083   .     S
C577   C579    1.412   .     A
C577   O607    1.384   .     S
C578   C580    1.416   .     A
C578   O605    1.383   .     S
C579   C583    1.423   .     A
C579   C581    1.417   .     A
C580   C582    1.410   .     A
C580   C584    1.419   .     A
C581   C61     1.393   1_556 S
C583   C80     1.418   1_556 S
Cu585  O597    1.951   .     S
Cu585  O604    1.916   .     S
Cu585  O600    1.950   .     S
Cu585  O601    1.931   .     S
Cu585  N596    2.027   .     S
Cu585  Cu586   2.698   .     S
Cu586  O603    1.916   .     S
Cu586  O599    1.950   .     S
Cu586  N595    2.027   .     S
Cu586  O602    1.931   .     S
Cu586  O598    1.951   .     S
H591   C629    1.084   .     S
H593   C903    1.088   1_545 S
H594   C736    1.088   .     S
N595   N652    1.288   .     S
N595   O669    1.338   .     S
O605   H606    0.991   .     S
O607   H608    0.991   .     S
O609   H610    0.992   .     S
O611   H612    0.991   .     S
H614   O669    0.990   .     S
O615   N652    1.338   .     S
O615   H672    0.990   .     S
C617   O653    1.293   .     A
C617   C623    1.429   .     S
C617   O655    1.291   .     A
C618   O654    1.293   .     A
C618   O656    1.291   .     A
C618   C624    1.429   .     S
C619   O665    1.383   .     S
C619   C640    1.422   .     A
C619   C621    1.402   .     A
C620   O667    1.382   .     S
C620   C622    1.407   .     A
C620   C639    1.425   .     A
C621   H643    1.084   .     S
C622   C134    1.394   1_556 S
C622   H532    1.084   1_655 S
C623   C792    1.331   .     S
C623   H817    1.088   .     S
C624   C959    1.331   1_545 S
C624   H986    1.088   1_545 S
C625   C627    1.464   .     S
C625   O657    1.302   .     A
C625   O659    1.298   .     A
C626   O660    1.300   .     A
C626   C628    1.480   .     S
C626   O658    1.309   .     A
C627   C631    1.400   .     A
C627   C633    1.411   .     A
C628   C634    1.413   .     A
C628   C632    1.404   .     A
C629   C637    1.402   .     A
C629   C631    1.391   .     A
C630   C638    1.402   .     A
C630   C632    1.395   .     A
C630   H536    1.084   1_655 S
C631   H646    1.083   .     S
C632   H645    1.083   .     S
C633   C635    1.412   .     A
C633   O663    1.384   .     S
C634   C636    1.416   .     A
C634   O661    1.383   .     S
C635   C639    1.423   .     A
C635   C637    1.417   .     A
C636   C638    1.410   .     A
C636   C640    1.419   .     A
C637   C117    1.393   1_556 S
C639   C136    1.418   1_556 S
Cu641  O653    1.951   .     S
Cu641  O660    1.916   .     S
Cu641  O656    1.950   .     S
Cu641  O657    1.931   .     S
Cu641  N652    2.027   .     S
Cu641  Cu642   2.698   .     S
Cu642  O659    1.916   .     S
Cu642  O655    1.950   .     S
Cu642  N651    2.027   .     S
Cu642  O658    1.931   .     S
Cu642  O654    1.951   .     S
H647   C517    1.084   1_655 S
H649   C959    1.088   1_545 S
H650   C792    1.088   .     S
N651   N540    1.288   1_655 S
N651   O557    1.338   1_655 S
O661   H662    0.991   .     S
O663   H664    0.991   .     S
O665   H666    0.992   .     S
O667   H668    0.991   .     S
H670   O557    0.990   1_655 S
O671   N540    1.338   1_655 S
O671   H560    0.990   1_655 S
C673   O709    1.293   .     A
C673   C679    1.429   .     S
C673   O711    1.291   .     A
C674   O710    1.293   .     A
C674   O712    1.291   .     A
C674   C680    1.429   .     S
C675   O721    1.383   .     S
C675   C696    1.422   .     A
C675   C677    1.402   .     A
C676   O723    1.382   .     S
C676   C678    1.407   .     A
C676   C695    1.425   .     A
C677   H699    1.084   .     S
C678   C190    1.394   1_556 S
C678   H756    1.084   .     S
C679   C848    1.331   .     S
C679   H873    1.088   .     S
C681   C683    1.464   .     S
C681   O713    1.302   .     A
C681   O715    1.298   .     A
C682   O716    1.300   .     A
C682   C684    1.480   .     S
C682   O714    1.309   .     A
C683   C687    1.400   .     A
C683   C689    1.411   .     A
C684   C690    1.413   .     A
C684   C688    1.404   .     A
C685   C693    1.402   .     A
C685   C687    1.391   .     A
C685   H815    1.084   1_455 S
C686   C694    1.402   .     A
C686   C688    1.395   .     A
C686   H760    1.084   .     S
C687   H702    1.083   .     S
C688   H701    1.083   .     S
C689   C691    1.412   .     A
C689   O719    1.384   .     S
C690   C692    1.416   .     A
C690   O717    1.383   .     S
C691   C695    1.423   .     A
C691   C693    1.417   .     A
C692   C694    1.410   .     A
C692   C696    1.419   .     A
C693   C173    1.393   1_556 S
C695   C192    1.418   1_556 S
Cu697  O709    1.951   .     S
Cu697  O716    1.916   .     S
Cu697  O712    1.950   .     S
Cu697  O713    1.931   .     S
Cu697  N708    2.027   .     S
Cu697  Cu698   2.698   .     S
Cu698  O715    1.916   .     S
Cu698  O711    1.950   .     S
Cu698  N707    2.027   .     S
Cu698  O714    1.931   .     S
Cu698  O710    1.951   .     S
H700   C790    1.084   1_455 S
H703   C741    1.084   .     S
H704   C798    1.084   1_455 S
H706   C848    1.088   .     S
N707   N764    1.288   .     S
N707   O781    1.338   .     S
N708   N819    1.288   1_455 S
N708   O839    1.338   1_455 S
O717   H718    0.991   .     S
O719   H720    0.991   .     S
O721   H722    0.992   .     S
O723   H724    0.991   .     S
O725   N819    1.338   1_455 S
O725   H838    0.990   1_455 S
H726   O781    0.990   .     S
O727   N764    1.338   .     S
O727   H784    0.990   .     S
H728   O839    0.990   1_455 S
C729   O765    1.293   .     A
C729   C735    1.429   .     S
C729   O767    1.291   .     A
C730   O766    1.293   .     A
C730   O768    1.291   .     A
C730   C736    1.429   .     S
C731   O777    1.383   .     S
C731   C752    1.422   .     A
C731   C733    1.402   .     A
C732   O779    1.382   .     S
C732   C734    1.407   .     A
C732   C751    1.425   .     A
C733   H755    1.084   .     S
C734   C246    1.394   1_556 S
C734   H812    1.084   .     S
C735   C904    1.331   .     S
C735   H929    1.088   .     S
C737   C739    1.464   .     S
C737   O769    1.302   .     A
C737   O771    1.298   .     A
C738   O772    1.300   .     A
C738   C740    1.480   .     S
C738   O770    1.309   .     A
C739   C743    1.400   .     A
C739   C745    1.411   .     A
C740   C746    1.413   .     A
C740   C744    1.404   .     A
C741   C749    1.402   .     A
C741   C743    1.391   .     A
C742   C750    1.402   .     A
C742   C744    1.395   .     A
C742   H816    1.084   .     S
C743   H758    1.083   .     S
C744   H757    1.083   .     S
C745   C747    1.412   .     A
C745   O775    1.384   .     S
C746   C748    1.416   .     A
C746   O773    1.383   .     S
C747   C751    1.423   .     A
C747   C749    1.417   .     A
C748   C750    1.410   .     A
C748   C752    1.419   .     A
C749   C229    1.393   1_556 S
C751   C248    1.418   1_556 S
Cu753  O765    1.951   .     S
Cu753  O772    1.916   .     S
Cu753  O768    1.950   .     S
Cu753  O769    1.931   .     S
Cu753  N764    2.027   .     S
Cu753  Cu754   2.698   .     S
Cu754  O771    1.916   .     S
Cu754  O767    1.950   .     S
Cu754  N763    2.027   .     S
Cu754  O770    1.931   .     S
Cu754  O766    1.951   .     S
H759   C797    1.084   .     S
H762   C904    1.088   .     S
N763   N820    1.288   .     S
N763   O837    1.338   .     S
O773   H774    0.991   .     S
O775   H776    0.991   .     S
O777   H778    0.992   .     S
O779   H780    0.991   .     S
H782   O837    0.990   .     S
O783   N820    1.338   .     S
O783   H840    0.990   .     S
C785   O821    1.293   .     A
C785   C791    1.429   .     S
C785   O823    1.291   .     A
C786   O822    1.293   .     A
C786   O824    1.291   .     A
C786   C792    1.429   .     S
C787   O833    1.383   .     S
C787   C808    1.422   .     A
C787   C789    1.402   .     A
C788   O835    1.382   .     S
C788   C790    1.407   .     A
C788   C807    1.425   .     A
C789   H811    1.084   .     S
C790   C302    1.394   1_556 S
C790   H700    1.084   1_655 S
C791   C960    1.331   .     S
C791   H985    1.088   .     S
C793   C795    1.464   .     S
C793   O825    1.302   .     A
C793   O827    1.298   .     A
C794   O828    1.300   .     A
C794   C796    1.480   .     S
C794   O826    1.309   .     A
C795   C799    1.400   .     A
C795   C801    1.411   .     A
C796   C802    1.413   .     A
C796   C800    1.404   .     A
C797   C805    1.402   .     A
C797   C799    1.391   .     A
C798   C806    1.402   .     A
C798   C800    1.395   .     A
C798   H704    1.084   1_655 S
C799   H814    1.083   .     S
C800   H813    1.083   .     S
C801   C803    1.412   .     A
C801   O831    1.384   .     S
C802   C804    1.416   .     A
C802   O829    1.383   .     S
C803   C807    1.423   .     A
C803   C805    1.417   .     A
C804   C806    1.410   .     A
C804   C808    1.419   .     A
C805   C285    1.393   1_556 S
C807   C304    1.418   1_556 S
Cu809  O821    1.951   .     S
Cu809  O828    1.916   .     S
Cu809  O824    1.950   .     S
Cu809  O825    1.931   .     S
Cu809  N820    2.027   .     S
Cu809  Cu810   2.698   .     S
Cu810  O827    1.916   .     S
Cu810  O823    1.950   .     S
Cu810  N819    2.027   .     S
Cu810  O826    1.931   .     S
Cu810  O822    1.951   .     S
H815   C685    1.084   1_655 S
H818   C960    1.088   .     S
N819   N708    1.288   1_655 S
N819   O725    1.338   1_655 S
O829   H830    0.991   .     S
O831   H832    0.991   .     S
O833   H834    0.992   .     S
O835   H836    0.991   .     S
H838   O725    0.990   1_655 S
O839   N708    1.338   1_655 S
O839   H728    0.990   1_655 S
C841   O877    1.293   .     A
C841   C847    1.429   .     S
C841   O879    1.291   .     A
C842   O878    1.293   .     A
C842   O880    1.291   .     A
C842   C848    1.429   .     S
C843   O889    1.383   .     S
C843   C864    1.422   .     A
C843   C845    1.402   .     A
C844   O891    1.382   .     S
C844   C846    1.407   .     A
C844   C863    1.425   .     A
C845   H867    1.084   .     S
C846   C358    1.394   1_556 S
C846   H924    1.084   .     S
C847   C512    1.331   1_565 S
C847   H537    1.088   1_565 S
C849   C851    1.464   .     S
C849   O881    1.302   .     A
C849   O883    1.298   .     A
C850   O884    1.300   .     A
C850   C852    1.480   .     S
C850   O882    1.309   .     A
C851   C855    1.400   .     A
C851   C857    1.411   .     A
C852   C858    1.413   .     A
C852   C856    1.404   .     A
C853   C861    1.402   .     A
C853   C855    1.391   .     A
C853   H983    1.084   1_455 S
C854   C862    1.402   .     A
C854   C856    1.395   .     A
C854   H928    1.084   .     S
C855   H870    1.083   .     S
C856   H869    1.083   .     S
C857   C859    1.412   .     A
C857   O887    1.384   .     S
C858   C860    1.416   .     A
C858   O885    1.383   .     S
C859   C863    1.423   .     A
C859   C861    1.417   .     A
C860   C862    1.410   .     A
C860   C864    1.419   .     A
C861   C341    1.393   1_556 S
C863   C360    1.418   1_556 S
Cu865  O877    1.951   .     S
Cu865  O884    1.916   .     S
Cu865  O880    1.950   .     S
Cu865  O881    1.931   .     S
Cu865  N876    2.027   .     S
Cu865  Cu866   2.698   .     S
Cu866  O883    1.916   .     S
Cu866  O879    1.950   .     S
Cu866  N875    2.027   .     S
Cu866  O882    1.931   .     S
Cu866  O878    1.951   .     S
H868   C958    1.084   1_455 S
H871   C909    1.084   .     S
H872   C966    1.084   1_455 S
H874   C512    1.088   1_565 S
N875   N932    1.288   .     S
N875   O949    1.338   .     S
N876   N987    1.288   1_455 S
N876   O1007   1.338   1_455 S
O885   H886    0.991   .     S
O887   H888    0.991   .     S
O889   H890    0.992   .     S
O891   H892    0.991   .     S
O893   N987    1.338   1_455 S
O893   H1006   0.990   1_455 S
H894   O949    0.990   .     S
O895   N932    1.338   .     S
O895   H952    0.990   .     S
H896   O1007   0.990   1_455 S
C897   O933    1.293   .     A
C897   C903    1.429   .     S
C897   O935    1.291   .     A
C898   O934    1.293   .     A
C898   O936    1.291   .     A
C898   C904    1.429   .     S
C899   O945    1.383   .     S
C899   C920    1.422   .     A
C899   C901    1.402   .     A
C900   O947    1.382   .     S
C900   C902    1.407   .     A
C900   C919    1.425   .     A
C901   H923    1.084   .     S
C902   C414    1.394   1_556 S
C902   H980    1.084   .     S
C903   C568    1.331   1_565 S
C903   H593    1.088   1_565 S
C905   C907    1.464   .     S
C905   O937    1.302   .     A
C905   O939    1.298   .     A
C906   O940    1.300   .     A
C906   C908    1.480   .     S
C906   O938    1.309   .     A
C907   C911    1.400   .     A
C907   C913    1.411   .     A
C908   C914    1.413   .     A
C908   C912    1.404   .     A
C909   C917    1.402   .     A
C909   C911    1.391   .     A
C910   C918    1.402   .     A
C910   C912    1.395   .     A
C910   H984    1.084   .     S
C911   H926    1.083   .     S
C912   H925    1.083   .     S
C913   C915    1.412   .     A
C913   O943    1.384   .     S
C914   C916    1.416   .     A
C914   O941    1.383   .     S
C915   C919    1.423   .     A
C915   C917    1.417   .     A
C916   C918    1.410   .     A
C916   C920    1.419   .     A
C917   C397    1.393   1_556 S
C919   C416    1.418   1_556 S
Cu921  O933    1.951   .     S
Cu921  O940    1.916   .     S
Cu921  O936    1.950   .     S
Cu921  O937    1.931   .     S
Cu921  N932    2.027   .     S
Cu921  Cu922   2.698   .     S
Cu922  O939    1.916   .     S
Cu922  O935    1.950   .     S
Cu922  N931    2.027   .     S
Cu922  O938    1.931   .     S
Cu922  O934    1.951   .     S
H927   C965    1.084   .     S
H930   C568    1.088   1_565 S
N931   N988    1.288   .     S
N931   O1005   1.338   .     S
O941   H942    0.991   .     S
O943   H944    0.991   .     S
O945   H946    0.992   .     S
O947   H948    0.991   .     S
H950   O1005   0.990   .     S
O951   N988    1.338   .     S
O951   H1008   0.990   .     S
C953   O989    1.293   .     A
C953   C959    1.429   .     S
C953   O991    1.291   .     A
C954   O990    1.293   .     A
C954   O992    1.291   .     A
C954   C960    1.429   .     S
C955   O1001   1.383   .     S
C955   C976    1.422   .     A
C955   C957    1.402   .     A
C956   O1003   1.382   .     S
C956   C958    1.407   .     A
C956   C975    1.425   .     A
C957   H979    1.084   .     S
C958   C470    1.394   1_556 S
C958   H868    1.084   1_655 S
C959   C624    1.331   1_565 S
C959   H649    1.088   1_565 S
C961   C963    1.464   .     S
C961   O993    1.302   .     A
C961   O995    1.298   .     A
C962   O996    1.300   .     A
C962   C964    1.480   .     S
C962   O994    1.309   .     A
C963   C967    1.400   .     A
C963   C969    1.411   .     A
C964   C970    1.413   .     A
C964   C968    1.404   .     A
C965   C973    1.402   .     A
C965   C967    1.391   .     A
C966   C974    1.402   .     A
C966   C968    1.395   .     A
C966   H872    1.084   1_655 S
C967   H982    1.083   .     S
C968   H981    1.083   .     S
C969   C971    1.412   .     A
C969   O999    1.384   .     S
C970   C972    1.416   .     A
C970   O997    1.383   .     S
C971   C975    1.423   .     A
C971   C973    1.417   .     A
C972   C974    1.410   .     A
C972   C976    1.419   .     A
C973   C453    1.393   1_556 S
C975   C472    1.418   1_556 S
Cu977  O989    1.951   .     S
Cu977  O996    1.916   .     S
Cu977  O992    1.950   .     S
Cu977  O993    1.931   .     S
Cu977  N988    2.027   .     S
Cu977  Cu978   2.698   .     S
Cu978  O995    1.916   .     S
Cu978  O991    1.950   .     S
Cu978  N987    2.027   .     S
Cu978  O994    1.931   .     S
Cu978  O990    1.951   .     S
H983   C853    1.084   1_655 S
H986   C624    1.088   1_565 S
N987   N876    1.288   1_655 S
N987   O893    1.338   1_655 S
O997   H998    0.991   .     S
O999   H1000   0.991   .     S
O1001  H1002   0.992   .     S
O1003  H1004   0.991   .     S
H1006  O893    0.990   1_655 S
O1007  N876    1.338   1_655 S
O1007  H896    0.990   1_655 S
