data_str_m2_o10_o18_pcu_sym.109
_audit_creation_date              2020-01-03
_audit_creation_method            'Materials Studio'
_symmetry_space_group_name_H-M    'P1'
_symmetry_Int_Tables_number       1
_symmetry_cell_setting            triclinic
loop_
_symmetry_equiv_pos_as_xyz
  x,y,z
_cell_length_a                    22.2825
_cell_length_b                    26.2286
_cell_length_c                    31.5985
_cell_angle_alpha                 94.4137
_cell_angle_beta                  75.1085
_cell_angle_gamma                 103.2015
loop_
_atom_site_label
_atom_site_type_symbol
_atom_site_fract_x
_atom_site_fract_y
_atom_site_fract_z
_atom_site_U_iso_or_equiv
_atom_site_adp_type
_atom_site_occupancy
C1     C     0.18038   0.26649   0.25369   0.00000  Uiso   1.00
C2     C     0.15066   0.06681   0.25084   0.00000  Uiso   1.00
C3     C     0.09875   0.11942   0.03481   0.00000  Uiso   1.00
C4     C     0.23490   0.21336   0.46494   0.00000  Uiso   1.00
C5     C     0.05267   0.11423   0.01133   0.00000  Uiso   1.00
C6     C     0.28095   0.21849   0.48845   0.00000  Uiso   1.00
C7     C     0.18658   0.32215   0.25936   0.00000  Uiso   1.00
C8     C     0.13934   0.01116   0.25550   0.00000  Uiso   1.00
C9     C     0.12802   0.16273   0.33318   0.00000  Uiso   1.00
C10    C     0.20531   0.17052   0.16680   0.00000  Uiso   1.00
C11    C     0.10471   0.15791   0.38090   0.00000  Uiso   1.00
C12    C     0.22865   0.17511   0.11901   0.00000  Uiso   1.00
C13    C     0.02258   0.12529   0.44496   0.00000  Uiso   1.00
C14    C     0.31092   0.20740   0.05488   0.00000  Uiso   1.00
C15    C     0.04062   0.13776   0.40072   0.00000  Uiso   1.00
C16    C     0.29280   0.19503   0.09915   0.00000  Uiso   1.00
C17    C     0.14903   0.16971   0.40656   0.00000  Uiso   1.00
C18    C     0.18438   0.16324   0.09330   0.00000  Uiso   1.00
C19    C     0.13074   0.16318   0.45198   0.00000  Uiso   1.00
C20    C     0.20276   0.16969   0.04785   0.00000  Uiso   1.00
C21    C     0.06783   0.13581   0.47013   0.00000  Uiso   1.00
C22    C     0.26570   0.19696   0.02969   0.00000  Uiso   1.00
C23    C     0.17500   0.17757   0.47868   0.00000  Uiso   1.00
C24    C     0.15857   0.15528   0.02111   0.00000  Uiso   1.00
Cu25   Cu    0.10737   0.16108   0.24517   0.00000  Uiso   1.00
Cu26   Cu    0.22596   0.17225   0.25484   0.00000  Uiso   1.00
H27    H     0.00642   0.08878   0.02347   0.00000  Uiso   1.00
H28    H     0.32726   0.24384   0.47630   0.00000  Uiso   1.00
H29    H     0.13462   0.15313   0.10964   0.00000  Uiso   1.00
H30    H     0.19877   0.17979   0.39019   0.00000  Uiso   1.00
H31    H     0.32789   0.20462   0.11834   0.00000  Uiso   1.00
H32    H     0.00553   0.12810   0.38152   0.00000  Uiso   1.00
H33    H     0.30719   0.10558   0.45909   0.00000  Uiso   1.00
H34    H     0.02636   0.22697   0.04074   0.00000  Uiso   1.00
H35    H     0.00010   0.20247   0.28613   0.00000  Uiso   1.00
H36    H     0.33279   0.12977   0.21448   0.00000  Uiso   1.00
N37    N     0.31506   0.18068   0.26212   0.00000  Uiso   1.00
N38    N     0.01827   0.15265   0.23788   0.00000  Uiso   1.00
O39    O     0.12815   0.23809   0.24686   0.00000  Uiso   1.00
O40    O     0.20518   0.09524   0.25314   0.00000  Uiso   1.00
O41    O     0.22829   0.24753   0.25503   0.00000  Uiso   1.00
O42    O     0.10504   0.08580   0.24498   0.00000  Uiso   1.00
O43    O     0.08851   0.15930   0.30855   0.00000  Uiso   1.00
O44    O     0.24482   0.17403   0.19146   0.00000  Uiso   1.00
O45    O     0.18866   0.16874   0.31671   0.00000  Uiso   1.00
O46    O     0.14468   0.16460   0.18329   0.00000  Uiso   1.00
Cl47   Cl    0.08194   0.07156   0.07518   0.00000  Uiso   1.00
Cl48   Cl    0.25203   0.26111   0.42440   0.00000  Uiso   1.00
O49    O     0.24314   0.01799   0.26722   0.00000  Uiso   1.00
C50    C     0.23437   0.02572   0.31296   0.00000  Uiso   1.00
H51    H     0.22581   0.32126   0.32962   0.00000  Uiso   1.00
H52    H     0.19461   0.04584   0.32744   0.00000  Uiso   1.00
H53    H     0.27819   0.05137   0.31944   0.00000  Uiso   1.00
O54    O     0.07899   0.31544   0.25540   0.00000  Uiso   1.00
C55    C     0.04214   0.31230   0.29912   0.00000  Uiso   1.00
H56    H     0.04042   0.01845   0.31445   0.00000  Uiso   1.00
H57    H     0.06036   0.28919   0.31921   0.00000  Uiso   1.00
H58    H     0.32608   0.29190   0.29929   0.00000  Uiso   1.00
C59    C     0.51372   0.26649   0.25369   0.00000  Uiso   1.00
C60    C     0.48400   0.06681   0.25084   0.00000  Uiso   1.00
C61    C     0.43208   0.11942   0.03481   0.00000  Uiso   1.00
C62    C     0.56824   0.21336   0.46494   0.00000  Uiso   1.00
C63    C     0.38600   0.11423   0.01133   0.00000  Uiso   1.00
C64    C     0.61428   0.21849   0.48845   0.00000  Uiso   1.00
C65    C     0.51991   0.32215   0.25936   0.00000  Uiso   1.00
C66    C     0.47267   0.01116   0.25550   0.00000  Uiso   1.00
C67    C     0.46136   0.16273   0.33318   0.00000  Uiso   1.00
C68    C     0.53864   0.17052   0.16680   0.00000  Uiso   1.00
C69    C     0.43804   0.15791   0.38090   0.00000  Uiso   1.00
C70    C     0.56199   0.17511   0.11901   0.00000  Uiso   1.00
C71    C     0.35592   0.12529   0.44496   0.00000  Uiso   1.00
C72    C     0.64425   0.20740   0.05488   0.00000  Uiso   1.00
C73    C     0.37395   0.13776   0.40072   0.00000  Uiso   1.00
C74    C     0.62613   0.19503   0.09915   0.00000  Uiso   1.00
C75    C     0.48236   0.16971   0.40656   0.00000  Uiso   1.00
C76    C     0.51772   0.16324   0.09330   0.00000  Uiso   1.00
C77    C     0.46408   0.16318   0.45198   0.00000  Uiso   1.00
C78    C     0.53609   0.16969   0.04785   0.00000  Uiso   1.00
C79    C     0.40116   0.13581   0.47013   0.00000  Uiso   1.00
C80    C     0.59904   0.19696   0.02969   0.00000  Uiso   1.00
C81    C     0.50833   0.17757   0.47868   0.00000  Uiso   1.00
C82    C     0.49191   0.15528   0.02111   0.00000  Uiso   1.00
Cu83   Cu    0.44071   0.16108   0.24517   0.00000  Uiso   1.00
Cu84   Cu    0.55929   0.17225   0.25484   0.00000  Uiso   1.00
H85    H     0.33975   0.08878   0.02347   0.00000  Uiso   1.00
H86    H     0.66059   0.24384   0.47630   0.00000  Uiso   1.00
H87    H     0.46795   0.15313   0.10964   0.00000  Uiso   1.00
H88    H     0.53211   0.17979   0.39019   0.00000  Uiso   1.00
H89    H     0.66122   0.20462   0.11834   0.00000  Uiso   1.00
H90    H     0.33887   0.12810   0.38152   0.00000  Uiso   1.00
H91    H     0.64053   0.10558   0.45909   0.00000  Uiso   1.00
H92    H     0.35969   0.22697   0.04074   0.00000  Uiso   1.00
H93    H     0.33344   0.20247   0.28613   0.00000  Uiso   1.00
H94    H     0.66612   0.12977   0.21448   0.00000  Uiso   1.00
N95    N     0.64839   0.18068   0.26212   0.00000  Uiso   1.00
N96    N     0.35161   0.15265   0.23788   0.00000  Uiso   1.00
O97    O     0.46148   0.23809   0.24686   0.00000  Uiso   1.00
O98    O     0.53852   0.09524   0.25314   0.00000  Uiso   1.00
O99    O     0.56163   0.24753   0.25503   0.00000  Uiso   1.00
O100   O     0.43837   0.08580   0.24498   0.00000  Uiso   1.00
O101   O     0.42185   0.15930   0.30855   0.00000  Uiso   1.00
O102   O     0.57815   0.17403   0.19146   0.00000  Uiso   1.00
O103   O     0.52199   0.16874   0.31671   0.00000  Uiso   1.00
O104   O     0.47801   0.16460   0.18329   0.00000  Uiso   1.00
Cl105  Cl    0.41528   0.07156   0.07518   0.00000  Uiso   1.00
Cl106  Cl    0.58536   0.26111   0.42440   0.00000  Uiso   1.00
O107   O     0.57648   0.01799   0.26722   0.00000  Uiso   1.00
C108   C     0.56770   0.02572   0.31296   0.00000  Uiso   1.00
H109   H     0.55914   0.32126   0.32962   0.00000  Uiso   1.00
H110   H     0.52795   0.04584   0.32744   0.00000  Uiso   1.00
H111   H     0.61152   0.05137   0.31944   0.00000  Uiso   1.00
O112   O     0.41232   0.31544   0.25540   0.00000  Uiso   1.00
C113   C     0.37547   0.31230   0.29912   0.00000  Uiso   1.00
H114   H     0.37375   0.01845   0.31445   0.00000  Uiso   1.00
H115   H     0.39369   0.28919   0.31921   0.00000  Uiso   1.00
H116   H     0.65942   0.29190   0.29929   0.00000  Uiso   1.00
C117   C     0.84705   0.26649   0.25369   0.00000  Uiso   1.00
C118   C     0.81733   0.06681   0.25084   0.00000  Uiso   1.00
C119   C     0.76542   0.11942   0.03481   0.00000  Uiso   1.00
C120   C     0.90157   0.21336   0.46494   0.00000  Uiso   1.00
C121   C     0.71934   0.11423   0.01133   0.00000  Uiso   1.00
C122   C     0.94761   0.21849   0.48845   0.00000  Uiso   1.00
C123   C     0.85325   0.32215   0.25936   0.00000  Uiso   1.00
C124   C     0.80600   0.01116   0.25550   0.00000  Uiso   1.00
C125   C     0.79469   0.16273   0.33318   0.00000  Uiso   1.00
C126   C     0.87198   0.17052   0.16680   0.00000  Uiso   1.00
C127   C     0.77138   0.15791   0.38090   0.00000  Uiso   1.00
C128   C     0.89532   0.17511   0.11901   0.00000  Uiso   1.00
C129   C     0.68925   0.12529   0.44496   0.00000  Uiso   1.00
C130   C     0.97759   0.20740   0.05488   0.00000  Uiso   1.00
C131   C     0.70728   0.13776   0.40072   0.00000  Uiso   1.00
C132   C     0.95947   0.19503   0.09915   0.00000  Uiso   1.00
C133   C     0.81570   0.16971   0.40656   0.00000  Uiso   1.00
C134   C     0.85105   0.16324   0.09330   0.00000  Uiso   1.00
C135   C     0.79741   0.16318   0.45198   0.00000  Uiso   1.00
C136   C     0.86943   0.16969   0.04785   0.00000  Uiso   1.00
C137   C     0.73450   0.13581   0.47013   0.00000  Uiso   1.00
C138   C     0.93237   0.19696   0.02969   0.00000  Uiso   1.00
C139   C     0.84166   0.17757   0.47868   0.00000  Uiso   1.00
C140   C     0.82524   0.15528   0.02111   0.00000  Uiso   1.00
Cu141  Cu    0.77404   0.16108   0.24517   0.00000  Uiso   1.00
Cu142  Cu    0.89263   0.17225   0.25484   0.00000  Uiso   1.00
H143   H     0.67309   0.08878   0.02347   0.00000  Uiso   1.00
H144   H     0.99393   0.24384   0.47630   0.00000  Uiso   1.00
H145   H     0.80129   0.15313   0.10964   0.00000  Uiso   1.00
H146   H     0.86544   0.17979   0.39019   0.00000  Uiso   1.00
H147   H     0.99456   0.20462   0.11834   0.00000  Uiso   1.00
H148   H     0.67220   0.12810   0.38152   0.00000  Uiso   1.00
H149   H     0.97386   0.10558   0.45909   0.00000  Uiso   1.00
H150   H     0.69303   0.22697   0.04074   0.00000  Uiso   1.00
H151   H     0.66677   0.20247   0.28613   0.00000  Uiso   1.00
H152   H     0.99945   0.12977   0.21448   0.00000  Uiso   1.00
N153   N     0.98173   0.18068   0.26212   0.00000  Uiso   1.00
N154   N     0.68494   0.15265   0.23788   0.00000  Uiso   1.00
O155   O     0.79482   0.23809   0.24686   0.00000  Uiso   1.00
O156   O     0.87185   0.09524   0.25314   0.00000  Uiso   1.00
O157   O     0.89496   0.24753   0.25503   0.00000  Uiso   1.00
O158   O     0.77171   0.08580   0.24498   0.00000  Uiso   1.00
O159   O     0.75518   0.15930   0.30855   0.00000  Uiso   1.00
O160   O     0.91149   0.17403   0.19146   0.00000  Uiso   1.00
O161   O     0.85532   0.16874   0.31671   0.00000  Uiso   1.00
O162   O     0.81134   0.16460   0.18329   0.00000  Uiso   1.00
Cl163  Cl    0.74861   0.07156   0.07518   0.00000  Uiso   1.00
Cl164  Cl    0.91870   0.26111   0.42440   0.00000  Uiso   1.00
O165   O     0.90981   0.01799   0.26722   0.00000  Uiso   1.00
C166   C     0.90104   0.02572   0.31296   0.00000  Uiso   1.00
H167   H     0.89248   0.32126   0.32962   0.00000  Uiso   1.00
H168   H     0.86128   0.04584   0.32744   0.00000  Uiso   1.00
H169   H     0.94485   0.05137   0.31944   0.00000  Uiso   1.00
O170   O     0.74566   0.31544   0.25540   0.00000  Uiso   1.00
C171   C     0.70880   0.31230   0.29912   0.00000  Uiso   1.00
H172   H     0.70709   0.01845   0.31445   0.00000  Uiso   1.00
H173   H     0.72702   0.28919   0.31921   0.00000  Uiso   1.00
H174   H     0.99275   0.29190   0.29929   0.00000  Uiso   1.00
C175   C     0.18038   0.59982   0.25369   0.00000  Uiso   1.00
C176   C     0.15066   0.40014   0.25084   0.00000  Uiso   1.00
C177   C     0.09875   0.45275   0.03481   0.00000  Uiso   1.00
C178   C     0.23490   0.54669   0.46494   0.00000  Uiso   1.00
C179   C     0.05267   0.44756   0.01133   0.00000  Uiso   1.00
C180   C     0.28095   0.55182   0.48845   0.00000  Uiso   1.00
C181   C     0.18658   0.65548   0.25936   0.00000  Uiso   1.00
C182   C     0.13934   0.34449   0.25550   0.00000  Uiso   1.00
C183   C     0.12802   0.49606   0.33318   0.00000  Uiso   1.00
C184   C     0.20531   0.50385   0.16680   0.00000  Uiso   1.00
C185   C     0.10471   0.49124   0.38090   0.00000  Uiso   1.00
C186   C     0.22865   0.50844   0.11901   0.00000  Uiso   1.00
C187   C     0.02258   0.45862   0.44496   0.00000  Uiso   1.00
C188   C     0.31092   0.54073   0.05488   0.00000  Uiso   1.00
C189   C     0.04062   0.47110   0.40072   0.00000  Uiso   1.00
C190   C     0.29280   0.52837   0.09915   0.00000  Uiso   1.00
C191   C     0.14903   0.50305   0.40656   0.00000  Uiso   1.00
C192   C     0.18438   0.49657   0.09330   0.00000  Uiso   1.00
C193   C     0.13074   0.49651   0.45198   0.00000  Uiso   1.00
C194   C     0.20276   0.50302   0.04785   0.00000  Uiso   1.00
C195   C     0.06783   0.46914   0.47013   0.00000  Uiso   1.00
C196   C     0.26570   0.53029   0.02969   0.00000  Uiso   1.00
C197   C     0.17500   0.51090   0.47868   0.00000  Uiso   1.00
C198   C     0.15857   0.48862   0.02111   0.00000  Uiso   1.00
Cu199  Cu    0.10737   0.49441   0.24517   0.00000  Uiso   1.00
Cu200  Cu    0.22596   0.50559   0.25484   0.00000  Uiso   1.00
H201   H     0.00642   0.42211   0.02347   0.00000  Uiso   1.00
H202   H     0.32726   0.57717   0.47630   0.00000  Uiso   1.00
H203   H     0.13462   0.48647   0.10964   0.00000  Uiso   1.00
H204   H     0.19877   0.51313   0.39019   0.00000  Uiso   1.00
H205   H     0.32789   0.53795   0.11834   0.00000  Uiso   1.00
H206   H     0.00553   0.46143   0.38152   0.00000  Uiso   1.00
H207   H     0.30719   0.43892   0.45909   0.00000  Uiso   1.00
H208   H     0.02636   0.56030   0.04074   0.00000  Uiso   1.00
H209   H     0.00010   0.53580   0.28613   0.00000  Uiso   1.00
H210   H     0.33279   0.46310   0.21448   0.00000  Uiso   1.00
N211   N     0.31506   0.51401   0.26212   0.00000  Uiso   1.00
N212   N     0.01827   0.48599   0.23788   0.00000  Uiso   1.00
O213   O     0.12815   0.57142   0.24686   0.00000  Uiso   1.00
O214   O     0.20518   0.42858   0.25314   0.00000  Uiso   1.00
O215   O     0.22829   0.58086   0.25503   0.00000  Uiso   1.00
O216   O     0.10504   0.41914   0.24498   0.00000  Uiso   1.00
O217   O     0.08851   0.49263   0.30855   0.00000  Uiso   1.00
O218   O     0.24482   0.50737   0.19146   0.00000  Uiso   1.00
O219   O     0.18866   0.50207   0.31671   0.00000  Uiso   1.00
O220   O     0.14468   0.49793   0.18329   0.00000  Uiso   1.00
Cl221  Cl    0.08194   0.40490   0.07518   0.00000  Uiso   1.00
Cl222  Cl    0.25203   0.59444   0.42440   0.00000  Uiso   1.00
O223   O     0.24314   0.35132   0.26722   0.00000  Uiso   1.00
C224   C     0.23437   0.35906   0.31296   0.00000  Uiso   1.00
H225   H     0.22581   0.65459   0.32962   0.00000  Uiso   1.00
H226   H     0.19461   0.37917   0.32744   0.00000  Uiso   1.00
H227   H     0.27819   0.38470   0.31944   0.00000  Uiso   1.00
O228   O     0.07899   0.64877   0.25540   0.00000  Uiso   1.00
C229   C     0.04214   0.64564   0.29912   0.00000  Uiso   1.00
H230   H     0.04042   0.35179   0.31445   0.00000  Uiso   1.00
H231   H     0.06036   0.62252   0.31921   0.00000  Uiso   1.00
H232   H     0.32608   0.62524   0.29929   0.00000  Uiso   1.00
C233   C     0.51372   0.59982   0.25369   0.00000  Uiso   1.00
C234   C     0.48400   0.40014   0.25084   0.00000  Uiso   1.00
C235   C     0.43208   0.45275   0.03481   0.00000  Uiso   1.00
C236   C     0.56824   0.54669   0.46494   0.00000  Uiso   1.00
C237   C     0.38600   0.44756   0.01133   0.00000  Uiso   1.00
C238   C     0.61428   0.55182   0.48845   0.00000  Uiso   1.00
C239   C     0.51991   0.65548   0.25936   0.00000  Uiso   1.00
C240   C     0.47267   0.34449   0.25550   0.00000  Uiso   1.00
C241   C     0.46136   0.49606   0.33318   0.00000  Uiso   1.00
C242   C     0.53864   0.50385   0.16680   0.00000  Uiso   1.00
C243   C     0.43804   0.49124   0.38090   0.00000  Uiso   1.00
C244   C     0.56199   0.50844   0.11901   0.00000  Uiso   1.00
C245   C     0.35592   0.45862   0.44496   0.00000  Uiso   1.00
C246   C     0.64425   0.54073   0.05488   0.00000  Uiso   1.00
C247   C     0.37395   0.47110   0.40072   0.00000  Uiso   1.00
C248   C     0.62613   0.52837   0.09915   0.00000  Uiso   1.00
C249   C     0.48236   0.50305   0.40656   0.00000  Uiso   1.00
C250   C     0.51772   0.49657   0.09330   0.00000  Uiso   1.00
C251   C     0.46408   0.49651   0.45198   0.00000  Uiso   1.00
C252   C     0.53609   0.50302   0.04785   0.00000  Uiso   1.00
C253   C     0.40116   0.46914   0.47013   0.00000  Uiso   1.00
C254   C     0.59904   0.53029   0.02969   0.00000  Uiso   1.00
C255   C     0.50833   0.51090   0.47868   0.00000  Uiso   1.00
C256   C     0.49191   0.48862   0.02111   0.00000  Uiso   1.00
Cu257  Cu    0.44071   0.49441   0.24517   0.00000  Uiso   1.00
Cu258  Cu    0.55929   0.50559   0.25484   0.00000  Uiso   1.00
H259   H     0.33975   0.42211   0.02347   0.00000  Uiso   1.00
H260   H     0.66059   0.57717   0.47630   0.00000  Uiso   1.00
H261   H     0.46795   0.48647   0.10964   0.00000  Uiso   1.00
H262   H     0.53211   0.51313   0.39019   0.00000  Uiso   1.00
H263   H     0.66122   0.53795   0.11834   0.00000  Uiso   1.00
H264   H     0.33887   0.46143   0.38152   0.00000  Uiso   1.00
H265   H     0.64053   0.43892   0.45909   0.00000  Uiso   1.00
H266   H     0.35969   0.56030   0.04074   0.00000  Uiso   1.00
H267   H     0.33344   0.53580   0.28613   0.00000  Uiso   1.00
H268   H     0.66612   0.46310   0.21448   0.00000  Uiso   1.00
N269   N     0.64839   0.51401   0.26212   0.00000  Uiso   1.00
N270   N     0.35161   0.48599   0.23788   0.00000  Uiso   1.00
O271   O     0.46148   0.57142   0.24686   0.00000  Uiso   1.00
O272   O     0.53852   0.42858   0.25314   0.00000  Uiso   1.00
O273   O     0.56163   0.58086   0.25503   0.00000  Uiso   1.00
O274   O     0.43837   0.41914   0.24498   0.00000  Uiso   1.00
O275   O     0.42185   0.49263   0.30855   0.00000  Uiso   1.00
O276   O     0.57815   0.50737   0.19146   0.00000  Uiso   1.00
O277   O     0.52199   0.50207   0.31671   0.00000  Uiso   1.00
O278   O     0.47801   0.49793   0.18329   0.00000  Uiso   1.00
Cl279  Cl    0.41528   0.40490   0.07518   0.00000  Uiso   1.00
Cl280  Cl    0.58536   0.59444   0.42440   0.00000  Uiso   1.00
O281   O     0.57648   0.35132   0.26722   0.00000  Uiso   1.00
C282   C     0.56770   0.35906   0.31296   0.00000  Uiso   1.00
H283   H     0.55914   0.65459   0.32962   0.00000  Uiso   1.00
H284   H     0.52795   0.37917   0.32744   0.00000  Uiso   1.00
H285   H     0.61152   0.38470   0.31944   0.00000  Uiso   1.00
O286   O     0.41232   0.64877   0.25540   0.00000  Uiso   1.00
C287   C     0.37547   0.64564   0.29912   0.00000  Uiso   1.00
H288   H     0.37375   0.35179   0.31445   0.00000  Uiso   1.00
H289   H     0.39369   0.62252   0.31921   0.00000  Uiso   1.00
H290   H     0.65942   0.62524   0.29929   0.00000  Uiso   1.00
C291   C     0.84705   0.59982   0.25369   0.00000  Uiso   1.00
C292   C     0.81733   0.40014   0.25084   0.00000  Uiso   1.00
C293   C     0.76542   0.45275   0.03481   0.00000  Uiso   1.00
C294   C     0.90157   0.54669   0.46494   0.00000  Uiso   1.00
C295   C     0.71934   0.44756   0.01133   0.00000  Uiso   1.00
C296   C     0.94761   0.55182   0.48845   0.00000  Uiso   1.00
C297   C     0.85325   0.65548   0.25936   0.00000  Uiso   1.00
C298   C     0.80600   0.34449   0.25550   0.00000  Uiso   1.00
C299   C     0.79469   0.49606   0.33318   0.00000  Uiso   1.00
C300   C     0.87198   0.50385   0.16680   0.00000  Uiso   1.00
C301   C     0.77138   0.49124   0.38090   0.00000  Uiso   1.00
C302   C     0.89532   0.50844   0.11901   0.00000  Uiso   1.00
C303   C     0.68925   0.45862   0.44496   0.00000  Uiso   1.00
C304   C     0.97759   0.54073   0.05488   0.00000  Uiso   1.00
C305   C     0.70728   0.47110   0.40072   0.00000  Uiso   1.00
C306   C     0.95947   0.52837   0.09915   0.00000  Uiso   1.00
C307   C     0.81570   0.50305   0.40656   0.00000  Uiso   1.00
C308   C     0.85105   0.49657   0.09330   0.00000  Uiso   1.00
C309   C     0.79741   0.49651   0.45198   0.00000  Uiso   1.00
C310   C     0.86943   0.50302   0.04785   0.00000  Uiso   1.00
C311   C     0.73450   0.46914   0.47013   0.00000  Uiso   1.00
C312   C     0.93237   0.53029   0.02969   0.00000  Uiso   1.00
C313   C     0.84166   0.51090   0.47868   0.00000  Uiso   1.00
C314   C     0.82524   0.48862   0.02111   0.00000  Uiso   1.00
Cu315  Cu    0.77404   0.49441   0.24517   0.00000  Uiso   1.00
Cu316  Cu    0.89263   0.50559   0.25484   0.00000  Uiso   1.00
H317   H     0.67309   0.42211   0.02347   0.00000  Uiso   1.00
H318   H     0.99393   0.57717   0.47630   0.00000  Uiso   1.00
H319   H     0.80129   0.48647   0.10964   0.00000  Uiso   1.00
H320   H     0.86544   0.51313   0.39019   0.00000  Uiso   1.00
H321   H     0.99456   0.53795   0.11834   0.00000  Uiso   1.00
H322   H     0.67220   0.46143   0.38152   0.00000  Uiso   1.00
H323   H     0.97386   0.43892   0.45909   0.00000  Uiso   1.00
H324   H     0.69303   0.56030   0.04074   0.00000  Uiso   1.00
H325   H     0.66677   0.53580   0.28613   0.00000  Uiso   1.00
H326   H     0.99945   0.46310   0.21448   0.00000  Uiso   1.00
N327   N     0.98173   0.51401   0.26212   0.00000  Uiso   1.00
N328   N     0.68494   0.48599   0.23788   0.00000  Uiso   1.00
O329   O     0.79482   0.57142   0.24686   0.00000  Uiso   1.00
O330   O     0.87185   0.42858   0.25314   0.00000  Uiso   1.00
O331   O     0.89496   0.58086   0.25503   0.00000  Uiso   1.00
O332   O     0.77171   0.41914   0.24498   0.00000  Uiso   1.00
O333   O     0.75518   0.49263   0.30855   0.00000  Uiso   1.00
O334   O     0.91149   0.50737   0.19146   0.00000  Uiso   1.00
O335   O     0.85532   0.50207   0.31671   0.00000  Uiso   1.00
O336   O     0.81134   0.49793   0.18329   0.00000  Uiso   1.00
Cl337  Cl    0.74861   0.40490   0.07518   0.00000  Uiso   1.00
Cl338  Cl    0.91870   0.59444   0.42440   0.00000  Uiso   1.00
O339   O     0.90981   0.35132   0.26722   0.00000  Uiso   1.00
C340   C     0.90104   0.35906   0.31296   0.00000  Uiso   1.00
H341   H     0.89248   0.65459   0.32962   0.00000  Uiso   1.00
H342   H     0.86128   0.37917   0.32744   0.00000  Uiso   1.00
H343   H     0.94485   0.38470   0.31944   0.00000  Uiso   1.00
O344   O     0.74566   0.64877   0.25540   0.00000  Uiso   1.00
C345   C     0.70880   0.64564   0.29912   0.00000  Uiso   1.00
H346   H     0.70709   0.35179   0.31445   0.00000  Uiso   1.00
H347   H     0.72702   0.62252   0.31921   0.00000  Uiso   1.00
H348   H     0.99275   0.62524   0.29929   0.00000  Uiso   1.00
C349   C     0.18038   0.93315   0.25369   0.00000  Uiso   1.00
C350   C     0.15066   0.73348   0.25084   0.00000  Uiso   1.00
C351   C     0.09875   0.78609   0.03481   0.00000  Uiso   1.00
C352   C     0.23490   0.88003   0.46494   0.00000  Uiso   1.00
C353   C     0.05267   0.78090   0.01133   0.00000  Uiso   1.00
C354   C     0.28095   0.88515   0.48845   0.00000  Uiso   1.00
C355   C     0.18658   0.98882   0.25936   0.00000  Uiso   1.00
C356   C     0.13934   0.67782   0.25550   0.00000  Uiso   1.00
C357   C     0.12802   0.82939   0.33318   0.00000  Uiso   1.00
C358   C     0.20531   0.83718   0.16680   0.00000  Uiso   1.00
C359   C     0.10471   0.82457   0.38090   0.00000  Uiso   1.00
C360   C     0.22865   0.84178   0.11901   0.00000  Uiso   1.00
C361   C     0.02258   0.79196   0.44496   0.00000  Uiso   1.00
C362   C     0.31092   0.87407   0.05488   0.00000  Uiso   1.00
C363   C     0.04062   0.80443   0.40072   0.00000  Uiso   1.00
C364   C     0.29280   0.86170   0.09915   0.00000  Uiso   1.00
C365   C     0.14903   0.83638   0.40656   0.00000  Uiso   1.00
C366   C     0.18438   0.82991   0.09330   0.00000  Uiso   1.00
C367   C     0.13074   0.82985   0.45198   0.00000  Uiso   1.00
C368   C     0.20276   0.83635   0.04785   0.00000  Uiso   1.00
C369   C     0.06783   0.80248   0.47013   0.00000  Uiso   1.00
C370   C     0.26570   0.86363   0.02969   0.00000  Uiso   1.00
C371   C     0.17500   0.84424   0.47868   0.00000  Uiso   1.00
C372   C     0.15857   0.82195   0.02111   0.00000  Uiso   1.00
Cu373  Cu    0.10737   0.82775   0.24517   0.00000  Uiso   1.00
Cu374  Cu    0.22596   0.83892   0.25484   0.00000  Uiso   1.00
H375   H     0.00642   0.75545   0.02347   0.00000  Uiso   1.00
H376   H     0.32726   0.91051   0.47630   0.00000  Uiso   1.00
H377   H     0.13462   0.81980   0.10964   0.00000  Uiso   1.00
H378   H     0.19877   0.84646   0.39019   0.00000  Uiso   1.00
H379   H     0.32789   0.87129   0.11834   0.00000  Uiso   1.00
H380   H     0.00553   0.79477   0.38152   0.00000  Uiso   1.00
H381   H     0.30719   0.77225   0.45909   0.00000  Uiso   1.00
H382   H     0.02636   0.89364   0.04074   0.00000  Uiso   1.00
H383   H     0.00010   0.86914   0.28613   0.00000  Uiso   1.00
H384   H     0.33279   0.79644   0.21448   0.00000  Uiso   1.00
N385   N     0.31506   0.84735   0.26212   0.00000  Uiso   1.00
N386   N     0.01827   0.81932   0.23788   0.00000  Uiso   1.00
O387   O     0.12815   0.90476   0.24686   0.00000  Uiso   1.00
O388   O     0.20518   0.76191   0.25314   0.00000  Uiso   1.00
O389   O     0.22829   0.91420   0.25503   0.00000  Uiso   1.00
O390   O     0.10504   0.75247   0.24498   0.00000  Uiso   1.00
O391   O     0.08851   0.82597   0.30855   0.00000  Uiso   1.00
O392   O     0.24482   0.84070   0.19146   0.00000  Uiso   1.00
O393   O     0.18866   0.83540   0.31671   0.00000  Uiso   1.00
O394   O     0.14468   0.83126   0.18329   0.00000  Uiso   1.00
Cl395  Cl    0.08194   0.73823   0.07518   0.00000  Uiso   1.00
Cl396  Cl    0.25203   0.92777   0.42440   0.00000  Uiso   1.00
O397   O     0.24314   0.68465   0.26722   0.00000  Uiso   1.00
C398   C     0.23437   0.69239   0.31296   0.00000  Uiso   1.00
H399   H     0.22581   0.98793   0.32962   0.00000  Uiso   1.00
H400   H     0.19461   0.71251   0.32744   0.00000  Uiso   1.00
H401   H     0.27819   0.71803   0.31944   0.00000  Uiso   1.00
O402   O     0.07899   0.98211   0.25540   0.00000  Uiso   1.00
C403   C     0.04214   0.97897   0.29912   0.00000  Uiso   1.00
H404   H     0.04042   0.68512   0.31445   0.00000  Uiso   1.00
H405   H     0.06036   0.95585   0.31921   0.00000  Uiso   1.00
H406   H     0.32608   0.95857   0.29929   0.00000  Uiso   1.00
C407   C     0.51372   0.93315   0.25369   0.00000  Uiso   1.00
C408   C     0.48400   0.73348   0.25084   0.00000  Uiso   1.00
C409   C     0.43208   0.78609   0.03481   0.00000  Uiso   1.00
C410   C     0.56824   0.88003   0.46494   0.00000  Uiso   1.00
C411   C     0.38600   0.78090   0.01133   0.00000  Uiso   1.00
C412   C     0.61428   0.88515   0.48845   0.00000  Uiso   1.00
C413   C     0.51991   0.98882   0.25936   0.00000  Uiso   1.00
C414   C     0.47267   0.67782   0.25550   0.00000  Uiso   1.00
C415   C     0.46136   0.82939   0.33318   0.00000  Uiso   1.00
C416   C     0.53864   0.83718   0.16680   0.00000  Uiso   1.00
C417   C     0.43804   0.82457   0.38090   0.00000  Uiso   1.00
C418   C     0.56199   0.84178   0.11901   0.00000  Uiso   1.00
C419   C     0.35592   0.79196   0.44496   0.00000  Uiso   1.00
C420   C     0.64425   0.87407   0.05488   0.00000  Uiso   1.00
C421   C     0.37395   0.80443   0.40072   0.00000  Uiso   1.00
C422   C     0.62613   0.86170   0.09915   0.00000  Uiso   1.00
C423   C     0.48236   0.83638   0.40656   0.00000  Uiso   1.00
C424   C     0.51772   0.82991   0.09330   0.00000  Uiso   1.00
C425   C     0.46408   0.82985   0.45198   0.00000  Uiso   1.00
C426   C     0.53609   0.83635   0.04785   0.00000  Uiso   1.00
C427   C     0.40116   0.80248   0.47013   0.00000  Uiso   1.00
C428   C     0.59904   0.86363   0.02969   0.00000  Uiso   1.00
C429   C     0.50833   0.84424   0.47868   0.00000  Uiso   1.00
C430   C     0.49191   0.82195   0.02111   0.00000  Uiso   1.00
Cu431  Cu    0.44071   0.82775   0.24517   0.00000  Uiso   1.00
Cu432  Cu    0.55929   0.83892   0.25484   0.00000  Uiso   1.00
H433   H     0.33975   0.75545   0.02347   0.00000  Uiso   1.00
H434   H     0.66059   0.91051   0.47630   0.00000  Uiso   1.00
H435   H     0.46795   0.81980   0.10964   0.00000  Uiso   1.00
H436   H     0.53211   0.84646   0.39019   0.00000  Uiso   1.00
H437   H     0.66122   0.87129   0.11834   0.00000  Uiso   1.00
H438   H     0.33887   0.79477   0.38152   0.00000  Uiso   1.00
H439   H     0.64053   0.77225   0.45909   0.00000  Uiso   1.00
H440   H     0.35969   0.89364   0.04074   0.00000  Uiso   1.00
H441   H     0.33344   0.86914   0.28613   0.00000  Uiso   1.00
H442   H     0.66612   0.79644   0.21448   0.00000  Uiso   1.00
N443   N     0.64839   0.84735   0.26212   0.00000  Uiso   1.00
N444   N     0.35161   0.81932   0.23788   0.00000  Uiso   1.00
O445   O     0.46148   0.90476   0.24686   0.00000  Uiso   1.00
O446   O     0.53852   0.76191   0.25314   0.00000  Uiso   1.00
O447   O     0.56163   0.91420   0.25503   0.00000  Uiso   1.00
O448   O     0.43837   0.75247   0.24498   0.00000  Uiso   1.00
O449   O     0.42185   0.82597   0.30855   0.00000  Uiso   1.00
O450   O     0.57815   0.84070   0.19146   0.00000  Uiso   1.00
O451   O     0.52199   0.83540   0.31671   0.00000  Uiso   1.00
O452   O     0.47801   0.83126   0.18329   0.00000  Uiso   1.00
Cl453  Cl    0.41528   0.73823   0.07518   0.00000  Uiso   1.00
Cl454  Cl    0.58536   0.92777   0.42440   0.00000  Uiso   1.00
O455   O     0.57648   0.68465   0.26722   0.00000  Uiso   1.00
C456   C     0.56770   0.69239   0.31296   0.00000  Uiso   1.00
H457   H     0.55914   0.98793   0.32962   0.00000  Uiso   1.00
H458   H     0.52795   0.71251   0.32744   0.00000  Uiso   1.00
H459   H     0.61152   0.71803   0.31944   0.00000  Uiso   1.00
O460   O     0.41232   0.98211   0.25540   0.00000  Uiso   1.00
C461   C     0.37547   0.97897   0.29912   0.00000  Uiso   1.00
H462   H     0.37375   0.68512   0.31445   0.00000  Uiso   1.00
H463   H     0.39369   0.95585   0.31921   0.00000  Uiso   1.00
H464   H     0.65942   0.95857   0.29929   0.00000  Uiso   1.00
C465   C     0.84705   0.93315   0.25369   0.00000  Uiso   1.00
C466   C     0.81733   0.73348   0.25084   0.00000  Uiso   1.00
C467   C     0.76542   0.78609   0.03481   0.00000  Uiso   1.00
C468   C     0.90157   0.88003   0.46494   0.00000  Uiso   1.00
C469   C     0.71934   0.78090   0.01133   0.00000  Uiso   1.00
C470   C     0.94761   0.88515   0.48845   0.00000  Uiso   1.00
C471   C     0.85325   0.98882   0.25936   0.00000  Uiso   1.00
C472   C     0.80600   0.67782   0.25550   0.00000  Uiso   1.00
C473   C     0.79469   0.82939   0.33318   0.00000  Uiso   1.00
C474   C     0.87198   0.83718   0.16680   0.00000  Uiso   1.00
C475   C     0.77138   0.82457   0.38090   0.00000  Uiso   1.00
C476   C     0.89532   0.84178   0.11901   0.00000  Uiso   1.00
C477   C     0.68925   0.79196   0.44496   0.00000  Uiso   1.00
C478   C     0.97759   0.87407   0.05488   0.00000  Uiso   1.00
C479   C     0.70728   0.80443   0.40072   0.00000  Uiso   1.00
C480   C     0.95947   0.86170   0.09915   0.00000  Uiso   1.00
C481   C     0.81570   0.83638   0.40656   0.00000  Uiso   1.00
C482   C     0.85105   0.82991   0.09330   0.00000  Uiso   1.00
C483   C     0.79741   0.82985   0.45198   0.00000  Uiso   1.00
C484   C     0.86943   0.83635   0.04785   0.00000  Uiso   1.00
C485   C     0.73450   0.80248   0.47013   0.00000  Uiso   1.00
C486   C     0.93237   0.86363   0.02969   0.00000  Uiso   1.00
C487   C     0.84166   0.84424   0.47868   0.00000  Uiso   1.00
C488   C     0.82524   0.82195   0.02111   0.00000  Uiso   1.00
Cu489  Cu    0.77404   0.82775   0.24517   0.00000  Uiso   1.00
Cu490  Cu    0.89263   0.83892   0.25484   0.00000  Uiso   1.00
H491   H     0.67309   0.75545   0.02347   0.00000  Uiso   1.00
H492   H     0.99393   0.91051   0.47630   0.00000  Uiso   1.00
H493   H     0.80129   0.81980   0.10964   0.00000  Uiso   1.00
H494   H     0.86544   0.84646   0.39019   0.00000  Uiso   1.00
H495   H     0.99456   0.87129   0.11834   0.00000  Uiso   1.00
H496   H     0.67220   0.79477   0.38152   0.00000  Uiso   1.00
H497   H     0.97386   0.77225   0.45909   0.00000  Uiso   1.00
H498   H     0.69303   0.89364   0.04074   0.00000  Uiso   1.00
H499   H     0.66677   0.86914   0.28613   0.00000  Uiso   1.00
H500   H     0.99945   0.79644   0.21448   0.00000  Uiso   1.00
N501   N     0.98173   0.84735   0.26212   0.00000  Uiso   1.00
N502   N     0.68494   0.81932   0.23788   0.00000  Uiso   1.00
O503   O     0.79482   0.90476   0.24686   0.00000  Uiso   1.00
O504   O     0.87185   0.76191   0.25314   0.00000  Uiso   1.00
O505   O     0.89496   0.91420   0.25503   0.00000  Uiso   1.00
O506   O     0.77171   0.75247   0.24498   0.00000  Uiso   1.00
O507   O     0.75518   0.82597   0.30855   0.00000  Uiso   1.00
O508   O     0.91149   0.84070   0.19146   0.00000  Uiso   1.00
O509   O     0.85532   0.83540   0.31671   0.00000  Uiso   1.00
O510   O     0.81134   0.83126   0.18329   0.00000  Uiso   1.00
Cl511  Cl    0.74861   0.73823   0.07518   0.00000  Uiso   1.00
Cl512  Cl    0.91870   0.92777   0.42440   0.00000  Uiso   1.00
O513   O     0.90981   0.68465   0.26722   0.00000  Uiso   1.00
C514   C     0.90104   0.69239   0.31296   0.00000  Uiso   1.00
H515   H     0.89248   0.98793   0.32962   0.00000  Uiso   1.00
H516   H     0.86128   0.71251   0.32744   0.00000  Uiso   1.00
H517   H     0.94485   0.71803   0.31944   0.00000  Uiso   1.00
O518   O     0.74566   0.98211   0.25540   0.00000  Uiso   1.00
C519   C     0.70880   0.97897   0.29912   0.00000  Uiso   1.00
H520   H     0.70709   0.68512   0.31445   0.00000  Uiso   1.00
H521   H     0.72702   0.95585   0.31921   0.00000  Uiso   1.00
H522   H     0.99275   0.95857   0.29929   0.00000  Uiso   1.00
C523   C     0.18038   0.26649   0.75369   0.00000  Uiso   1.00
C524   C     0.15066   0.06681   0.75084   0.00000  Uiso   1.00
C525   C     0.09875   0.11942   0.53481   0.00000  Uiso   1.00
C526   C     0.23490   0.21336   0.96494   0.00000  Uiso   1.00
C527   C     0.05267   0.11423   0.51133   0.00000  Uiso   1.00
C528   C     0.28095   0.21849   0.98845   0.00000  Uiso   1.00
C529   C     0.18658   0.32215   0.75936   0.00000  Uiso   1.00
C530   C     0.13934   0.01116   0.75550   0.00000  Uiso   1.00
C531   C     0.12802   0.16273   0.83318   0.00000  Uiso   1.00
C532   C     0.20531   0.17052   0.66680   0.00000  Uiso   1.00
C533   C     0.10471   0.15791   0.88090   0.00000  Uiso   1.00
C534   C     0.22865   0.17511   0.61901   0.00000  Uiso   1.00
C535   C     0.02258   0.12529   0.94496   0.00000  Uiso   1.00
C536   C     0.31092   0.20740   0.55488   0.00000  Uiso   1.00
C537   C     0.04062   0.13776   0.90072   0.00000  Uiso   1.00
C538   C     0.29280   0.19503   0.59915   0.00000  Uiso   1.00
C539   C     0.14903   0.16971   0.90656   0.00000  Uiso   1.00
C540   C     0.18438   0.16324   0.59330   0.00000  Uiso   1.00
C541   C     0.13074   0.16318   0.95198   0.00000  Uiso   1.00
C542   C     0.20276   0.16969   0.54785   0.00000  Uiso   1.00
C543   C     0.06783   0.13581   0.97013   0.00000  Uiso   1.00
C544   C     0.26570   0.19696   0.52969   0.00000  Uiso   1.00
C545   C     0.17500   0.17757   0.97868   0.00000  Uiso   1.00
C546   C     0.15857   0.15528   0.52111   0.00000  Uiso   1.00
Cu547  Cu    0.10737   0.16108   0.74517   0.00000  Uiso   1.00
Cu548  Cu    0.22596   0.17225   0.75484   0.00000  Uiso   1.00
H549   H     0.00642   0.08878   0.52347   0.00000  Uiso   1.00
H550   H     0.32726   0.24384   0.97630   0.00000  Uiso   1.00
H551   H     0.13462   0.15313   0.60964   0.00000  Uiso   1.00
H552   H     0.19877   0.17979   0.89019   0.00000  Uiso   1.00
H553   H     0.32789   0.20462   0.61834   0.00000  Uiso   1.00
H554   H     0.00553   0.12810   0.88152   0.00000  Uiso   1.00
H555   H     0.30719   0.10558   0.95909   0.00000  Uiso   1.00
H556   H     0.02636   0.22697   0.54074   0.00000  Uiso   1.00
H557   H     0.00010   0.20247   0.78613   0.00000  Uiso   1.00
H558   H     0.33279   0.12977   0.71448   0.00000  Uiso   1.00
N559   N     0.31506   0.18068   0.76212   0.00000  Uiso   1.00
N560   N     0.01827   0.15265   0.73788   0.00000  Uiso   1.00
O561   O     0.12815   0.23809   0.74686   0.00000  Uiso   1.00
O562   O     0.20518   0.09524   0.75314   0.00000  Uiso   1.00
O563   O     0.22829   0.24753   0.75503   0.00000  Uiso   1.00
O564   O     0.10504   0.08580   0.74498   0.00000  Uiso   1.00
O565   O     0.08851   0.15930   0.80855   0.00000  Uiso   1.00
O566   O     0.24482   0.17403   0.69146   0.00000  Uiso   1.00
O567   O     0.18866   0.16874   0.81671   0.00000  Uiso   1.00
O568   O     0.14468   0.16460   0.68329   0.00000  Uiso   1.00
Cl569  Cl    0.08194   0.07156   0.57518   0.00000  Uiso   1.00
Cl570  Cl    0.25203   0.26111   0.92440   0.00000  Uiso   1.00
O571   O     0.24314   0.01799   0.76722   0.00000  Uiso   1.00
C572   C     0.23437   0.02572   0.81296   0.00000  Uiso   1.00
H573   H     0.22581   0.32126   0.82962   0.00000  Uiso   1.00
H574   H     0.19461   0.04584   0.82744   0.00000  Uiso   1.00
H575   H     0.27819   0.05137   0.81944   0.00000  Uiso   1.00
O576   O     0.07899   0.31544   0.75540   0.00000  Uiso   1.00
C577   C     0.04214   0.31230   0.79912   0.00000  Uiso   1.00
H578   H     0.04042   0.01845   0.81445   0.00000  Uiso   1.00
H579   H     0.06036   0.28919   0.81921   0.00000  Uiso   1.00
H580   H     0.32608   0.29190   0.79929   0.00000  Uiso   1.00
C581   C     0.51372   0.26649   0.75369   0.00000  Uiso   1.00
C582   C     0.48400   0.06681   0.75084   0.00000  Uiso   1.00
C583   C     0.43208   0.11942   0.53481   0.00000  Uiso   1.00
C584   C     0.56824   0.21336   0.96494   0.00000  Uiso   1.00
C585   C     0.38600   0.11423   0.51133   0.00000  Uiso   1.00
C586   C     0.61428   0.21849   0.98845   0.00000  Uiso   1.00
C587   C     0.51991   0.32215   0.75936   0.00000  Uiso   1.00
C588   C     0.47267   0.01116   0.75550   0.00000  Uiso   1.00
C589   C     0.46136   0.16273   0.83318   0.00000  Uiso   1.00
C590   C     0.53864   0.17052   0.66680   0.00000  Uiso   1.00
C591   C     0.43804   0.15791   0.88090   0.00000  Uiso   1.00
C592   C     0.56199   0.17511   0.61901   0.00000  Uiso   1.00
C593   C     0.35592   0.12529   0.94496   0.00000  Uiso   1.00
C594   C     0.64425   0.20740   0.55488   0.00000  Uiso   1.00
C595   C     0.37395   0.13776   0.90072   0.00000  Uiso   1.00
C596   C     0.62613   0.19503   0.59915   0.00000  Uiso   1.00
C597   C     0.48236   0.16971   0.90656   0.00000  Uiso   1.00
C598   C     0.51772   0.16324   0.59330   0.00000  Uiso   1.00
C599   C     0.46408   0.16318   0.95198   0.00000  Uiso   1.00
C600   C     0.53609   0.16969   0.54785   0.00000  Uiso   1.00
C601   C     0.40116   0.13581   0.97013   0.00000  Uiso   1.00
C602   C     0.59904   0.19696   0.52969   0.00000  Uiso   1.00
C603   C     0.50833   0.17757   0.97868   0.00000  Uiso   1.00
C604   C     0.49191   0.15528   0.52111   0.00000  Uiso   1.00
Cu605  Cu    0.44071   0.16108   0.74517   0.00000  Uiso   1.00
Cu606  Cu    0.55929   0.17225   0.75484   0.00000  Uiso   1.00
H607   H     0.33975   0.08878   0.52347   0.00000  Uiso   1.00
H608   H     0.66059   0.24384   0.97630   0.00000  Uiso   1.00
H609   H     0.46795   0.15313   0.60964   0.00000  Uiso   1.00
H610   H     0.53211   0.17979   0.89019   0.00000  Uiso   1.00
H611   H     0.66122   0.20462   0.61834   0.00000  Uiso   1.00
H612   H     0.33887   0.12810   0.88152   0.00000  Uiso   1.00
H613   H     0.64053   0.10558   0.95909   0.00000  Uiso   1.00
H614   H     0.35969   0.22697   0.54074   0.00000  Uiso   1.00
H615   H     0.33344   0.20247   0.78613   0.00000  Uiso   1.00
H616   H     0.66612   0.12977   0.71448   0.00000  Uiso   1.00
N617   N     0.64839   0.18068   0.76212   0.00000  Uiso   1.00
N618   N     0.35161   0.15265   0.73788   0.00000  Uiso   1.00
O619   O     0.46148   0.23809   0.74686   0.00000  Uiso   1.00
O620   O     0.53852   0.09524   0.75314   0.00000  Uiso   1.00
O621   O     0.56163   0.24753   0.75503   0.00000  Uiso   1.00
O622   O     0.43837   0.08580   0.74498   0.00000  Uiso   1.00
O623   O     0.42185   0.15930   0.80855   0.00000  Uiso   1.00
O624   O     0.57815   0.17403   0.69146   0.00000  Uiso   1.00
O625   O     0.52199   0.16874   0.81671   0.00000  Uiso   1.00
O626   O     0.47801   0.16460   0.68329   0.00000  Uiso   1.00
Cl627  Cl    0.41528   0.07156   0.57518   0.00000  Uiso   1.00
Cl628  Cl    0.58536   0.26111   0.92440   0.00000  Uiso   1.00
O629   O     0.57648   0.01799   0.76722   0.00000  Uiso   1.00
C630   C     0.56770   0.02572   0.81296   0.00000  Uiso   1.00
H631   H     0.55914   0.32126   0.82962   0.00000  Uiso   1.00
H632   H     0.52795   0.04584   0.82744   0.00000  Uiso   1.00
H633   H     0.61152   0.05137   0.81944   0.00000  Uiso   1.00
O634   O     0.41232   0.31544   0.75540   0.00000  Uiso   1.00
C635   C     0.37547   0.31230   0.79912   0.00000  Uiso   1.00
H636   H     0.37375   0.01845   0.81445   0.00000  Uiso   1.00
H637   H     0.39369   0.28919   0.81921   0.00000  Uiso   1.00
H638   H     0.65942   0.29190   0.79929   0.00000  Uiso   1.00
C639   C     0.84705   0.26649   0.75369   0.00000  Uiso   1.00
C640   C     0.81733   0.06681   0.75084   0.00000  Uiso   1.00
C641   C     0.76542   0.11942   0.53481   0.00000  Uiso   1.00
C642   C     0.90157   0.21336   0.96494   0.00000  Uiso   1.00
C643   C     0.71934   0.11423   0.51133   0.00000  Uiso   1.00
C644   C     0.94761   0.21849   0.98845   0.00000  Uiso   1.00
C645   C     0.85325   0.32215   0.75936   0.00000  Uiso   1.00
C646   C     0.80600   0.01116   0.75550   0.00000  Uiso   1.00
C647   C     0.79469   0.16273   0.83318   0.00000  Uiso   1.00
C648   C     0.87198   0.17052   0.66680   0.00000  Uiso   1.00
C649   C     0.77138   0.15791   0.88090   0.00000  Uiso   1.00
C650   C     0.89532   0.17511   0.61901   0.00000  Uiso   1.00
C651   C     0.68925   0.12529   0.94496   0.00000  Uiso   1.00
C652   C     0.97759   0.20740   0.55488   0.00000  Uiso   1.00
C653   C     0.70728   0.13776   0.90072   0.00000  Uiso   1.00
C654   C     0.95947   0.19503   0.59915   0.00000  Uiso   1.00
C655   C     0.81570   0.16971   0.90656   0.00000  Uiso   1.00
C656   C     0.85105   0.16324   0.59330   0.00000  Uiso   1.00
C657   C     0.79741   0.16318   0.95198   0.00000  Uiso   1.00
C658   C     0.86943   0.16969   0.54785   0.00000  Uiso   1.00
C659   C     0.73450   0.13581   0.97013   0.00000  Uiso   1.00
C660   C     0.93237   0.19696   0.52969   0.00000  Uiso   1.00
C661   C     0.84166   0.17757   0.97868   0.00000  Uiso   1.00
C662   C     0.82524   0.15528   0.52111   0.00000  Uiso   1.00
Cu663  Cu    0.77404   0.16108   0.74517   0.00000  Uiso   1.00
Cu664  Cu    0.89263   0.17225   0.75484   0.00000  Uiso   1.00
H665   H     0.67309   0.08878   0.52347   0.00000  Uiso   1.00
H666   H     0.99393   0.24384   0.97630   0.00000  Uiso   1.00
H667   H     0.80129   0.15313   0.60964   0.00000  Uiso   1.00
H668   H     0.86544   0.17979   0.89019   0.00000  Uiso   1.00
H669   H     0.99456   0.20462   0.61834   0.00000  Uiso   1.00
H670   H     0.67220   0.12810   0.88152   0.00000  Uiso   1.00
H671   H     0.97386   0.10558   0.95909   0.00000  Uiso   1.00
H672   H     0.69303   0.22697   0.54074   0.00000  Uiso   1.00
H673   H     0.66677   0.20247   0.78613   0.00000  Uiso   1.00
H674   H     0.99945   0.12977   0.71448   0.00000  Uiso   1.00
N675   N     0.98173   0.18068   0.76212   0.00000  Uiso   1.00
N676   N     0.68494   0.15265   0.73788   0.00000  Uiso   1.00
O677   O     0.79482   0.23809   0.74686   0.00000  Uiso   1.00
O678   O     0.87185   0.09524   0.75314   0.00000  Uiso   1.00
O679   O     0.89496   0.24753   0.75503   0.00000  Uiso   1.00
O680   O     0.77171   0.08580   0.74498   0.00000  Uiso   1.00
O681   O     0.75518   0.15930   0.80855   0.00000  Uiso   1.00
O682   O     0.91149   0.17403   0.69146   0.00000  Uiso   1.00
O683   O     0.85532   0.16874   0.81671   0.00000  Uiso   1.00
O684   O     0.81134   0.16460   0.68329   0.00000  Uiso   1.00
Cl685  Cl    0.74861   0.07156   0.57518   0.00000  Uiso   1.00
Cl686  Cl    0.91870   0.26111   0.92440   0.00000  Uiso   1.00
O687   O     0.90981   0.01799   0.76722   0.00000  Uiso   1.00
C688   C     0.90104   0.02572   0.81296   0.00000  Uiso   1.00
H689   H     0.89248   0.32126   0.82962   0.00000  Uiso   1.00
H690   H     0.86128   0.04584   0.82744   0.00000  Uiso   1.00
H691   H     0.94485   0.05137   0.81944   0.00000  Uiso   1.00
O692   O     0.74566   0.31544   0.75540   0.00000  Uiso   1.00
C693   C     0.70880   0.31230   0.79912   0.00000  Uiso   1.00
H694   H     0.70709   0.01845   0.81445   0.00000  Uiso   1.00
H695   H     0.72702   0.28919   0.81921   0.00000  Uiso   1.00
H696   H     0.99275   0.29190   0.79929   0.00000  Uiso   1.00
C697   C     0.18038   0.59982   0.75369   0.00000  Uiso   1.00
C698   C     0.15066   0.40014   0.75084   0.00000  Uiso   1.00
C699   C     0.09875   0.45275   0.53481   0.00000  Uiso   1.00
C700   C     0.23490   0.54669   0.96494   0.00000  Uiso   1.00
C701   C     0.05267   0.44756   0.51133   0.00000  Uiso   1.00
C702   C     0.28095   0.55182   0.98845   0.00000  Uiso   1.00
C703   C     0.18658   0.65548   0.75936   0.00000  Uiso   1.00
C704   C     0.13934   0.34449   0.75550   0.00000  Uiso   1.00
C705   C     0.12802   0.49606   0.83318   0.00000  Uiso   1.00
C706   C     0.20531   0.50385   0.66680   0.00000  Uiso   1.00
C707   C     0.10471   0.49124   0.88090   0.00000  Uiso   1.00
C708   C     0.22865   0.50844   0.61901   0.00000  Uiso   1.00
C709   C     0.02258   0.45862   0.94496   0.00000  Uiso   1.00
C710   C     0.31092   0.54073   0.55488   0.00000  Uiso   1.00
C711   C     0.04062   0.47110   0.90072   0.00000  Uiso   1.00
C712   C     0.29280   0.52837   0.59915   0.00000  Uiso   1.00
C713   C     0.14903   0.50305   0.90656   0.00000  Uiso   1.00
C714   C     0.18438   0.49657   0.59330   0.00000  Uiso   1.00
C715   C     0.13074   0.49651   0.95198   0.00000  Uiso   1.00
C716   C     0.20276   0.50302   0.54785   0.00000  Uiso   1.00
C717   C     0.06783   0.46914   0.97013   0.00000  Uiso   1.00
C718   C     0.26570   0.53029   0.52969   0.00000  Uiso   1.00
C719   C     0.17500   0.51090   0.97868   0.00000  Uiso   1.00
C720   C     0.15857   0.48862   0.52111   0.00000  Uiso   1.00
Cu721  Cu    0.10737   0.49441   0.74517   0.00000  Uiso   1.00
Cu722  Cu    0.22596   0.50559   0.75484   0.00000  Uiso   1.00
H723   H     0.00642   0.42211   0.52347   0.00000  Uiso   1.00
H724   H     0.32726   0.57717   0.97630   0.00000  Uiso   1.00
H725   H     0.13462   0.48647   0.60964   0.00000  Uiso   1.00
H726   H     0.19877   0.51313   0.89019   0.00000  Uiso   1.00
H727   H     0.32789   0.53795   0.61834   0.00000  Uiso   1.00
H728   H     0.00553   0.46143   0.88152   0.00000  Uiso   1.00
H729   H     0.30719   0.43892   0.95909   0.00000  Uiso   1.00
H730   H     0.02636   0.56030   0.54074   0.00000  Uiso   1.00
H731   H     0.00010   0.53580   0.78613   0.00000  Uiso   1.00
H732   H     0.33279   0.46310   0.71448   0.00000  Uiso   1.00
N733   N     0.31506   0.51401   0.76212   0.00000  Uiso   1.00
N734   N     0.01827   0.48599   0.73788   0.00000  Uiso   1.00
O735   O     0.12815   0.57142   0.74686   0.00000  Uiso   1.00
O736   O     0.20518   0.42858   0.75314   0.00000  Uiso   1.00
O737   O     0.22829   0.58086   0.75503   0.00000  Uiso   1.00
O738   O     0.10504   0.41914   0.74498   0.00000  Uiso   1.00
O739   O     0.08851   0.49263   0.80855   0.00000  Uiso   1.00
O740   O     0.24482   0.50737   0.69146   0.00000  Uiso   1.00
O741   O     0.18866   0.50207   0.81671   0.00000  Uiso   1.00
O742   O     0.14468   0.49793   0.68329   0.00000  Uiso   1.00
Cl743  Cl    0.08194   0.40490   0.57518   0.00000  Uiso   1.00
Cl744  Cl    0.25203   0.59444   0.92440   0.00000  Uiso   1.00
O745   O     0.24314   0.35132   0.76722   0.00000  Uiso   1.00
C746   C     0.23437   0.35906   0.81296   0.00000  Uiso   1.00
H747   H     0.22581   0.65459   0.82962   0.00000  Uiso   1.00
H748   H     0.19461   0.37917   0.82744   0.00000  Uiso   1.00
H749   H     0.27819   0.38470   0.81944   0.00000  Uiso   1.00
O750   O     0.07899   0.64877   0.75540   0.00000  Uiso   1.00
C751   C     0.04214   0.64564   0.79912   0.00000  Uiso   1.00
H752   H     0.04042   0.35179   0.81445   0.00000  Uiso   1.00
H753   H     0.06036   0.62252   0.81921   0.00000  Uiso   1.00
H754   H     0.32608   0.62524   0.79929   0.00000  Uiso   1.00
C755   C     0.51372   0.59982   0.75369   0.00000  Uiso   1.00
C756   C     0.48400   0.40014   0.75084   0.00000  Uiso   1.00
C757   C     0.43208   0.45275   0.53481   0.00000  Uiso   1.00
C758   C     0.56824   0.54669   0.96494   0.00000  Uiso   1.00
C759   C     0.38600   0.44756   0.51133   0.00000  Uiso   1.00
C760   C     0.61428   0.55182   0.98845   0.00000  Uiso   1.00
C761   C     0.51991   0.65548   0.75936   0.00000  Uiso   1.00
C762   C     0.47267   0.34449   0.75550   0.00000  Uiso   1.00
C763   C     0.46136   0.49606   0.83318   0.00000  Uiso   1.00
C764   C     0.53864   0.50385   0.66680   0.00000  Uiso   1.00
C765   C     0.43804   0.49124   0.88090   0.00000  Uiso   1.00
C766   C     0.56199   0.50844   0.61901   0.00000  Uiso   1.00
C767   C     0.35592   0.45862   0.94496   0.00000  Uiso   1.00
C768   C     0.64425   0.54073   0.55488   0.00000  Uiso   1.00
C769   C     0.37395   0.47110   0.90072   0.00000  Uiso   1.00
C770   C     0.62613   0.52837   0.59915   0.00000  Uiso   1.00
C771   C     0.48236   0.50305   0.90656   0.00000  Uiso   1.00
C772   C     0.51772   0.49657   0.59330   0.00000  Uiso   1.00
C773   C     0.46408   0.49651   0.95198   0.00000  Uiso   1.00
C774   C     0.53609   0.50302   0.54785   0.00000  Uiso   1.00
C775   C     0.40116   0.46914   0.97013   0.00000  Uiso   1.00
C776   C     0.59904   0.53029   0.52969   0.00000  Uiso   1.00
C777   C     0.50833   0.51090   0.97868   0.00000  Uiso   1.00
C778   C     0.49191   0.48862   0.52111   0.00000  Uiso   1.00
Cu779  Cu    0.44071   0.49441   0.74517   0.00000  Uiso   1.00
Cu780  Cu    0.55929   0.50559   0.75484   0.00000  Uiso   1.00
H781   H     0.33975   0.42211   0.52347   0.00000  Uiso   1.00
H782   H     0.66059   0.57717   0.97630   0.00000  Uiso   1.00
H783   H     0.46795   0.48647   0.60964   0.00000  Uiso   1.00
H784   H     0.53211   0.51313   0.89019   0.00000  Uiso   1.00
H785   H     0.66122   0.53795   0.61834   0.00000  Uiso   1.00
H786   H     0.33887   0.46143   0.88152   0.00000  Uiso   1.00
H787   H     0.64053   0.43892   0.95909   0.00000  Uiso   1.00
H788   H     0.35969   0.56030   0.54074   0.00000  Uiso   1.00
H789   H     0.33344   0.53580   0.78613   0.00000  Uiso   1.00
H790   H     0.66612   0.46310   0.71448   0.00000  Uiso   1.00
N791   N     0.64839   0.51401   0.76212   0.00000  Uiso   1.00
N792   N     0.35161   0.48599   0.73788   0.00000  Uiso   1.00
O793   O     0.46148   0.57142   0.74686   0.00000  Uiso   1.00
O794   O     0.53852   0.42858   0.75314   0.00000  Uiso   1.00
O795   O     0.56163   0.58086   0.75503   0.00000  Uiso   1.00
O796   O     0.43837   0.41914   0.74498   0.00000  Uiso   1.00
O797   O     0.42185   0.49263   0.80855   0.00000  Uiso   1.00
O798   O     0.57815   0.50737   0.69146   0.00000  Uiso   1.00
O799   O     0.52199   0.50207   0.81671   0.00000  Uiso   1.00
O800   O     0.47801   0.49793   0.68329   0.00000  Uiso   1.00
Cl801  Cl    0.41528   0.40490   0.57518   0.00000  Uiso   1.00
Cl802  Cl    0.58536   0.59444   0.92440   0.00000  Uiso   1.00
O803   O     0.57648   0.35132   0.76722   0.00000  Uiso   1.00
C804   C     0.56770   0.35906   0.81296   0.00000  Uiso   1.00
H805   H     0.55914   0.65459   0.82962   0.00000  Uiso   1.00
H806   H     0.52795   0.37917   0.82744   0.00000  Uiso   1.00
H807   H     0.61152   0.38470   0.81944   0.00000  Uiso   1.00
O808   O     0.41232   0.64877   0.75540   0.00000  Uiso   1.00
C809   C     0.37547   0.64564   0.79912   0.00000  Uiso   1.00
H810   H     0.37375   0.35179   0.81445   0.00000  Uiso   1.00
H811   H     0.39369   0.62252   0.81921   0.00000  Uiso   1.00
H812   H     0.65942   0.62524   0.79929   0.00000  Uiso   1.00
C813   C     0.84705   0.59982   0.75369   0.00000  Uiso   1.00
C814   C     0.81733   0.40014   0.75084   0.00000  Uiso   1.00
C815   C     0.76542   0.45275   0.53481   0.00000  Uiso   1.00
C816   C     0.90157   0.54669   0.96494   0.00000  Uiso   1.00
C817   C     0.71934   0.44756   0.51133   0.00000  Uiso   1.00
C818   C     0.94761   0.55182   0.98845   0.00000  Uiso   1.00
C819   C     0.85325   0.65548   0.75936   0.00000  Uiso   1.00
C820   C     0.80600   0.34449   0.75550   0.00000  Uiso   1.00
C821   C     0.79469   0.49606   0.83318   0.00000  Uiso   1.00
C822   C     0.87198   0.50385   0.66680   0.00000  Uiso   1.00
C823   C     0.77138   0.49124   0.88090   0.00000  Uiso   1.00
C824   C     0.89532   0.50844   0.61901   0.00000  Uiso   1.00
C825   C     0.68925   0.45862   0.94496   0.00000  Uiso   1.00
C826   C     0.97759   0.54073   0.55488   0.00000  Uiso   1.00
C827   C     0.70728   0.47110   0.90072   0.00000  Uiso   1.00
C828   C     0.95947   0.52837   0.59915   0.00000  Uiso   1.00
C829   C     0.81570   0.50305   0.90656   0.00000  Uiso   1.00
C830   C     0.85105   0.49657   0.59330   0.00000  Uiso   1.00
C831   C     0.79741   0.49651   0.95198   0.00000  Uiso   1.00
C832   C     0.86943   0.50302   0.54785   0.00000  Uiso   1.00
C833   C     0.73450   0.46914   0.97013   0.00000  Uiso   1.00
C834   C     0.93237   0.53029   0.52969   0.00000  Uiso   1.00
C835   C     0.84166   0.51090   0.97868   0.00000  Uiso   1.00
C836   C     0.82524   0.48862   0.52111   0.00000  Uiso   1.00
Cu837  Cu    0.77404   0.49441   0.74517   0.00000  Uiso   1.00
Cu838  Cu    0.89263   0.50559   0.75484   0.00000  Uiso   1.00
H839   H     0.67309   0.42211   0.52347   0.00000  Uiso   1.00
H840   H     0.99393   0.57717   0.97630   0.00000  Uiso   1.00
H841   H     0.80129   0.48647   0.60964   0.00000  Uiso   1.00
H842   H     0.86544   0.51313   0.89019   0.00000  Uiso   1.00
H843   H     0.99456   0.53795   0.61834   0.00000  Uiso   1.00
H844   H     0.67220   0.46143   0.88152   0.00000  Uiso   1.00
H845   H     0.97386   0.43892   0.95909   0.00000  Uiso   1.00
H846   H     0.69303   0.56030   0.54074   0.00000  Uiso   1.00
H847   H     0.66677   0.53580   0.78613   0.00000  Uiso   1.00
H848   H     0.99945   0.46310   0.71448   0.00000  Uiso   1.00
N849   N     0.98173   0.51401   0.76212   0.00000  Uiso   1.00
N850   N     0.68494   0.48599   0.73788   0.00000  Uiso   1.00
O851   O     0.79482   0.57142   0.74686   0.00000  Uiso   1.00
O852   O     0.87185   0.42858   0.75314   0.00000  Uiso   1.00
O853   O     0.89496   0.58086   0.75503   0.00000  Uiso   1.00
O854   O     0.77171   0.41914   0.74498   0.00000  Uiso   1.00
O855   O     0.75518   0.49263   0.80855   0.00000  Uiso   1.00
O856   O     0.91149   0.50737   0.69146   0.00000  Uiso   1.00
O857   O     0.85532   0.50207   0.81671   0.00000  Uiso   1.00
O858   O     0.81134   0.49793   0.68329   0.00000  Uiso   1.00
Cl859  Cl    0.74861   0.40490   0.57518   0.00000  Uiso   1.00
Cl860  Cl    0.91870   0.59444   0.92440   0.00000  Uiso   1.00
O861   O     0.90981   0.35132   0.76722   0.00000  Uiso   1.00
C862   C     0.90104   0.35906   0.81296   0.00000  Uiso   1.00
H863   H     0.89248   0.65459   0.82962   0.00000  Uiso   1.00
H864   H     0.86128   0.37917   0.82744   0.00000  Uiso   1.00
H865   H     0.94485   0.38470   0.81944   0.00000  Uiso   1.00
O866   O     0.74566   0.64877   0.75540   0.00000  Uiso   1.00
C867   C     0.70880   0.64564   0.79912   0.00000  Uiso   1.00
H868   H     0.70709   0.35179   0.81445   0.00000  Uiso   1.00
H869   H     0.72702   0.62252   0.81921   0.00000  Uiso   1.00
H870   H     0.99275   0.62524   0.79929   0.00000  Uiso   1.00
C871   C     0.18038   0.93315   0.75369   0.00000  Uiso   1.00
C872   C     0.15066   0.73348   0.75084   0.00000  Uiso   1.00
C873   C     0.09875   0.78609   0.53481   0.00000  Uiso   1.00
C874   C     0.23490   0.88003   0.96494   0.00000  Uiso   1.00
C875   C     0.05267   0.78090   0.51133   0.00000  Uiso   1.00
C876   C     0.28095   0.88515   0.98845   0.00000  Uiso   1.00
C877   C     0.18658   0.98882   0.75936   0.00000  Uiso   1.00
C878   C     0.13934   0.67782   0.75550   0.00000  Uiso   1.00
C879   C     0.12802   0.82939   0.83318   0.00000  Uiso   1.00
C880   C     0.20531   0.83718   0.66680   0.00000  Uiso   1.00
C881   C     0.10471   0.82457   0.88090   0.00000  Uiso   1.00
C882   C     0.22865   0.84178   0.61901   0.00000  Uiso   1.00
C883   C     0.02258   0.79196   0.94496   0.00000  Uiso   1.00
C884   C     0.31092   0.87407   0.55488   0.00000  Uiso   1.00
C885   C     0.04062   0.80443   0.90072   0.00000  Uiso   1.00
C886   C     0.29280   0.86170   0.59915   0.00000  Uiso   1.00
C887   C     0.14903   0.83638   0.90656   0.00000  Uiso   1.00
C888   C     0.18438   0.82991   0.59330   0.00000  Uiso   1.00
C889   C     0.13074   0.82985   0.95198   0.00000  Uiso   1.00
C890   C     0.20276   0.83635   0.54785   0.00000  Uiso   1.00
C891   C     0.06783   0.80248   0.97013   0.00000  Uiso   1.00
C892   C     0.26570   0.86363   0.52969   0.00000  Uiso   1.00
C893   C     0.17500   0.84424   0.97868   0.00000  Uiso   1.00
C894   C     0.15857   0.82195   0.52111   0.00000  Uiso   1.00
Cu895  Cu    0.10737   0.82775   0.74517   0.00000  Uiso   1.00
Cu896  Cu    0.22596   0.83892   0.75484   0.00000  Uiso   1.00
H897   H     0.00642   0.75545   0.52347   0.00000  Uiso   1.00
H898   H     0.32726   0.91051   0.97630   0.00000  Uiso   1.00
H899   H     0.13462   0.81980   0.60964   0.00000  Uiso   1.00
H900   H     0.19877   0.84646   0.89019   0.00000  Uiso   1.00
H901   H     0.32789   0.87129   0.61834   0.00000  Uiso   1.00
H902   H     0.00553   0.79477   0.88152   0.00000  Uiso   1.00
H903   H     0.30719   0.77225   0.95909   0.00000  Uiso   1.00
H904   H     0.02636   0.89364   0.54074   0.00000  Uiso   1.00
H905   H     0.00010   0.86914   0.78613   0.00000  Uiso   1.00
H906   H     0.33279   0.79644   0.71448   0.00000  Uiso   1.00
N907   N     0.31506   0.84735   0.76212   0.00000  Uiso   1.00
N908   N     0.01827   0.81932   0.73788   0.00000  Uiso   1.00
O909   O     0.12815   0.90476   0.74686   0.00000  Uiso   1.00
O910   O     0.20518   0.76191   0.75314   0.00000  Uiso   1.00
O911   O     0.22829   0.91420   0.75503   0.00000  Uiso   1.00
O912   O     0.10504   0.75247   0.74498   0.00000  Uiso   1.00
O913   O     0.08851   0.82597   0.80855   0.00000  Uiso   1.00
O914   O     0.24482   0.84070   0.69146   0.00000  Uiso   1.00
O915   O     0.18866   0.83540   0.81671   0.00000  Uiso   1.00
O916   O     0.14468   0.83126   0.68329   0.00000  Uiso   1.00
Cl917  Cl    0.08194   0.73823   0.57518   0.00000  Uiso   1.00
Cl918  Cl    0.25203   0.92777   0.92440   0.00000  Uiso   1.00
O919   O     0.24314   0.68465   0.76722   0.00000  Uiso   1.00
C920   C     0.23437   0.69239   0.81296   0.00000  Uiso   1.00
H921   H     0.22581   0.98793   0.82962   0.00000  Uiso   1.00
H922   H     0.19461   0.71251   0.82744   0.00000  Uiso   1.00
H923   H     0.27819   0.71803   0.81944   0.00000  Uiso   1.00
O924   O     0.07899   0.98211   0.75540   0.00000  Uiso   1.00
C925   C     0.04214   0.97897   0.79912   0.00000  Uiso   1.00
H926   H     0.04042   0.68512   0.81445   0.00000  Uiso   1.00
H927   H     0.06036   0.95585   0.81921   0.00000  Uiso   1.00
H928   H     0.32608   0.95857   0.79929   0.00000  Uiso   1.00
C929   C     0.51372   0.93315   0.75369   0.00000  Uiso   1.00
C930   C     0.48400   0.73348   0.75084   0.00000  Uiso   1.00
C931   C     0.43208   0.78609   0.53481   0.00000  Uiso   1.00
C932   C     0.56824   0.88003   0.96494   0.00000  Uiso   1.00
C933   C     0.38600   0.78090   0.51133   0.00000  Uiso   1.00
C934   C     0.61428   0.88515   0.98845   0.00000  Uiso   1.00
C935   C     0.51991   0.98882   0.75936   0.00000  Uiso   1.00
C936   C     0.47267   0.67782   0.75550   0.00000  Uiso   1.00
C937   C     0.46136   0.82939   0.83318   0.00000  Uiso   1.00
C938   C     0.53864   0.83718   0.66680   0.00000  Uiso   1.00
C939   C     0.43804   0.82457   0.88090   0.00000  Uiso   1.00
C940   C     0.56199   0.84178   0.61901   0.00000  Uiso   1.00
C941   C     0.35592   0.79196   0.94496   0.00000  Uiso   1.00
C942   C     0.64425   0.87407   0.55488   0.00000  Uiso   1.00
C943   C     0.37395   0.80443   0.90072   0.00000  Uiso   1.00
C944   C     0.62613   0.86170   0.59915   0.00000  Uiso   1.00
C945   C     0.48236   0.83638   0.90656   0.00000  Uiso   1.00
C946   C     0.51772   0.82991   0.59330   0.00000  Uiso   1.00
C947   C     0.46408   0.82985   0.95198   0.00000  Uiso   1.00
C948   C     0.53609   0.83635   0.54785   0.00000  Uiso   1.00
C949   C     0.40116   0.80248   0.97013   0.00000  Uiso   1.00
C950   C     0.59904   0.86363   0.52969   0.00000  Uiso   1.00
C951   C     0.50833   0.84424   0.97868   0.00000  Uiso   1.00
C952   C     0.49191   0.82195   0.52111   0.00000  Uiso   1.00
Cu953  Cu    0.44071   0.82775   0.74517   0.00000  Uiso   1.00
Cu954  Cu    0.55929   0.83892   0.75484   0.00000  Uiso   1.00
H955   H     0.33975   0.75545   0.52347   0.00000  Uiso   1.00
H956   H     0.66059   0.91051   0.97630   0.00000  Uiso   1.00
H957   H     0.46795   0.81980   0.60964   0.00000  Uiso   1.00
H958   H     0.53211   0.84646   0.89019   0.00000  Uiso   1.00
H959   H     0.66122   0.87129   0.61834   0.00000  Uiso   1.00
H960   H     0.33887   0.79477   0.88152   0.00000  Uiso   1.00
H961   H     0.64053   0.77225   0.95909   0.00000  Uiso   1.00
H962   H     0.35969   0.89364   0.54074   0.00000  Uiso   1.00
H963   H     0.33344   0.86914   0.78613   0.00000  Uiso   1.00
H964   H     0.66612   0.79644   0.71448   0.00000  Uiso   1.00
N965   N     0.64839   0.84735   0.76212   0.00000  Uiso   1.00
N966   N     0.35161   0.81932   0.73788   0.00000  Uiso   1.00
O967   O     0.46148   0.90476   0.74686   0.00000  Uiso   1.00
O968   O     0.53852   0.76191   0.75314   0.00000  Uiso   1.00
O969   O     0.56163   0.91420   0.75503   0.00000  Uiso   1.00
O970   O     0.43837   0.75247   0.74498   0.00000  Uiso   1.00
O971   O     0.42185   0.82597   0.80855   0.00000  Uiso   1.00
O972   O     0.57815   0.84070   0.69146   0.00000  Uiso   1.00
O973   O     0.52199   0.83540   0.81671   0.00000  Uiso   1.00
O974   O     0.47801   0.83126   0.68329   0.00000  Uiso   1.00
Cl975  Cl    0.41528   0.73823   0.57518   0.00000  Uiso   1.00
Cl976  Cl    0.58536   0.92777   0.92440   0.00000  Uiso   1.00
O977   O     0.57648   0.68465   0.76722   0.00000  Uiso   1.00
C978   C     0.56770   0.69239   0.81296   0.00000  Uiso   1.00
H979   H     0.55914   0.98793   0.82962   0.00000  Uiso   1.00
H980   H     0.52795   0.71251   0.82744   0.00000  Uiso   1.00
H981   H     0.61152   0.71803   0.81944   0.00000  Uiso   1.00
O982   O     0.41232   0.98211   0.75540   0.00000  Uiso   1.00
C983   C     0.37547   0.97897   0.79912   0.00000  Uiso   1.00
H984   H     0.37375   0.68512   0.81445   0.00000  Uiso   1.00
H985   H     0.39369   0.95585   0.81921   0.00000  Uiso   1.00
H986   H     0.65942   0.95857   0.79929   0.00000  Uiso   1.00
C987   C     0.84705   0.93315   0.75369   0.00000  Uiso   1.00
C988   C     0.81733   0.73348   0.75084   0.00000  Uiso   1.00
C989   C     0.76542   0.78609   0.53481   0.00000  Uiso   1.00
C990   C     0.90157   0.88003   0.96494   0.00000  Uiso   1.00
C991   C     0.71934   0.78090   0.51133   0.00000  Uiso   1.00
C992   C     0.94761   0.88515   0.98845   0.00000  Uiso   1.00
C993   C     0.85325   0.98882   0.75936   0.00000  Uiso   1.00
C994   C     0.80600   0.67782   0.75550   0.00000  Uiso   1.00
C995   C     0.79469   0.82939   0.83318   0.00000  Uiso   1.00
C996   C     0.87198   0.83718   0.66680   0.00000  Uiso   1.00
C997   C     0.77138   0.82457   0.88090   0.00000  Uiso   1.00
C998   C     0.89532   0.84178   0.61901   0.00000  Uiso   1.00
C999   C     0.68925   0.79196   0.94496   0.00000  Uiso   1.00
C1000  C     0.97759   0.87407   0.55488   0.00000  Uiso   1.00
C1001  C     0.70728   0.80443   0.90072   0.00000  Uiso   1.00
C1002  C     0.95947   0.86170   0.59915   0.00000  Uiso   1.00
C1003  C     0.81570   0.83638   0.90656   0.00000  Uiso   1.00
C1004  C     0.85105   0.82991   0.59330   0.00000  Uiso   1.00
C1005  C     0.79741   0.82985   0.95198   0.00000  Uiso   1.00
C1006  C     0.86943   0.83635   0.54785   0.00000  Uiso   1.00
C1007  C     0.73450   0.80248   0.97013   0.00000  Uiso   1.00
C1008  C     0.93237   0.86363   0.52969   0.00000  Uiso   1.00
C1009  C     0.84166   0.84424   0.97868   0.00000  Uiso   1.00
C1010  C     0.82524   0.82195   0.52111   0.00000  Uiso   1.00
Cu1011 Cu    0.77404   0.82775   0.74517   0.00000  Uiso   1.00
Cu1012 Cu    0.89263   0.83892   0.75484   0.00000  Uiso   1.00
H1013  H     0.67309   0.75545   0.52347   0.00000  Uiso   1.00
H1014  H     0.99393   0.91051   0.97630   0.00000  Uiso   1.00
H1015  H     0.80129   0.81980   0.60964   0.00000  Uiso   1.00
H1016  H     0.86544   0.84646   0.89019   0.00000  Uiso   1.00
H1017  H     0.99456   0.87129   0.61834   0.00000  Uiso   1.00
H1018  H     0.67220   0.79477   0.88152   0.00000  Uiso   1.00
H1019  H     0.97386   0.77225   0.95909   0.00000  Uiso   1.00
H1020  H     0.69303   0.89364   0.54074   0.00000  Uiso   1.00
H1021  H     0.66677   0.86914   0.78613   0.00000  Uiso   1.00
H1022  H     0.99945   0.79644   0.71448   0.00000  Uiso   1.00
N1023  N     0.98173   0.84735   0.76212   0.00000  Uiso   1.00
N1024  N     0.68494   0.81932   0.73788   0.00000  Uiso   1.00
O1025  O     0.79482   0.90476   0.74686   0.00000  Uiso   1.00
O1026  O     0.87185   0.76191   0.75314   0.00000  Uiso   1.00
O1027  O     0.89496   0.91420   0.75503   0.00000  Uiso   1.00
O1028  O     0.77171   0.75247   0.74498   0.00000  Uiso   1.00
O1029  O     0.75518   0.82597   0.80855   0.00000  Uiso   1.00
O1030  O     0.91149   0.84070   0.69146   0.00000  Uiso   1.00
O1031  O     0.85532   0.83540   0.81671   0.00000  Uiso   1.00
O1032  O     0.81134   0.83126   0.68329   0.00000  Uiso   1.00
Cl1033 Cl    0.74861   0.73823   0.57518   0.00000  Uiso   1.00
Cl1034 Cl    0.91870   0.92777   0.92440   0.00000  Uiso   1.00
O1035  O     0.90981   0.68465   0.76722   0.00000  Uiso   1.00
C1036  C     0.90104   0.69239   0.81296   0.00000  Uiso   1.00
H1037  H     0.89248   0.98793   0.82962   0.00000  Uiso   1.00
H1038  H     0.86128   0.71251   0.82744   0.00000  Uiso   1.00
H1039  H     0.94485   0.71803   0.81944   0.00000  Uiso   1.00
O1040  O     0.74566   0.98211   0.75540   0.00000  Uiso   1.00
C1041  C     0.70880   0.97897   0.79912   0.00000  Uiso   1.00
H1042  H     0.70709   0.68512   0.81445   0.00000  Uiso   1.00
H1043  H     0.72702   0.95585   0.81921   0.00000  Uiso   1.00
H1044  H     0.99275   0.95857   0.79929   0.00000  Uiso   1.00
loop_
_geom_bond_atom_site_label_1
_geom_bond_atom_site_label_2
_geom_bond_distance
_geom_bond_site_symmetry_2
_ccdc_geom_bond_type
C1     O41     1.287   .     A
C1     C7      1.436   .     S
C1     O39     1.290   .     A
C2     O42     1.288   .     A
C2     O40     1.289   .     A
C2     C8      1.436   .     S
C3     C24     1.429   .     A
C3     Cl47    1.769   .     S
C3     C5      1.391   .     A
C4     C6      1.391   .     A
C4     Cl48    1.770   .     S
C4     C23     1.430   .     A
C5     H27     1.085   .     S
C5     C543    1.389   1_554 S
C6     H28     1.085   .     S
C6     C544    1.389   .     S
C7     C182    1.351   .     S
C7     O223    1.388   .     S
C8     C355    1.351   1_545 S
C8     O402    1.387   1_545 S
C9     O45     1.294   .     A
C9     C11     1.468   .     S
C9     O43     1.302   .     A
C10    C12     1.470   .     S
C10    O46     1.295   .     A
C10    O44     1.302   .     A
C11    C15     1.399   .     A
C11    C17     1.401   .     A
C12    C16     1.399   .     A
C12    C18     1.401   .     A
C13    C15     1.394   .     A
C13    C21     1.406   .     A
C13    H149    1.084   1_455 S
C14    C22     1.406   .     A
C14    C16     1.395   .     A
C14    H92     1.084   .     S
C15    H32     1.083   .     S
C16    H31     1.083   .     S
C17    H30     1.076   .     S
C17    C19     1.400   .     A
C18    H29     1.077   .     S
C18    C20     1.401   .     A
C19    C23     1.427   .     A
C19    C21     1.414   .     A
C20    C22     1.414   .     A
C20    C24     1.427   .     A
C21    C527    1.389   .     S
C22    C528    1.389   1_554 S
C23    C546    1.430   .     S
C24    C545    1.430   1_554 S
Cu25   O42     1.963   .     S
Cu25   N38     2.017   .     S
Cu25   O43     1.940   .     S
Cu25   O39     1.966   .     S
Cu25   Cu26    2.685   .     S
Cu25   O46     1.918   .     S
Cu26   N37     2.017   .     S
Cu26   O40     1.966   .     S
Cu26   O44     1.940   .     S
Cu26   O45     1.918   .     S
Cu26   O41     1.963   .     S
H33    C71     1.084   .     S
H34    C130    1.084   1_455 S
H35    N153    1.028   1_455 S
H36    N96     1.029   .     S
N37    H93     1.028   .     S
N37    N96     1.287   .     S
N38    H152    1.029   1_455 S
N38    N153    1.287   1_455 S
O49    C50     1.413   .     S
O49    C355    1.388   1_545 S
C50    H52     1.114   .     S
C50    H53     1.109   .     S
C50    H399    1.113   1_545 S
H51    C224    1.113   .     S
O54    C55     1.412   .     S
O54    C182    1.387   .     S
C55    H57     1.113   .     S
C55    H230    1.113   .     S
C55    H174    1.107   1_455 S
H56    C403    1.113   1_545 S
H58    C113    1.107   .     S
C59    O99     1.287   .     A
C59    C65     1.436   .     S
C59    O97     1.290   .     A
C60    O100    1.288   .     A
C60    O98     1.289   .     A
C60    C66     1.436   .     S
C61    C82     1.429   .     A
C61    Cl105   1.769   .     S
C61    C63     1.391   .     A
C62    C64     1.391   .     A
C62    Cl106   1.770   .     S
C62    C81     1.430   .     A
C63    H85     1.085   .     S
C63    C601    1.389   1_554 S
C64    H86     1.085   .     S
C64    C602    1.389   .     S
C65    C240    1.351   .     S
C65    O281    1.388   .     S
C66    C413    1.351   1_545 S
C66    O460    1.387   1_545 S
C67    O103    1.294   .     A
C67    C69     1.468   .     S
C67    O101    1.302   .     A
C68    C70     1.470   .     S
C68    O104    1.295   .     A
C68    O102    1.302   .     A
C69    C73     1.399   .     A
C69    C75     1.401   .     A
C70    C74     1.399   .     A
C70    C76     1.401   .     A
C71    C73     1.394   .     A
C71    C79     1.406   .     A
C72    C80     1.406   .     A
C72    C74     1.395   .     A
C72    H150    1.084   .     S
C73    H90     1.083   .     S
C74    H89     1.083   .     S
C75    H88     1.076   .     S
C75    C77     1.400   .     A
C76    H87     1.077   .     S
C76    C78     1.401   .     A
C77    C81     1.427   .     A
C77    C79     1.414   .     A
C78    C80     1.414   .     A
C78    C82     1.427   .     A
C79    C585    1.389   .     S
C80    C586    1.389   1_554 S
C81    C604    1.430   .     S
C82    C603    1.430   1_554 S
Cu83   O100    1.963   .     S
Cu83   N96     2.017   .     S
Cu83   O101    1.940   .     S
Cu83   O97     1.966   .     S
Cu83   Cu84    2.685   .     S
Cu83   O104    1.918   .     S
Cu84   N95     2.017   .     S
Cu84   O98     1.966   .     S
Cu84   O102    1.940   .     S
Cu84   O103    1.918   .     S
Cu84   O99     1.963   .     S
H91    C129    1.084   .     S
H94    N154    1.029   .     S
N95    H151    1.028   .     S
N95    N154    1.287   .     S
O107   C108    1.413   .     S
O107   C413    1.388   1_545 S
C108   H110    1.114   .     S
C108   H111    1.109   .     S
C108   H457    1.113   1_545 S
H109   C282    1.113   .     S
O112   C113    1.412   .     S
O112   C240    1.387   .     S
C113   H115    1.113   .     S
C113   H288    1.113   .     S
H114   C461    1.113   1_545 S
H116   C171    1.107   .     S
C117   O157    1.287   .     A
C117   C123    1.436   .     S
C117   O155    1.290   .     A
C118   O158    1.288   .     A
C118   O156    1.289   .     A
C118   C124    1.436   .     S
C119   C140    1.429   .     A
C119   Cl163   1.769   .     S
C119   C121    1.391   .     A
C120   C122    1.391   .     A
C120   Cl164   1.770   .     S
C120   C139    1.430   .     A
C121   H143    1.085   .     S
C121   C659    1.389   1_554 S
C122   H144    1.085   .     S
C122   C660    1.389   .     S
C123   C298    1.351   .     S
C123   O339    1.388   .     S
C124   C471    1.351   1_545 S
C124   O518    1.387   1_545 S
C125   O161    1.294   .     A
C125   C127    1.468   .     S
C125   O159    1.302   .     A
C126   C128    1.470   .     S
C126   O162    1.295   .     A
C126   O160    1.302   .     A
C127   C131    1.399   .     A
C127   C133    1.401   .     A
C128   C132    1.399   .     A
C128   C134    1.401   .     A
C129   C131    1.394   .     A
C129   C137    1.406   .     A
C130   C138    1.406   .     A
C130   C132    1.395   .     A
C130   H34     1.084   1_655 S
C131   H148    1.083   .     S
C132   H147    1.083   .     S
C133   H146    1.076   .     S
C133   C135    1.400   .     A
C134   H145    1.077   .     S
C134   C136    1.401   .     A
C135   C139    1.427   .     A
C135   C137    1.414   .     A
C136   C138    1.414   .     A
C136   C140    1.427   .     A
C137   C643    1.389   .     S
C138   C644    1.389   1_554 S
C139   C662    1.430   .     S
C140   C661    1.430   1_554 S
Cu141  O158    1.963   .     S
Cu141  N154    2.017   .     S
Cu141  O159    1.940   .     S
Cu141  O155    1.966   .     S
Cu141  Cu142   2.685   .     S
Cu141  O162    1.918   .     S
Cu142  N153    2.017   .     S
Cu142  O156    1.966   .     S
Cu142  O160    1.940   .     S
Cu142  O161    1.918   .     S
Cu142  O157    1.963   .     S
H149   C13     1.084   1_655 S
H152   N38     1.029   1_655 S
N153   H35     1.028   1_655 S
N153   N38     1.287   1_655 S
O165   C166    1.413   .     S
O165   C471    1.388   1_545 S
C166   H168    1.114   .     S
C166   H169    1.109   .     S
C166   H515    1.113   1_545 S
H167   C340    1.113   .     S
O170   C171    1.412   .     S
O170   C298    1.387   .     S
C171   H173    1.113   .     S
C171   H346    1.113   .     S
H172   C519    1.113   1_545 S
H174   C55     1.107   1_655 S
C175   O215    1.287   .     A
C175   C181    1.436   .     S
C175   O213    1.290   .     A
C176   O216    1.288   .     A
C176   O214    1.289   .     A
C176   C182    1.436   .     S
C177   C198    1.429   .     A
C177   Cl221   1.769   .     S
C177   C179    1.391   .     A
C178   C180    1.391   .     A
C178   Cl222   1.770   .     S
C178   C197    1.430   .     A
C179   H201    1.085   .     S
C179   C717    1.389   1_554 S
C180   H202    1.085   .     S
C180   C718    1.389   .     S
C181   C356    1.351   .     S
C181   O397    1.388   .     S
C183   O219    1.294   .     A
C183   C185    1.468   .     S
C183   O217    1.302   .     A
C184   C186    1.470   .     S
C184   O220    1.295   .     A
C184   O218    1.302   .     A
C185   C189    1.399   .     A
C185   C191    1.401   .     A
C186   C190    1.399   .     A
C186   C192    1.401   .     A
C187   C189    1.394   .     A
C187   C195    1.406   .     A
C187   H323    1.084   1_455 S
C188   C196    1.406   .     A
C188   C190    1.395   .     A
C188   H266    1.084   .     S
C189   H206    1.083   .     S
C190   H205    1.083   .     S
C191   H204    1.076   .     S
C191   C193    1.400   .     A
C192   H203    1.077   .     S
C192   C194    1.401   .     A
C193   C197    1.427   .     A
C193   C195    1.414   .     A
C194   C196    1.414   .     A
C194   C198    1.427   .     A
C195   C701    1.389   .     S
C196   C702    1.389   1_554 S
C197   C720    1.430   .     S
C198   C719    1.430   1_554 S
Cu199  O216    1.963   .     S
Cu199  N212    2.017   .     S
Cu199  O217    1.940   .     S
Cu199  O213    1.966   .     S
Cu199  Cu200   2.685   .     S
Cu199  O220    1.918   .     S
Cu200  N211    2.017   .     S
Cu200  O214    1.966   .     S
Cu200  O218    1.940   .     S
Cu200  O219    1.918   .     S
Cu200  O215    1.963   .     S
H207   C245    1.084   .     S
H208   C304    1.084   1_455 S
H209   N327    1.028   1_455 S
H210   N270    1.029   .     S
N211   H267    1.028   .     S
N211   N270    1.287   .     S
N212   H326    1.029   1_455 S
N212   N327    1.287   1_455 S
O223   C224    1.413   .     S
C224   H226    1.114   .     S
C224   H227    1.109   .     S
H225   C398    1.113   .     S
O228   C229    1.412   .     S
O228   C356    1.387   .     S
C229   H231    1.113   .     S
C229   H404    1.113   .     S
C229   H348    1.107   1_455 S
H232   C287    1.107   .     S
C233   O273    1.287   .     A
C233   C239    1.436   .     S
C233   O271    1.290   .     A
C234   O274    1.288   .     A
C234   O272    1.289   .     A
C234   C240    1.436   .     S
C235   C256    1.429   .     A
C235   Cl279   1.769   .     S
C235   C237    1.391   .     A
C236   C238    1.391   .     A
C236   Cl280   1.770   .     S
C236   C255    1.430   .     A
C237   H259    1.085   .     S
C237   C775    1.389   1_554 S
C238   H260    1.085   .     S
C238   C776    1.389   .     S
C239   C414    1.351   .     S
C239   O455    1.388   .     S
C241   O277    1.294   .     A
C241   C243    1.468   .     S
C241   O275    1.302   .     A
C242   C244    1.470   .     S
C242   O278    1.295   .     A
C242   O276    1.302   .     A
C243   C247    1.399   .     A
C243   C249    1.401   .     A
C244   C248    1.399   .     A
C244   C250    1.401   .     A
C245   C247    1.394   .     A
C245   C253    1.406   .     A
C246   C254    1.406   .     A
C246   C248    1.395   .     A
C246   H324    1.084   .     S
C247   H264    1.083   .     S
C248   H263    1.083   .     S
C249   H262    1.076   .     S
C249   C251    1.400   .     A
C250   H261    1.077   .     S
C250   C252    1.401   .     A
C251   C255    1.427   .     A
C251   C253    1.414   .     A
C252   C254    1.414   .     A
C252   C256    1.427   .     A
C253   C759    1.389   .     S
C254   C760    1.389   1_554 S
C255   C778    1.430   .     S
C256   C777    1.430   1_554 S
Cu257  O274    1.963   .     S
Cu257  N270    2.017   .     S
Cu257  O275    1.940   .     S
Cu257  O271    1.966   .     S
Cu257  Cu258   2.685   .     S
Cu257  O278    1.918   .     S
Cu258  N269    2.017   .     S
Cu258  O272    1.966   .     S
Cu258  O276    1.940   .     S
Cu258  O277    1.918   .     S
Cu258  O273    1.963   .     S
H265   C303    1.084   .     S
H268   N328    1.029   .     S
N269   H325    1.028   .     S
N269   N328    1.287   .     S
O281   C282    1.413   .     S
C282   H284    1.114   .     S
C282   H285    1.109   .     S
H283   C456    1.113   .     S
O286   C287    1.412   .     S
O286   C414    1.387   .     S
C287   H289    1.113   .     S
C287   H462    1.113   .     S
H290   C345    1.107   .     S
C291   O331    1.287   .     A
C291   C297    1.436   .     S
C291   O329    1.290   .     A
C292   O332    1.288   .     A
C292   O330    1.289   .     A
C292   C298    1.436   .     S
C293   C314    1.429   .     A
C293   Cl337   1.769   .     S
C293   C295    1.391   .     A
C294   C296    1.391   .     A
C294   Cl338   1.770   .     S
C294   C313    1.430   .     A
C295   H317    1.085   .     S
C295   C833    1.389   1_554 S
C296   H318    1.085   .     S
C296   C834    1.389   .     S
C297   C472    1.351   .     S
C297   O513    1.388   .     S
C299   O335    1.294   .     A
C299   C301    1.468   .     S
C299   O333    1.302   .     A
C300   C302    1.470   .     S
C300   O336    1.295   .     A
C300   O334    1.302   .     A
C301   C305    1.399   .     A
C301   C307    1.401   .     A
C302   C306    1.399   .     A
C302   C308    1.401   .     A
C303   C305    1.394   .     A
C303   C311    1.406   .     A
C304   C312    1.406   .     A
C304   C306    1.395   .     A
C304   H208    1.084   1_655 S
C305   H322    1.083   .     S
C306   H321    1.083   .     S
C307   H320    1.076   .     S
C307   C309    1.400   .     A
C308   H319    1.077   .     S
C308   C310    1.401   .     A
C309   C313    1.427   .     A
C309   C311    1.414   .     A
C310   C312    1.414   .     A
C310   C314    1.427   .     A
C311   C817    1.389   .     S
C312   C818    1.389   1_554 S
C313   C836    1.430   .     S
C314   C835    1.430   1_554 S
Cu315  O332    1.963   .     S
Cu315  N328    2.017   .     S
Cu315  O333    1.940   .     S
Cu315  O329    1.966   .     S
Cu315  Cu316   2.685   .     S
Cu315  O336    1.918   .     S
Cu316  N327    2.017   .     S
Cu316  O330    1.966   .     S
Cu316  O334    1.940   .     S
Cu316  O335    1.918   .     S
Cu316  O331    1.963   .     S
H323   C187    1.084   1_655 S
H326   N212    1.029   1_655 S
N327   H209    1.028   1_655 S
N327   N212    1.287   1_655 S
O339   C340    1.413   .     S
C340   H342    1.114   .     S
C340   H343    1.109   .     S
H341   C514    1.113   .     S
O344   C345    1.412   .     S
O344   C472    1.387   .     S
C345   H347    1.113   .     S
C345   H520    1.113   .     S
H348   C229    1.107   1_655 S
C349   O389    1.287   .     A
C349   C355    1.436   .     S
C349   O387    1.290   .     A
C350   O390    1.288   .     A
C350   O388    1.289   .     A
C350   C356    1.436   .     S
C351   C372    1.429   .     A
C351   Cl395   1.769   .     S
C351   C353    1.391   .     A
C352   C354    1.391   .     A
C352   Cl396   1.770   .     S
C352   C371    1.430   .     A
C353   H375    1.085   .     S
C353   C891    1.389   1_554 S
C354   H376    1.085   .     S
C354   C892    1.389   .     S
C355   C8      1.351   1_565 S
C355   O49     1.388   1_565 S
C357   O393    1.294   .     A
C357   C359    1.468   .     S
C357   O391    1.302   .     A
C358   C360    1.470   .     S
C358   O394    1.295   .     A
C358   O392    1.302   .     A
C359   C363    1.399   .     A
C359   C365    1.401   .     A
C360   C364    1.399   .     A
C360   C366    1.401   .     A
C361   C363    1.394   .     A
C361   C369    1.406   .     A
C361   H497    1.084   1_455 S
C362   C370    1.406   .     A
C362   C364    1.395   .     A
C362   H440    1.084   .     S
C363   H380    1.083   .     S
C364   H379    1.083   .     S
C365   H378    1.076   .     S
C365   C367    1.400   .     A
C366   H377    1.077   .     S
C366   C368    1.401   .     A
C367   C371    1.427   .     A
C367   C369    1.414   .     A
C368   C370    1.414   .     A
C368   C372    1.427   .     A
C369   C875    1.389   .     S
C370   C876    1.389   1_554 S
C371   C894    1.430   .     S
C372   C893    1.430   1_554 S
Cu373  O390    1.963   .     S
Cu373  N386    2.017   .     S
Cu373  O391    1.940   .     S
Cu373  O387    1.966   .     S
Cu373  Cu374   2.685   .     S
Cu373  O394    1.918   .     S
Cu374  N385    2.017   .     S
Cu374  O388    1.966   .     S
Cu374  O392    1.940   .     S
Cu374  O393    1.918   .     S
Cu374  O389    1.963   .     S
H381   C419    1.084   .     S
H382   C478    1.084   1_455 S
H383   N501    1.028   1_455 S
H384   N444    1.029   .     S
N385   H441    1.028   .     S
N385   N444    1.287   .     S
N386   H500    1.029   1_455 S
N386   N501    1.287   1_455 S
O397   C398    1.413   .     S
C398   H400    1.114   .     S
C398   H401    1.109   .     S
H399   C50     1.113   1_565 S
O402   C403    1.412   .     S
O402   C8      1.387   1_565 S
C403   H405    1.113   .     S
C403   H56     1.113   1_565 S
C403   H522    1.107   1_455 S
H406   C461    1.107   .     S
C407   O447    1.287   .     A
C407   C413    1.436   .     S
C407   O445    1.290   .     A
C408   O448    1.288   .     A
C408   O446    1.289   .     A
C408   C414    1.436   .     S
C409   C430    1.429   .     A
C409   Cl453   1.769   .     S
C409   C411    1.391   .     A
C410   C412    1.391   .     A
C410   Cl454   1.770   .     S
C410   C429    1.430   .     A
C411   H433    1.085   .     S
C411   C949    1.389   1_554 S
C412   H434    1.085   .     S
C412   C950    1.389   .     S
C413   C66     1.351   1_565 S
C413   O107    1.388   1_565 S
C415   O451    1.294   .     A
C415   C417    1.468   .     S
C415   O449    1.302   .     A
C416   C418    1.470   .     S
C416   O452    1.295   .     A
C416   O450    1.302   .     A
C417   C421    1.399   .     A
C417   C423    1.401   .     A
C418   C422    1.399   .     A
C418   C424    1.401   .     A
C419   C421    1.394   .     A
C419   C427    1.406   .     A
C420   C428    1.406   .     A
C420   C422    1.395   .     A
C420   H498    1.084   .     S
C421   H438    1.083   .     S
C422   H437    1.083   .     S
C423   H436    1.076   .     S
C423   C425    1.400   .     A
C424   H435    1.077   .     S
C424   C426    1.401   .     A
C425   C429    1.427   .     A
C425   C427    1.414   .     A
C426   C428    1.414   .     A
C426   C430    1.427   .     A
C427   C933    1.389   .     S
C428   C934    1.389   1_554 S
C429   C952    1.430   .     S
C430   C951    1.430   1_554 S
Cu431  O448    1.963   .     S
Cu431  N444    2.017   .     S
Cu431  O449    1.940   .     S
Cu431  O445    1.966   .     S
Cu431  Cu432   2.685   .     S
Cu431  O452    1.918   .     S
Cu432  N443    2.017   .     S
Cu432  O446    1.966   .     S
Cu432  O450    1.940   .     S
Cu432  O451    1.918   .     S
Cu432  O447    1.963   .     S
H439   C477    1.084   .     S
H442   N502    1.029   .     S
N443   H499    1.028   .     S
N443   N502    1.287   .     S
O455   C456    1.413   .     S
C456   H458    1.114   .     S
C456   H459    1.109   .     S
H457   C108    1.113   1_565 S
O460   C461    1.412   .     S
O460   C66     1.387   1_565 S
C461   H463    1.113   .     S
C461   H114    1.113   1_565 S
H464   C519    1.107   .     S
C465   O505    1.287   .     A
C465   C471    1.436   .     S
C465   O503    1.290   .     A
C466   O506    1.288   .     A
C466   O504    1.289   .     A
C466   C472    1.436   .     S
C467   C488    1.429   .     A
C467   Cl511   1.769   .     S
C467   C469    1.391   .     A
C468   C470    1.391   .     A
C468   Cl512   1.770   .     S
C468   C487    1.430   .     A
C469   H491    1.085   .     S
C469   C1007   1.389   1_554 S
C470   H492    1.085   .     S
C470   C1008   1.389   .     S
C471   C124    1.351   1_565 S
C471   O165    1.388   1_565 S
C473   O509    1.294   .     A
C473   C475    1.468   .     S
C473   O507    1.302   .     A
C474   C476    1.470   .     S
C474   O510    1.295   .     A
C474   O508    1.302   .     A
C475   C479    1.399   .     A
C475   C481    1.401   .     A
C476   C480    1.399   .     A
C476   C482    1.401   .     A
C477   C479    1.394   .     A
C477   C485    1.406   .     A
C478   C486    1.406   .     A
C478   C480    1.395   .     A
C478   H382    1.084   1_655 S
C479   H496    1.083   .     S
C480   H495    1.083   .     S
C481   H494    1.076   .     S
C481   C483    1.400   .     A
C482   H493    1.077   .     S
C482   C484    1.401   .     A
C483   C487    1.427   .     A
C483   C485    1.414   .     A
C484   C486    1.414   .     A
C484   C488    1.427   .     A
C485   C991    1.389   .     S
C486   C992    1.389   1_554 S
C487   C1010   1.430   .     S
C488   C1009   1.430   1_554 S
Cu489  O506    1.963   .     S
Cu489  N502    2.017   .     S
Cu489  O507    1.940   .     S
Cu489  O503    1.966   .     S
Cu489  Cu490   2.685   .     S
Cu489  O510    1.918   .     S
Cu490  N501    2.017   .     S
Cu490  O504    1.966   .     S
Cu490  O508    1.940   .     S
Cu490  O509    1.918   .     S
Cu490  O505    1.963   .     S
H497   C361    1.084   1_655 S
H500   N386    1.029   1_655 S
N501   H383    1.028   1_655 S
N501   N386    1.287   1_655 S
O513   C514    1.413   .     S
C514   H516    1.114   .     S
C514   H517    1.109   .     S
H515   C166    1.113   1_565 S
O518   C519    1.412   .     S
O518   C124    1.387   1_565 S
C519   H521    1.113   .     S
C519   H172    1.113   1_565 S
H522   C403    1.107   1_655 S
C523   O563    1.287   .     A
C523   C529    1.436   .     S
C523   O561    1.290   .     A
C524   O564    1.288   .     A
C524   O562    1.289   .     A
C524   C530    1.436   .     S
C525   C546    1.429   .     A
C525   Cl569   1.769   .     S
C525   C527    1.391   .     A
C526   C528    1.391   .     A
C526   Cl570   1.770   .     S
C526   C545    1.430   .     A
C527   H549    1.085   .     S
C528   H550    1.085   .     S
C528   C22     1.389   1_556 S
C529   C704    1.351   .     S
C529   O745    1.388   .     S
C530   C877    1.351   1_545 S
C530   O924    1.387   1_545 S
C531   O567    1.294   .     A
C531   C533    1.468   .     S
C531   O565    1.302   .     A
C532   C534    1.470   .     S
C532   O568    1.295   .     A
C532   O566    1.302   .     A
C533   C537    1.399   .     A
C533   C539    1.401   .     A
C534   C538    1.399   .     A
C534   C540    1.401   .     A
C535   C537    1.394   .     A
C535   C543    1.406   .     A
C535   H671    1.084   1_455 S
C536   C544    1.406   .     A
C536   C538    1.395   .     A
C536   H614    1.084   .     S
C537   H554    1.083   .     S
C538   H553    1.083   .     S
C539   H552    1.076   .     S
C539   C541    1.400   .     A
C540   H551    1.077   .     S
C540   C542    1.401   .     A
C541   C545    1.427   .     A
C541   C543    1.414   .     A
C542   C544    1.414   .     A
C542   C546    1.427   .     A
C543   C5      1.389   1_556 S
C545   C24     1.430   1_556 S
Cu547  O564    1.963   .     S
Cu547  N560    2.017   .     S
Cu547  O565    1.940   .     S
Cu547  O561    1.966   .     S
Cu547  Cu548   2.685   .     S
Cu547  O568    1.918   .     S
Cu548  N559    2.017   .     S
Cu548  O562    1.966   .     S
Cu548  O566    1.940   .     S
Cu548  O567    1.918   .     S
Cu548  O563    1.963   .     S
H555   C593    1.084   .     S
H556   C652    1.084   1_455 S
H557   N675    1.028   1_455 S
H558   N618    1.029   .     S
N559   H615    1.028   .     S
N559   N618    1.287   .     S
N560   H674    1.029   1_455 S
N560   N675    1.287   1_455 S
O571   C572    1.413   .     S
O571   C877    1.388   1_545 S
C572   H574    1.114   .     S
C572   H575    1.109   .     S
C572   H921    1.113   1_545 S
H573   C746    1.113   .     S
O576   C577    1.412   .     S
O576   C704    1.387   .     S
C577   H579    1.113   .     S
C577   H752    1.113   .     S
C577   H696    1.107   1_455 S
H578   C925    1.113   1_545 S
H580   C635    1.107   .     S
C581   O621    1.287   .     A
C581   C587    1.436   .     S
C581   O619    1.290   .     A
C582   O622    1.288   .     A
C582   O620    1.289   .     A
C582   C588    1.436   .     S
C583   C604    1.429   .     A
C583   Cl627   1.769   .     S
C583   C585    1.391   .     A
C584   C586    1.391   .     A
C584   Cl628   1.770   .     S
C584   C603    1.430   .     A
C585   H607    1.085   .     S
C586   H608    1.085   .     S
C586   C80     1.389   1_556 S
C587   C762    1.351   .     S
C587   O803    1.388   .     S
C588   C935    1.351   1_545 S
C588   O982    1.387   1_545 S
C589   O625    1.294   .     A
C589   C591    1.468   .     S
C589   O623    1.302   .     A
C590   C592    1.470   .     S
C590   O626    1.295   .     A
C590   O624    1.302   .     A
C591   C595    1.399   .     A
C591   C597    1.401   .     A
C592   C596    1.399   .     A
C592   C598    1.401   .     A
C593   C595    1.394   .     A
C593   C601    1.406   .     A
C594   C602    1.406   .     A
C594   C596    1.395   .     A
C594   H672    1.084   .     S
C595   H612    1.083   .     S
C596   H611    1.083   .     S
C597   H610    1.076   .     S
C597   C599    1.400   .     A
C598   H609    1.077   .     S
C598   C600    1.401   .     A
C599   C603    1.427   .     A
C599   C601    1.414   .     A
C600   C602    1.414   .     A
C600   C604    1.427   .     A
C601   C63     1.389   1_556 S
C603   C82     1.430   1_556 S
Cu605  O622    1.963   .     S
Cu605  N618    2.017   .     S
Cu605  O623    1.940   .     S
Cu605  O619    1.966   .     S
Cu605  Cu606   2.685   .     S
Cu605  O626    1.918   .     S
Cu606  N617    2.017   .     S
Cu606  O620    1.966   .     S
Cu606  O624    1.940   .     S
Cu606  O625    1.918   .     S
Cu606  O621    1.963   .     S
H613   C651    1.084   .     S
H616   N676    1.029   .     S
N617   H673    1.028   .     S
N617   N676    1.287   .     S
O629   C630    1.413   .     S
O629   C935    1.388   1_545 S
C630   H632    1.114   .     S
C630   H633    1.109   .     S
C630   H979    1.113   1_545 S
H631   C804    1.113   .     S
O634   C635    1.412   .     S
O634   C762    1.387   .     S
C635   H637    1.113   .     S
C635   H810    1.113   .     S
H636   C983    1.113   1_545 S
H638   C693    1.107   .     S
C639   O679    1.287   .     A
C639   C645    1.436   .     S
C639   O677    1.290   .     A
C640   O680    1.288   .     A
C640   O678    1.289   .     A
C640   C646    1.436   .     S
C641   C662    1.429   .     A
C641   Cl685   1.769   .     S
C641   C643    1.391   .     A
C642   C644    1.391   .     A
C642   Cl686   1.770   .     S
C642   C661    1.430   .     A
C643   H665    1.085   .     S
C644   H666    1.085   .     S
C644   C138    1.389   1_556 S
C645   C820    1.351   .     S
C645   O861    1.388   .     S
C646   C993    1.351   1_545 S
C646   O1040   1.387   1_545 S
C647   O683    1.294   .     A
C647   C649    1.468   .     S
C647   O681    1.302   .     A
C648   C650    1.470   .     S
C648   O684    1.295   .     A
C648   O682    1.302   .     A
C649   C653    1.399   .     A
C649   C655    1.401   .     A
C650   C654    1.399   .     A
C650   C656    1.401   .     A
C651   C653    1.394   .     A
C651   C659    1.406   .     A
C652   C660    1.406   .     A
C652   C654    1.395   .     A
C652   H556    1.084   1_655 S
C653   H670    1.083   .     S
C654   H669    1.083   .     S
C655   H668    1.076   .     S
C655   C657    1.400   .     A
C656   H667    1.077   .     S
C656   C658    1.401   .     A
C657   C661    1.427   .     A
C657   C659    1.414   .     A
C658   C660    1.414   .     A
C658   C662    1.427   .     A
C659   C121    1.389   1_556 S
C661   C140    1.430   1_556 S
Cu663  O680    1.963   .     S
Cu663  N676    2.017   .     S
Cu663  O681    1.940   .     S
Cu663  O677    1.966   .     S
Cu663  Cu664   2.685   .     S
Cu663  O684    1.918   .     S
Cu664  N675    2.017   .     S
Cu664  O678    1.966   .     S
Cu664  O682    1.940   .     S
Cu664  O683    1.918   .     S
Cu664  O679    1.963   .     S
H671   C535    1.084   1_655 S
H674   N560    1.029   1_655 S
N675   H557    1.028   1_655 S
N675   N560    1.287   1_655 S
O687   C688    1.413   .     S
O687   C993    1.388   1_545 S
C688   H690    1.114   .     S
C688   H691    1.109   .     S
C688   H1037   1.113   1_545 S
H689   C862    1.113   .     S
O692   C693    1.412   .     S
O692   C820    1.387   .     S
C693   H695    1.113   .     S
C693   H868    1.113   .     S
H694   C1041   1.113   1_545 S
H696   C577    1.107   1_655 S
C697   O737    1.287   .     A
C697   C703    1.436   .     S
C697   O735    1.290   .     A
C698   O738    1.288   .     A
C698   O736    1.289   .     A
C698   C704    1.436   .     S
C699   C720    1.429   .     A
C699   Cl743   1.769   .     S
C699   C701    1.391   .     A
C700   C702    1.391   .     A
C700   Cl744   1.770   .     S
C700   C719    1.430   .     A
C701   H723    1.085   .     S
C702   H724    1.085   .     S
C702   C196    1.389   1_556 S
C703   C878    1.351   .     S
C703   O919    1.388   .     S
C705   O741    1.294   .     A
C705   C707    1.468   .     S
C705   O739    1.302   .     A
C706   C708    1.470   .     S
C706   O742    1.295   .     A
C706   O740    1.302   .     A
C707   C711    1.399   .     A
C707   C713    1.401   .     A
C708   C712    1.399   .     A
C708   C714    1.401   .     A
C709   C711    1.394   .     A
C709   C717    1.406   .     A
C709   H845    1.084   1_455 S
C710   C718    1.406   .     A
C710   C712    1.395   .     A
C710   H788    1.084   .     S
C711   H728    1.083   .     S
C712   H727    1.083   .     S
C713   H726    1.076   .     S
C713   C715    1.400   .     A
C714   H725    1.077   .     S
C714   C716    1.401   .     A
C715   C719    1.427   .     A
C715   C717    1.414   .     A
C716   C718    1.414   .     A
C716   C720    1.427   .     A
C717   C179    1.389   1_556 S
C719   C198    1.430   1_556 S
Cu721  O738    1.963   .     S
Cu721  N734    2.017   .     S
Cu721  O739    1.940   .     S
Cu721  O735    1.966   .     S
Cu721  Cu722   2.685   .     S
Cu721  O742    1.918   .     S
Cu722  N733    2.017   .     S
Cu722  O736    1.966   .     S
Cu722  O740    1.940   .     S
Cu722  O741    1.918   .     S
Cu722  O737    1.963   .     S
H729   C767    1.084   .     S
H730   C826    1.084   1_455 S
H731   N849    1.028   1_455 S
H732   N792    1.029   .     S
N733   H789    1.028   .     S
N733   N792    1.287   .     S
N734   H848    1.029   1_455 S
N734   N849    1.287   1_455 S
O745   C746    1.413   .     S
C746   H748    1.114   .     S
C746   H749    1.109   .     S
H747   C920    1.113   .     S
O750   C751    1.412   .     S
O750   C878    1.387   .     S
C751   H753    1.113   .     S
C751   H926    1.113   .     S
C751   H870    1.107   1_455 S
H754   C809    1.107   .     S
C755   O795    1.287   .     A
C755   C761    1.436   .     S
C755   O793    1.290   .     A
C756   O796    1.288   .     A
C756   O794    1.289   .     A
C756   C762    1.436   .     S
C757   C778    1.429   .     A
C757   Cl801   1.769   .     S
C757   C759    1.391   .     A
C758   C760    1.391   .     A
C758   Cl802   1.770   .     S
C758   C777    1.430   .     A
C759   H781    1.085   .     S
C760   H782    1.085   .     S
C760   C254    1.389   1_556 S
C761   C936    1.351   .     S
C761   O977    1.388   .     S
C763   O799    1.294   .     A
C763   C765    1.468   .     S
C763   O797    1.302   .     A
C764   C766    1.470   .     S
C764   O800    1.295   .     A
C764   O798    1.302   .     A
C765   C769    1.399   .     A
C765   C771    1.401   .     A
C766   C770    1.399   .     A
C766   C772    1.401   .     A
C767   C769    1.394   .     A
C767   C775    1.406   .     A
C768   C776    1.406   .     A
C768   C770    1.395   .     A
C768   H846    1.084   .     S
C769   H786    1.083   .     S
C770   H785    1.083   .     S
C771   H784    1.076   .     S
C771   C773    1.400   .     A
C772   H783    1.077   .     S
C772   C774    1.401   .     A
C773   C777    1.427   .     A
C773   C775    1.414   .     A
C774   C776    1.414   .     A
C774   C778    1.427   .     A
C775   C237    1.389   1_556 S
C777   C256    1.430   1_556 S
Cu779  O796    1.963   .     S
Cu779  N792    2.017   .     S
Cu779  O797    1.940   .     S
Cu779  O793    1.966   .     S
Cu779  Cu780   2.685   .     S
Cu779  O800    1.918   .     S
Cu780  N791    2.017   .     S
Cu780  O794    1.966   .     S
Cu780  O798    1.940   .     S
Cu780  O799    1.918   .     S
Cu780  O795    1.963   .     S
H787   C825    1.084   .     S
H790   N850    1.029   .     S
N791   H847    1.028   .     S
N791   N850    1.287   .     S
O803   C804    1.413   .     S
C804   H806    1.114   .     S
C804   H807    1.109   .     S
H805   C978    1.113   .     S
O808   C809    1.412   .     S
O808   C936    1.387   .     S
C809   H811    1.113   .     S
C809   H984    1.113   .     S
H812   C867    1.107   .     S
C813   O853    1.287   .     A
C813   C819    1.436   .     S
C813   O851    1.290   .     A
C814   O854    1.288   .     A
C814   O852    1.289   .     A
C814   C820    1.436   .     S
C815   C836    1.429   .     A
C815   Cl859   1.769   .     S
C815   C817    1.391   .     A
C816   C818    1.391   .     A
C816   Cl860   1.770   .     S
C816   C835    1.430   .     A
C817   H839    1.085   .     S
C818   H840    1.085   .     S
C818   C312    1.389   1_556 S
C819   C994    1.351   .     S
C819   O1035   1.388   .     S
C821   O857    1.294   .     A
C821   C823    1.468   .     S
C821   O855    1.302   .     A
C822   C824    1.470   .     S
C822   O858    1.295   .     A
C822   O856    1.302   .     A
C823   C827    1.399   .     A
C823   C829    1.401   .     A
C824   C828    1.399   .     A
C824   C830    1.401   .     A
C825   C827    1.394   .     A
C825   C833    1.406   .     A
C826   C834    1.406   .     A
C826   C828    1.395   .     A
C826   H730    1.084   1_655 S
C827   H844    1.083   .     S
C828   H843    1.083   .     S
C829   H842    1.076   .     S
C829   C831    1.400   .     A
C830   H841    1.077   .     S
C830   C832    1.401   .     A
C831   C835    1.427   .     A
C831   C833    1.414   .     A
C832   C834    1.414   .     A
C832   C836    1.427   .     A
C833   C295    1.389   1_556 S
C835   C314    1.430   1_556 S
Cu837  O854    1.963   .     S
Cu837  N850    2.017   .     S
Cu837  O855    1.940   .     S
Cu837  O851    1.966   .     S
Cu837  Cu838   2.685   .     S
Cu837  O858    1.918   .     S
Cu838  N849    2.017   .     S
Cu838  O852    1.966   .     S
Cu838  O856    1.940   .     S
Cu838  O857    1.918   .     S
Cu838  O853    1.963   .     S
H845   C709    1.084   1_655 S
H848   N734    1.029   1_655 S
N849   H731    1.028   1_655 S
N849   N734    1.287   1_655 S
O861   C862    1.413   .     S
C862   H864    1.114   .     S
C862   H865    1.109   .     S
H863   C1036   1.113   .     S
O866   C867    1.412   .     S
O866   C994    1.387   .     S
C867   H869    1.113   .     S
C867   H1042   1.113   .     S
H870   C751    1.107   1_655 S
C871   O911    1.287   .     A
C871   C877    1.436   .     S
C871   O909    1.290   .     A
C872   O912    1.288   .     A
C872   O910    1.289   .     A
C872   C878    1.436   .     S
C873   C894    1.429   .     A
C873   Cl917   1.769   .     S
C873   C875    1.391   .     A
C874   C876    1.391   .     A
C874   Cl918   1.770   .     S
C874   C893    1.430   .     A
C875   H897    1.085   .     S
C876   H898    1.085   .     S
C876   C370    1.389   1_556 S
C877   C530    1.351   1_565 S
C877   O571    1.388   1_565 S
C879   O915    1.294   .     A
C879   C881    1.468   .     S
C879   O913    1.302   .     A
C880   C882    1.470   .     S
C880   O916    1.295   .     A
C880   O914    1.302   .     A
C881   C885    1.399   .     A
C881   C887    1.401   .     A
C882   C886    1.399   .     A
C882   C888    1.401   .     A
C883   C885    1.394   .     A
C883   C891    1.406   .     A
C883   H1019   1.084   1_455 S
C884   C892    1.406   .     A
C884   C886    1.395   .     A
C884   H962    1.084   .     S
C885   H902    1.083   .     S
C886   H901    1.083   .     S
C887   H900    1.076   .     S
C887   C889    1.400   .     A
C888   H899    1.077   .     S
C888   C890    1.401   .     A
C889   C893    1.427   .     A
C889   C891    1.414   .     A
C890   C892    1.414   .     A
C890   C894    1.427   .     A
C891   C353    1.389   1_556 S
C893   C372    1.430   1_556 S
Cu895  O912    1.963   .     S
Cu895  N908    2.017   .     S
Cu895  O913    1.940   .     S
Cu895  O909    1.966   .     S
Cu895  Cu896   2.685   .     S
Cu895  O916    1.918   .     S
Cu896  N907    2.017   .     S
Cu896  O910    1.966   .     S
Cu896  O914    1.940   .     S
Cu896  O915    1.918   .     S
Cu896  O911    1.963   .     S
H903   C941    1.084   .     S
H904   C1000   1.084   1_455 S
H905   N1023   1.028   1_455 S
H906   N966    1.029   .     S
N907   H963    1.028   .     S
N907   N966    1.287   .     S
N908   H1022   1.029   1_455 S
N908   N1023   1.287   1_455 S
O919   C920    1.413   .     S
C920   H922    1.114   .     S
C920   H923    1.109   .     S
H921   C572    1.113   1_565 S
O924   C925    1.412   .     S
O924   C530    1.387   1_565 S
C925   H927    1.113   .     S
C925   H578    1.113   1_565 S
C925   H1044   1.107   1_455 S
H928   C983    1.107   .     S
C929   O969    1.287   .     A
C929   C935    1.436   .     S
C929   O967    1.290   .     A
C930   O970    1.288   .     A
C930   O968    1.289   .     A
C930   C936    1.436   .     S
C931   C952    1.429   .     A
C931   Cl975   1.769   .     S
C931   C933    1.391   .     A
C932   C934    1.391   .     A
C932   Cl976   1.770   .     S
C932   C951    1.430   .     A
C933   H955    1.085   .     S
C934   H956    1.085   .     S
C934   C428    1.389   1_556 S
C935   C588    1.351   1_565 S
C935   O629    1.388   1_565 S
C937   O973    1.294   .     A
C937   C939    1.468   .     S
C937   O971    1.302   .     A
C938   C940    1.470   .     S
C938   O974    1.295   .     A
C938   O972    1.302   .     A
C939   C943    1.399   .     A
C939   C945    1.401   .     A
C940   C944    1.399   .     A
C940   C946    1.401   .     A
C941   C943    1.394   .     A
C941   C949    1.406   .     A
C942   C950    1.406   .     A
C942   C944    1.395   .     A
C942   H1020   1.084   .     S
C943   H960    1.083   .     S
C944   H959    1.083   .     S
C945   H958    1.076   .     S
C945   C947    1.400   .     A
C946   H957    1.077   .     S
C946   C948    1.401   .     A
C947   C951    1.427   .     A
C947   C949    1.414   .     A
C948   C950    1.414   .     A
C948   C952    1.427   .     A
C949   C411    1.389   1_556 S
C951   C430    1.430   1_556 S
Cu953  O970    1.963   .     S
Cu953  N966    2.017   .     S
Cu953  O971    1.940   .     S
Cu953  O967    1.966   .     S
Cu953  Cu954   2.685   .     S
Cu953  O974    1.918   .     S
Cu954  N965    2.017   .     S
Cu954  O968    1.966   .     S
Cu954  O972    1.940   .     S
Cu954  O973    1.918   .     S
Cu954  O969    1.963   .     S
H961   C999    1.084   .     S
H964   N1024   1.029   .     S
N965   H1021   1.028   .     S
N965   N1024   1.287   .     S
O977   C978    1.413   .     S
C978   H980    1.114   .     S
C978   H981    1.109   .     S
H979   C630    1.113   1_565 S
O982   C983    1.412   .     S
O982   C588    1.387   1_565 S
C983   H985    1.113   .     S
C983   H636    1.113   1_565 S
H986   C1041   1.107   .     S
C987   O1027   1.287   .     A
C987   C993    1.436   .     S
C987   O1025   1.290   .     A
C988   O1028   1.288   .     A
C988   O1026   1.289   .     A
C988   C994    1.436   .     S
C989   C1010   1.429   .     A
C989   Cl1033  1.769   .     S
C989   C991    1.391   .     A
C990   C992    1.391   .     A
C990   Cl1034  1.770   .     S
C990   C1009   1.430   .     A
C991   H1013   1.085   .     S
C992   H1014   1.085   .     S
C992   C486    1.389   1_556 S
C993   C646    1.351   1_565 S
C993   O687    1.388   1_565 S
C995   O1031   1.294   .     A
C995   C997    1.468   .     S
C995   O1029   1.302   .     A
C996   C998    1.470   .     S
C996   O1032   1.295   .     A
C996   O1030   1.302   .     A
C997   C1001   1.399   .     A
C997   C1003   1.401   .     A
C998   C1002   1.399   .     A
C998   C1004   1.401   .     A
C999   C1001   1.394   .     A
C999   C1007   1.406   .     A
C1000  C1008   1.406   .     A
C1000  C1002   1.395   .     A
C1000  H904    1.084   1_655 S
C1001  H1018   1.083   .     S
C1002  H1017   1.083   .     S
C1003  H1016   1.076   .     S
C1003  C1005   1.400   .     A
C1004  H1015   1.077   .     S
C1004  C1006   1.401   .     A
C1005  C1009   1.427   .     A
C1005  C1007   1.414   .     A
C1006  C1008   1.414   .     A
C1006  C1010   1.427   .     A
C1007  C469    1.389   1_556 S
C1009  C488    1.430   1_556 S
Cu1011 O1028   1.963   .     S
Cu1011 N1024   2.017   .     S
Cu1011 O1029   1.940   .     S
Cu1011 O1025   1.966   .     S
Cu1011 Cu1012  2.685   .     S
Cu1011 O1032   1.918   .     S
Cu1012 N1023   2.017   .     S
Cu1012 O1026   1.966   .     S
Cu1012 O1030   1.940   .     S
Cu1012 O1031   1.918   .     S
Cu1012 O1027   1.963   .     S
H1019  C883    1.084   1_655 S
H1022  N908    1.029   1_655 S
N1023  H905    1.028   1_655 S
N1023  N908    1.287   1_655 S
O1035  C1036   1.413   .     S
C1036  H1038   1.114   .     S
C1036  H1039   1.109   .     S
H1037  C688    1.113   1_565 S
O1040  C1041   1.412   .     S
O1040  C646    1.387   1_565 S
C1041  H1043   1.113   .     S
C1041  H694    1.113   1_565 S
H1044  C925    1.107   1_655 S
