data_str_m2_o10_o16_pcu_sym.182
_audit_creation_date              2020-01-03
_audit_creation_method            'Materials Studio'
_symmetry_space_group_name_H-M    'P1'
_symmetry_Int_Tables_number       1
_symmetry_cell_setting            triclinic
loop_
_symmetry_equiv_pos_as_xyz
  x,y,z
_cell_length_a                    22.8992
_cell_length_b                    25.9484
_cell_length_c                    26.5930
_cell_angle_alpha                 97.2960
_cell_angle_beta                  79.4324
_cell_angle_gamma                 101.9870
loop_
_atom_site_label
_atom_site_type_symbol
_atom_site_fract_x
_atom_site_fract_y
_atom_site_fract_z
_atom_site_U_iso_or_equiv
_atom_site_adp_type
_atom_site_occupancy
C1     C     0.18056   0.26642   0.25328   0.00000  Uiso   1.00
C2     C     0.14396   0.15914   0.48546   0.00000  Uiso   1.00
C3     C     0.14915   0.18096   0.43841   0.00000  Uiso   1.00
C4     C     0.18507   0.18237   0.01951   0.00000  Uiso   1.00
C5     C     0.21949   0.23391   0.01223   0.00000  Uiso   1.00
C6     C     0.21970   0.25751   0.46782   0.00000  Uiso   1.00
C7     C     0.18605   0.23073   0.43074   0.00000  Uiso   1.00
C8     C     0.19288   0.15666   0.06091   0.00000  Uiso   1.00
C9     C     0.24849   0.23952   0.09582   0.00000  Uiso   1.00
C10    C     0.11524   0.15342   0.40086   0.00000  Uiso   1.00
C11    C     0.18390   0.32228   0.26123   0.00000  Uiso   1.00
C12    C     0.13413   0.16287   0.34655   0.00000  Uiso   1.00
C13    C     0.14969   0.01108   0.23835   0.00000  Uiso   1.00
C14    C     0.15285   0.06692   0.24655   0.00000  Uiso   1.00
C15    C     0.19918   0.17123   0.15367   0.00000  Uiso   1.00
C16    C     0.25228   0.26158   0.05004   0.00000  Uiso   1.00
C17    C     0.21756   0.18755   0.10177   0.00000  Uiso   1.00
C18    C     0.06820   0.11083   0.41398   0.00000  Uiso   1.00
C19    C     0.05700   0.09414   0.46315   0.00000  Uiso   1.00
C20    C     0.09502   0.11745   0.49846   0.00000  Uiso   1.00
Cu21   Cu    0.10710   0.16105   0.24436   0.00000  Uiso   1.00
Cu22   Cu    0.22623   0.17228   0.25565   0.00000  Uiso   1.00
H23    H     0.26808   0.26353   0.12720   0.00000  Uiso   1.00
H24    H     0.12220   0.32190   0.21093   0.00000  Uiso   1.00
H25    H     0.24607   0.29667   0.46167   0.00000  Uiso   1.00
H26    H     0.27738   0.30148   0.04564   0.00000  Uiso   1.00
H27    H     0.04121   0.08954   0.38574   0.00000  Uiso   1.00
H28    H     0.08478   0.10369   0.03633   0.00000  Uiso   1.00
H29    H     0.01996   0.06188   0.47340   0.00000  Uiso   1.00
H30    H     0.18578   0.25059   0.39745   0.00000  Uiso   1.00
H31    H     0.21149   0.01150   0.28856   0.00000  Uiso   1.00
N32    N     0.31574   0.18074   0.26416   0.00000  Uiso   1.00
N33    N     0.01759   0.15259   0.23584   0.00000  Uiso   1.00
O34    O     0.12797   0.23807   0.24633   0.00000  Uiso   1.00
O35    O     0.22858   0.24755   0.25587   0.00000  Uiso   1.00
O36    O     0.09181   0.15960   0.31840   0.00000  Uiso   1.00
O37    O     0.19242   0.16908   0.32793   0.00000  Uiso   1.00
O38    O     0.10476   0.08578   0.24414   0.00000  Uiso   1.00
O39    O     0.20536   0.09526   0.25367   0.00000  Uiso   1.00
O40    O     0.14092   0.16425   0.17207   0.00000  Uiso   1.00
O41    O     0.24152   0.17373   0.18161   0.00000  Uiso   1.00
S42    S     0.00691   0.24193   0.29597   0.00000  Uiso   1.00
O43    O     0.05453   0.24303   0.32806   0.00000  Uiso   1.00
O44    O     0.02790   0.28184   0.25729   0.00000  Uiso   1.00
O45    O     0.28160   0.26051   0.33664   0.00000  Uiso   1.00
H46    H     0.29573   0.29828   0.34772   0.00000  Uiso   1.00
S47    S     0.32664   0.09148   0.20394   0.00000  Uiso   1.00
O48    O     0.30645   0.05130   0.24242   0.00000  Uiso   1.00
O49    O     0.27849   0.09016   0.17242   0.00000  Uiso   1.00
O50    O     0.05201   0.07378   0.16268   0.00000  Uiso   1.00
H51    H     0.03891   0.03553   0.15291   0.00000  Uiso   1.00
S52    S     0.19651   0.08814   0.05303   0.00000  Uiso   1.00
O53    O     0.25302   0.08094   0.07020   0.00000  Uiso   1.00
O54    O     0.14289   0.05753   0.08516   0.00000  Uiso   1.00
O55    O     0.19888   0.06434   0.49090   0.00000  Uiso   1.00
H56    H     0.17214   0.02904   0.49119   0.00000  Uiso   1.00
C57    C     0.51389   0.26642   0.25328   0.00000  Uiso   1.00
C58    C     0.47729   0.15914   0.48546   0.00000  Uiso   1.00
C59    C     0.48248   0.18096   0.43841   0.00000  Uiso   1.00
C60    C     0.51840   0.18237   0.01951   0.00000  Uiso   1.00
C61    C     0.55282   0.23391   0.01223   0.00000  Uiso   1.00
C62    C     0.55304   0.25751   0.46782   0.00000  Uiso   1.00
C63    C     0.51938   0.23073   0.43074   0.00000  Uiso   1.00
C64    C     0.52621   0.15666   0.06091   0.00000  Uiso   1.00
C65    C     0.58182   0.23952   0.09582   0.00000  Uiso   1.00
C66    C     0.44857   0.15342   0.40086   0.00000  Uiso   1.00
C67    C     0.51723   0.32228   0.26123   0.00000  Uiso   1.00
C68    C     0.46746   0.16287   0.34655   0.00000  Uiso   1.00
C69    C     0.48302   0.01108   0.23835   0.00000  Uiso   1.00
C70    C     0.48618   0.06692   0.24655   0.00000  Uiso   1.00
C71    C     0.53252   0.17123   0.15367   0.00000  Uiso   1.00
C72    C     0.58561   0.26158   0.05004   0.00000  Uiso   1.00
C73    C     0.55089   0.18755   0.10177   0.00000  Uiso   1.00
C74    C     0.40154   0.11083   0.41398   0.00000  Uiso   1.00
C75    C     0.39033   0.09414   0.46315   0.00000  Uiso   1.00
C76    C     0.42836   0.11745   0.49846   0.00000  Uiso   1.00
Cu77   Cu    0.44043   0.16105   0.24436   0.00000  Uiso   1.00
Cu78   Cu    0.55957   0.17228   0.25565   0.00000  Uiso   1.00
H79    H     0.60141   0.26353   0.12720   0.00000  Uiso   1.00
H80    H     0.45553   0.32190   0.21093   0.00000  Uiso   1.00
H81    H     0.57941   0.29667   0.46167   0.00000  Uiso   1.00
H82    H     0.61071   0.30148   0.04564   0.00000  Uiso   1.00
H83    H     0.37455   0.08954   0.38574   0.00000  Uiso   1.00
H84    H     0.41811   0.10369   0.03633   0.00000  Uiso   1.00
H85    H     0.35329   0.06188   0.47340   0.00000  Uiso   1.00
H86    H     0.51912   0.25059   0.39745   0.00000  Uiso   1.00
H87    H     0.54483   0.01150   0.28856   0.00000  Uiso   1.00
N88    N     0.64908   0.18074   0.26416   0.00000  Uiso   1.00
N89    N     0.35092   0.15259   0.23584   0.00000  Uiso   1.00
O90    O     0.46131   0.23807   0.24633   0.00000  Uiso   1.00
O91    O     0.56191   0.24755   0.25587   0.00000  Uiso   1.00
O92    O     0.42515   0.15960   0.31840   0.00000  Uiso   1.00
O93    O     0.52575   0.16908   0.32793   0.00000  Uiso   1.00
O94    O     0.43809   0.08578   0.24414   0.00000  Uiso   1.00
O95    O     0.53869   0.09526   0.25367   0.00000  Uiso   1.00
O96    O     0.47425   0.16425   0.17207   0.00000  Uiso   1.00
O97    O     0.57485   0.17373   0.18161   0.00000  Uiso   1.00
S98    S     0.34024   0.24193   0.29597   0.00000  Uiso   1.00
O99    O     0.38786   0.24303   0.32806   0.00000  Uiso   1.00
O100   O     0.36123   0.28184   0.25729   0.00000  Uiso   1.00
O101   O     0.61493   0.26051   0.33664   0.00000  Uiso   1.00
H102   H     0.62907   0.29828   0.34772   0.00000  Uiso   1.00
S103   S     0.65997   0.09148   0.20394   0.00000  Uiso   1.00
O104   O     0.63978   0.05130   0.24242   0.00000  Uiso   1.00
O105   O     0.61183   0.09016   0.17242   0.00000  Uiso   1.00
O106   O     0.38535   0.07378   0.16268   0.00000  Uiso   1.00
H107   H     0.37224   0.03553   0.15291   0.00000  Uiso   1.00
S108   S     0.52985   0.08814   0.05303   0.00000  Uiso   1.00
O109   O     0.58635   0.08094   0.07020   0.00000  Uiso   1.00
O110   O     0.47622   0.05753   0.08516   0.00000  Uiso   1.00
O111   O     0.53222   0.06434   0.49090   0.00000  Uiso   1.00
H112   H     0.50547   0.02904   0.49119   0.00000  Uiso   1.00
C113   C     0.84722   0.26642   0.25328   0.00000  Uiso   1.00
C114   C     0.81062   0.15914   0.48546   0.00000  Uiso   1.00
C115   C     0.81581   0.18096   0.43841   0.00000  Uiso   1.00
C116   C     0.85174   0.18237   0.01951   0.00000  Uiso   1.00
C117   C     0.88615   0.23391   0.01223   0.00000  Uiso   1.00
C118   C     0.88637   0.25751   0.46782   0.00000  Uiso   1.00
C119   C     0.85272   0.23073   0.43074   0.00000  Uiso   1.00
C120   C     0.85955   0.15666   0.06091   0.00000  Uiso   1.00
C121   C     0.91516   0.23952   0.09582   0.00000  Uiso   1.00
C122   C     0.78191   0.15342   0.40086   0.00000  Uiso   1.00
C123   C     0.85056   0.32228   0.26123   0.00000  Uiso   1.00
C124   C     0.80080   0.16287   0.34655   0.00000  Uiso   1.00
C125   C     0.81636   0.01108   0.23835   0.00000  Uiso   1.00
C126   C     0.81951   0.06692   0.24655   0.00000  Uiso   1.00
C127   C     0.86585   0.17123   0.15367   0.00000  Uiso   1.00
C128   C     0.91894   0.26158   0.05004   0.00000  Uiso   1.00
C129   C     0.88423   0.18755   0.10177   0.00000  Uiso   1.00
C130   C     0.73487   0.11083   0.41398   0.00000  Uiso   1.00
C131   C     0.72366   0.09414   0.46315   0.00000  Uiso   1.00
C132   C     0.76169   0.11745   0.49846   0.00000  Uiso   1.00
Cu133  Cu    0.77377   0.16105   0.24436   0.00000  Uiso   1.00
Cu134  Cu    0.89290   0.17228   0.25565   0.00000  Uiso   1.00
H135   H     0.93474   0.26353   0.12720   0.00000  Uiso   1.00
H136   H     0.78887   0.32190   0.21093   0.00000  Uiso   1.00
H137   H     0.91274   0.29667   0.46167   0.00000  Uiso   1.00
H138   H     0.94404   0.30148   0.04564   0.00000  Uiso   1.00
H139   H     0.70788   0.08954   0.38574   0.00000  Uiso   1.00
H140   H     0.75144   0.10369   0.03633   0.00000  Uiso   1.00
H141   H     0.68663   0.06188   0.47340   0.00000  Uiso   1.00
H142   H     0.85245   0.25059   0.39745   0.00000  Uiso   1.00
H143   H     0.87816   0.01150   0.28856   0.00000  Uiso   1.00
N144   N     0.98241   0.18074   0.26416   0.00000  Uiso   1.00
N145   N     0.68426   0.15259   0.23584   0.00000  Uiso   1.00
O146   O     0.79464   0.23807   0.24633   0.00000  Uiso   1.00
O147   O     0.89524   0.24755   0.25587   0.00000  Uiso   1.00
O148   O     0.75848   0.15960   0.31840   0.00000  Uiso   1.00
O149   O     0.85908   0.16908   0.32793   0.00000  Uiso   1.00
O150   O     0.77142   0.08578   0.24414   0.00000  Uiso   1.00
O151   O     0.87203   0.09526   0.25367   0.00000  Uiso   1.00
O152   O     0.80758   0.16425   0.17207   0.00000  Uiso   1.00
O153   O     0.90819   0.17373   0.18161   0.00000  Uiso   1.00
S154   S     0.67358   0.24193   0.29597   0.00000  Uiso   1.00
O155   O     0.72119   0.24303   0.32806   0.00000  Uiso   1.00
O156   O     0.69457   0.28184   0.25729   0.00000  Uiso   1.00
O157   O     0.94827   0.26051   0.33664   0.00000  Uiso   1.00
H158   H     0.96240   0.29828   0.34772   0.00000  Uiso   1.00
S159   S     0.99331   0.09148   0.20394   0.00000  Uiso   1.00
O160   O     0.97311   0.05130   0.24242   0.00000  Uiso   1.00
O161   O     0.94516   0.09016   0.17242   0.00000  Uiso   1.00
O162   O     0.71868   0.07378   0.16268   0.00000  Uiso   1.00
H163   H     0.70557   0.03553   0.15291   0.00000  Uiso   1.00
S164   S     0.86318   0.08814   0.05303   0.00000  Uiso   1.00
O165   O     0.91968   0.08094   0.07020   0.00000  Uiso   1.00
O166   O     0.80956   0.05753   0.08516   0.00000  Uiso   1.00
O167   O     0.86555   0.06434   0.49090   0.00000  Uiso   1.00
H168   H     0.83881   0.02904   0.49119   0.00000  Uiso   1.00
C169   C     0.18056   0.59975   0.25328   0.00000  Uiso   1.00
C170   C     0.14396   0.49247   0.48546   0.00000  Uiso   1.00
C171   C     0.14915   0.51430   0.43841   0.00000  Uiso   1.00
C172   C     0.18507   0.51570   0.01951   0.00000  Uiso   1.00
C173   C     0.21949   0.56725   0.01223   0.00000  Uiso   1.00
C174   C     0.21970   0.59084   0.46782   0.00000  Uiso   1.00
C175   C     0.18605   0.56407   0.43074   0.00000  Uiso   1.00
C176   C     0.19288   0.48999   0.06091   0.00000  Uiso   1.00
C177   C     0.24849   0.57286   0.09582   0.00000  Uiso   1.00
C178   C     0.11524   0.48675   0.40086   0.00000  Uiso   1.00
C179   C     0.18390   0.65561   0.26123   0.00000  Uiso   1.00
C180   C     0.13413   0.49620   0.34655   0.00000  Uiso   1.00
C181   C     0.14969   0.34442   0.23835   0.00000  Uiso   1.00
C182   C     0.15285   0.40026   0.24655   0.00000  Uiso   1.00
C183   C     0.19918   0.50456   0.15367   0.00000  Uiso   1.00
C184   C     0.25228   0.59491   0.05004   0.00000  Uiso   1.00
C185   C     0.21756   0.52088   0.10177   0.00000  Uiso   1.00
C186   C     0.06820   0.44417   0.41398   0.00000  Uiso   1.00
C187   C     0.05700   0.42747   0.46315   0.00000  Uiso   1.00
C188   C     0.09502   0.45078   0.49846   0.00000  Uiso   1.00
Cu189  Cu    0.10710   0.49439   0.24436   0.00000  Uiso   1.00
Cu190  Cu    0.22623   0.50561   0.25565   0.00000  Uiso   1.00
H191   H     0.26808   0.59686   0.12720   0.00000  Uiso   1.00
H192   H     0.12220   0.65523   0.21093   0.00000  Uiso   1.00
H193   H     0.24607   0.63000   0.46167   0.00000  Uiso   1.00
H194   H     0.27738   0.63482   0.04564   0.00000  Uiso   1.00
H195   H     0.04121   0.42288   0.38574   0.00000  Uiso   1.00
H196   H     0.08478   0.43702   0.03633   0.00000  Uiso   1.00
H197   H     0.01996   0.39521   0.47340   0.00000  Uiso   1.00
H198   H     0.18578   0.58392   0.39745   0.00000  Uiso   1.00
H199   H     0.21149   0.34483   0.28856   0.00000  Uiso   1.00
N200   N     0.31574   0.51407   0.26416   0.00000  Uiso   1.00
N201   N     0.01759   0.48593   0.23584   0.00000  Uiso   1.00
O202   O     0.12797   0.57141   0.24633   0.00000  Uiso   1.00
O203   O     0.22858   0.58089   0.25587   0.00000  Uiso   1.00
O204   O     0.09181   0.49293   0.31840   0.00000  Uiso   1.00
O205   O     0.19242   0.50241   0.32793   0.00000  Uiso   1.00
O206   O     0.10476   0.41911   0.24414   0.00000  Uiso   1.00
O207   O     0.20536   0.42859   0.25367   0.00000  Uiso   1.00
O208   O     0.14092   0.49759   0.17207   0.00000  Uiso   1.00
O209   O     0.24152   0.50707   0.18161   0.00000  Uiso   1.00
S210   S     0.00691   0.57527   0.29597   0.00000  Uiso   1.00
O211   O     0.05453   0.57636   0.32806   0.00000  Uiso   1.00
O212   O     0.02790   0.61518   0.25729   0.00000  Uiso   1.00
O213   O     0.28160   0.59384   0.33664   0.00000  Uiso   1.00
H214   H     0.29573   0.63161   0.34772   0.00000  Uiso   1.00
S215   S     0.32664   0.42482   0.20394   0.00000  Uiso   1.00
O216   O     0.30645   0.38464   0.24242   0.00000  Uiso   1.00
O217   O     0.27849   0.42349   0.17242   0.00000  Uiso   1.00
O218   O     0.05201   0.40711   0.16268   0.00000  Uiso   1.00
H219   H     0.03891   0.36886   0.15291   0.00000  Uiso   1.00
S220   S     0.19651   0.42147   0.05303   0.00000  Uiso   1.00
O221   O     0.25302   0.41427   0.07020   0.00000  Uiso   1.00
O222   O     0.14289   0.39086   0.08516   0.00000  Uiso   1.00
O223   O     0.19888   0.39767   0.49090   0.00000  Uiso   1.00
H224   H     0.17214   0.36238   0.49119   0.00000  Uiso   1.00
C225   C     0.51389   0.59975   0.25328   0.00000  Uiso   1.00
C226   C     0.47729   0.49247   0.48546   0.00000  Uiso   1.00
C227   C     0.48248   0.51430   0.43841   0.00000  Uiso   1.00
C228   C     0.51840   0.51570   0.01951   0.00000  Uiso   1.00
C229   C     0.55282   0.56725   0.01223   0.00000  Uiso   1.00
C230   C     0.55304   0.59084   0.46782   0.00000  Uiso   1.00
C231   C     0.51938   0.56407   0.43074   0.00000  Uiso   1.00
C232   C     0.52621   0.48999   0.06091   0.00000  Uiso   1.00
C233   C     0.58182   0.57286   0.09582   0.00000  Uiso   1.00
C234   C     0.44857   0.48675   0.40086   0.00000  Uiso   1.00
C235   C     0.51723   0.65561   0.26123   0.00000  Uiso   1.00
C236   C     0.46746   0.49620   0.34655   0.00000  Uiso   1.00
C237   C     0.48302   0.34442   0.23835   0.00000  Uiso   1.00
C238   C     0.48618   0.40026   0.24655   0.00000  Uiso   1.00
C239   C     0.53252   0.50456   0.15367   0.00000  Uiso   1.00
C240   C     0.58561   0.59491   0.05004   0.00000  Uiso   1.00
C241   C     0.55089   0.52088   0.10177   0.00000  Uiso   1.00
C242   C     0.40154   0.44417   0.41398   0.00000  Uiso   1.00
C243   C     0.39033   0.42747   0.46315   0.00000  Uiso   1.00
C244   C     0.42836   0.45078   0.49846   0.00000  Uiso   1.00
Cu245  Cu    0.44043   0.49439   0.24436   0.00000  Uiso   1.00
Cu246  Cu    0.55957   0.50561   0.25565   0.00000  Uiso   1.00
H247   H     0.60141   0.59686   0.12720   0.00000  Uiso   1.00
H248   H     0.45553   0.65523   0.21093   0.00000  Uiso   1.00
H249   H     0.57941   0.63000   0.46167   0.00000  Uiso   1.00
H250   H     0.61071   0.63482   0.04564   0.00000  Uiso   1.00
H251   H     0.37455   0.42288   0.38574   0.00000  Uiso   1.00
H252   H     0.41811   0.43702   0.03633   0.00000  Uiso   1.00
H253   H     0.35329   0.39521   0.47340   0.00000  Uiso   1.00
H254   H     0.51912   0.58392   0.39745   0.00000  Uiso   1.00
H255   H     0.54483   0.34483   0.28856   0.00000  Uiso   1.00
N256   N     0.64908   0.51407   0.26416   0.00000  Uiso   1.00
N257   N     0.35092   0.48593   0.23584   0.00000  Uiso   1.00
O258   O     0.46131   0.57141   0.24633   0.00000  Uiso   1.00
O259   O     0.56191   0.58089   0.25587   0.00000  Uiso   1.00
O260   O     0.42515   0.49293   0.31840   0.00000  Uiso   1.00
O261   O     0.52575   0.50241   0.32793   0.00000  Uiso   1.00
O262   O     0.43809   0.41911   0.24414   0.00000  Uiso   1.00
O263   O     0.53869   0.42859   0.25367   0.00000  Uiso   1.00
O264   O     0.47425   0.49759   0.17207   0.00000  Uiso   1.00
O265   O     0.57485   0.50707   0.18161   0.00000  Uiso   1.00
S266   S     0.34024   0.57527   0.29597   0.00000  Uiso   1.00
O267   O     0.38786   0.57636   0.32806   0.00000  Uiso   1.00
O268   O     0.36123   0.61518   0.25729   0.00000  Uiso   1.00
O269   O     0.61493   0.59384   0.33664   0.00000  Uiso   1.00
H270   H     0.62907   0.63161   0.34772   0.00000  Uiso   1.00
S271   S     0.65997   0.42482   0.20394   0.00000  Uiso   1.00
O272   O     0.63978   0.38464   0.24242   0.00000  Uiso   1.00
O273   O     0.61183   0.42349   0.17242   0.00000  Uiso   1.00
O274   O     0.38535   0.40711   0.16268   0.00000  Uiso   1.00
H275   H     0.37224   0.36886   0.15291   0.00000  Uiso   1.00
S276   S     0.52985   0.42147   0.05303   0.00000  Uiso   1.00
O277   O     0.58635   0.41427   0.07020   0.00000  Uiso   1.00
O278   O     0.47622   0.39086   0.08516   0.00000  Uiso   1.00
O279   O     0.53222   0.39767   0.49090   0.00000  Uiso   1.00
H280   H     0.50547   0.36238   0.49119   0.00000  Uiso   1.00
C281   C     0.84722   0.59975   0.25328   0.00000  Uiso   1.00
C282   C     0.81062   0.49247   0.48546   0.00000  Uiso   1.00
C283   C     0.81581   0.51430   0.43841   0.00000  Uiso   1.00
C284   C     0.85174   0.51570   0.01951   0.00000  Uiso   1.00
C285   C     0.88615   0.56725   0.01223   0.00000  Uiso   1.00
C286   C     0.88637   0.59084   0.46782   0.00000  Uiso   1.00
C287   C     0.85272   0.56407   0.43074   0.00000  Uiso   1.00
C288   C     0.85955   0.48999   0.06091   0.00000  Uiso   1.00
C289   C     0.91516   0.57286   0.09582   0.00000  Uiso   1.00
C290   C     0.78191   0.48675   0.40086   0.00000  Uiso   1.00
C291   C     0.85056   0.65561   0.26123   0.00000  Uiso   1.00
C292   C     0.80080   0.49620   0.34655   0.00000  Uiso   1.00
C293   C     0.81636   0.34442   0.23835   0.00000  Uiso   1.00
C294   C     0.81951   0.40026   0.24655   0.00000  Uiso   1.00
C295   C     0.86585   0.50456   0.15367   0.00000  Uiso   1.00
C296   C     0.91894   0.59491   0.05004   0.00000  Uiso   1.00
C297   C     0.88423   0.52088   0.10177   0.00000  Uiso   1.00
C298   C     0.73487   0.44417   0.41398   0.00000  Uiso   1.00
C299   C     0.72366   0.42747   0.46315   0.00000  Uiso   1.00
C300   C     0.76169   0.45078   0.49846   0.00000  Uiso   1.00
Cu301  Cu    0.77377   0.49439   0.24436   0.00000  Uiso   1.00
Cu302  Cu    0.89290   0.50561   0.25565   0.00000  Uiso   1.00
H303   H     0.93474   0.59686   0.12720   0.00000  Uiso   1.00
H304   H     0.78887   0.65523   0.21093   0.00000  Uiso   1.00
H305   H     0.91274   0.63000   0.46167   0.00000  Uiso   1.00
H306   H     0.94404   0.63482   0.04564   0.00000  Uiso   1.00
H307   H     0.70788   0.42288   0.38574   0.00000  Uiso   1.00
H308   H     0.75144   0.43702   0.03633   0.00000  Uiso   1.00
H309   H     0.68663   0.39521   0.47340   0.00000  Uiso   1.00
H310   H     0.85245   0.58392   0.39745   0.00000  Uiso   1.00
H311   H     0.87816   0.34483   0.28856   0.00000  Uiso   1.00
N312   N     0.98241   0.51407   0.26416   0.00000  Uiso   1.00
N313   N     0.68426   0.48593   0.23584   0.00000  Uiso   1.00
O314   O     0.79464   0.57141   0.24633   0.00000  Uiso   1.00
O315   O     0.89524   0.58089   0.25587   0.00000  Uiso   1.00
O316   O     0.75848   0.49293   0.31840   0.00000  Uiso   1.00
O317   O     0.85908   0.50241   0.32793   0.00000  Uiso   1.00
O318   O     0.77142   0.41911   0.24414   0.00000  Uiso   1.00
O319   O     0.87203   0.42859   0.25367   0.00000  Uiso   1.00
O320   O     0.80758   0.49759   0.17207   0.00000  Uiso   1.00
O321   O     0.90819   0.50707   0.18161   0.00000  Uiso   1.00
S322   S     0.67358   0.57527   0.29597   0.00000  Uiso   1.00
O323   O     0.72119   0.57636   0.32806   0.00000  Uiso   1.00
O324   O     0.69457   0.61518   0.25729   0.00000  Uiso   1.00
O325   O     0.94827   0.59384   0.33664   0.00000  Uiso   1.00
H326   H     0.96240   0.63161   0.34772   0.00000  Uiso   1.00
S327   S     0.99331   0.42482   0.20394   0.00000  Uiso   1.00
O328   O     0.97311   0.38464   0.24242   0.00000  Uiso   1.00
O329   O     0.94516   0.42349   0.17242   0.00000  Uiso   1.00
O330   O     0.71868   0.40711   0.16268   0.00000  Uiso   1.00
H331   H     0.70557   0.36886   0.15291   0.00000  Uiso   1.00
S332   S     0.86318   0.42147   0.05303   0.00000  Uiso   1.00
O333   O     0.91968   0.41427   0.07020   0.00000  Uiso   1.00
O334   O     0.80956   0.39086   0.08516   0.00000  Uiso   1.00
O335   O     0.86555   0.39767   0.49090   0.00000  Uiso   1.00
H336   H     0.83881   0.36238   0.49119   0.00000  Uiso   1.00
C337   C     0.18056   0.93308   0.25328   0.00000  Uiso   1.00
C338   C     0.14396   0.82580   0.48546   0.00000  Uiso   1.00
C339   C     0.14915   0.84763   0.43841   0.00000  Uiso   1.00
C340   C     0.18507   0.84904   0.01951   0.00000  Uiso   1.00
C341   C     0.21949   0.90058   0.01223   0.00000  Uiso   1.00
C342   C     0.21970   0.92418   0.46782   0.00000  Uiso   1.00
C343   C     0.18605   0.89740   0.43074   0.00000  Uiso   1.00
C344   C     0.19288   0.82332   0.06091   0.00000  Uiso   1.00
C345   C     0.24849   0.90619   0.09582   0.00000  Uiso   1.00
C346   C     0.11524   0.82009   0.40086   0.00000  Uiso   1.00
C347   C     0.18390   0.98895   0.26123   0.00000  Uiso   1.00
C348   C     0.13413   0.82954   0.34655   0.00000  Uiso   1.00
C349   C     0.14969   0.67775   0.23835   0.00000  Uiso   1.00
C350   C     0.15285   0.73359   0.24655   0.00000  Uiso   1.00
C351   C     0.19918   0.83789   0.15367   0.00000  Uiso   1.00
C352   C     0.25228   0.92825   0.05004   0.00000  Uiso   1.00
C353   C     0.21756   0.85421   0.10177   0.00000  Uiso   1.00
C354   C     0.06820   0.77750   0.41398   0.00000  Uiso   1.00
C355   C     0.05700   0.76081   0.46315   0.00000  Uiso   1.00
C356   C     0.09502   0.78411   0.49846   0.00000  Uiso   1.00
Cu357  Cu    0.10710   0.82772   0.24436   0.00000  Uiso   1.00
Cu358  Cu    0.22623   0.83895   0.25565   0.00000  Uiso   1.00
H359   H     0.26808   0.93020   0.12720   0.00000  Uiso   1.00
H360   H     0.12220   0.98856   0.21093   0.00000  Uiso   1.00
H361   H     0.24607   0.96333   0.46167   0.00000  Uiso   1.00
H362   H     0.27738   0.96815   0.04564   0.00000  Uiso   1.00
H363   H     0.04121   0.75621   0.38574   0.00000  Uiso   1.00
H364   H     0.08478   0.77036   0.03633   0.00000  Uiso   1.00
H365   H     0.01996   0.72855   0.47340   0.00000  Uiso   1.00
H366   H     0.18578   0.91725   0.39745   0.00000  Uiso   1.00
H367   H     0.21149   0.67816   0.28856   0.00000  Uiso   1.00
N368   N     0.31574   0.84741   0.26416   0.00000  Uiso   1.00
N369   N     0.01759   0.81926   0.23584   0.00000  Uiso   1.00
O370   O     0.12797   0.90474   0.24633   0.00000  Uiso   1.00
O371   O     0.22858   0.91422   0.25587   0.00000  Uiso   1.00
O372   O     0.09181   0.82627   0.31840   0.00000  Uiso   1.00
O373   O     0.19242   0.83575   0.32793   0.00000  Uiso   1.00
O374   O     0.10476   0.75245   0.24414   0.00000  Uiso   1.00
O375   O     0.20536   0.76193   0.25367   0.00000  Uiso   1.00
O376   O     0.14092   0.83092   0.17207   0.00000  Uiso   1.00
O377   O     0.24152   0.84040   0.18161   0.00000  Uiso   1.00
S378   S     0.00691   0.90860   0.29597   0.00000  Uiso   1.00
O379   O     0.05453   0.90969   0.32806   0.00000  Uiso   1.00
O380   O     0.02790   0.94851   0.25729   0.00000  Uiso   1.00
O381   O     0.28160   0.92717   0.33664   0.00000  Uiso   1.00
H382   H     0.29573   0.96494   0.34772   0.00000  Uiso   1.00
S383   S     0.32664   0.75815   0.20394   0.00000  Uiso   1.00
O384   O     0.30645   0.71797   0.24242   0.00000  Uiso   1.00
O385   O     0.27849   0.75683   0.17242   0.00000  Uiso   1.00
O386   O     0.05201   0.74044   0.16268   0.00000  Uiso   1.00
H387   H     0.03891   0.70219   0.15291   0.00000  Uiso   1.00
S388   S     0.19651   0.75481   0.05303   0.00000  Uiso   1.00
O389   O     0.25302   0.74761   0.07020   0.00000  Uiso   1.00
O390   O     0.14289   0.72420   0.08516   0.00000  Uiso   1.00
O391   O     0.19888   0.73101   0.49090   0.00000  Uiso   1.00
H392   H     0.17214   0.69571   0.49119   0.00000  Uiso   1.00
C393   C     0.51389   0.93308   0.25328   0.00000  Uiso   1.00
C394   C     0.47729   0.82580   0.48546   0.00000  Uiso   1.00
C395   C     0.48248   0.84763   0.43841   0.00000  Uiso   1.00
C396   C     0.51840   0.84904   0.01951   0.00000  Uiso   1.00
C397   C     0.55282   0.90058   0.01223   0.00000  Uiso   1.00
C398   C     0.55304   0.92418   0.46782   0.00000  Uiso   1.00
C399   C     0.51938   0.89740   0.43074   0.00000  Uiso   1.00
C400   C     0.52621   0.82332   0.06091   0.00000  Uiso   1.00
C401   C     0.58182   0.90619   0.09582   0.00000  Uiso   1.00
C402   C     0.44857   0.82009   0.40086   0.00000  Uiso   1.00
C403   C     0.51723   0.98895   0.26123   0.00000  Uiso   1.00
C404   C     0.46746   0.82954   0.34655   0.00000  Uiso   1.00
C405   C     0.48302   0.67775   0.23835   0.00000  Uiso   1.00
C406   C     0.48618   0.73359   0.24655   0.00000  Uiso   1.00
C407   C     0.53252   0.83789   0.15367   0.00000  Uiso   1.00
C408   C     0.58561   0.92825   0.05004   0.00000  Uiso   1.00
C409   C     0.55089   0.85421   0.10177   0.00000  Uiso   1.00
C410   C     0.40154   0.77750   0.41398   0.00000  Uiso   1.00
C411   C     0.39033   0.76081   0.46315   0.00000  Uiso   1.00
C412   C     0.42836   0.78411   0.49846   0.00000  Uiso   1.00
Cu413  Cu    0.44043   0.82772   0.24436   0.00000  Uiso   1.00
Cu414  Cu    0.55957   0.83895   0.25565   0.00000  Uiso   1.00
H415   H     0.60141   0.93020   0.12720   0.00000  Uiso   1.00
H416   H     0.45553   0.98856   0.21093   0.00000  Uiso   1.00
H417   H     0.57941   0.96333   0.46167   0.00000  Uiso   1.00
H418   H     0.61071   0.96815   0.04564   0.00000  Uiso   1.00
H419   H     0.37455   0.75621   0.38574   0.00000  Uiso   1.00
H420   H     0.41811   0.77036   0.03633   0.00000  Uiso   1.00
H421   H     0.35329   0.72855   0.47340   0.00000  Uiso   1.00
H422   H     0.51912   0.91725   0.39745   0.00000  Uiso   1.00
H423   H     0.54483   0.67816   0.28856   0.00000  Uiso   1.00
N424   N     0.64908   0.84741   0.26416   0.00000  Uiso   1.00
N425   N     0.35092   0.81926   0.23584   0.00000  Uiso   1.00
O426   O     0.46131   0.90474   0.24633   0.00000  Uiso   1.00
O427   O     0.56191   0.91422   0.25587   0.00000  Uiso   1.00
O428   O     0.42515   0.82627   0.31840   0.00000  Uiso   1.00
O429   O     0.52575   0.83575   0.32793   0.00000  Uiso   1.00
O430   O     0.43809   0.75245   0.24414   0.00000  Uiso   1.00
O431   O     0.53869   0.76193   0.25367   0.00000  Uiso   1.00
O432   O     0.47425   0.83092   0.17207   0.00000  Uiso   1.00
O433   O     0.57485   0.84040   0.18161   0.00000  Uiso   1.00
S434   S     0.34024   0.90860   0.29597   0.00000  Uiso   1.00
O435   O     0.38786   0.90969   0.32806   0.00000  Uiso   1.00
O436   O     0.36123   0.94851   0.25729   0.00000  Uiso   1.00
O437   O     0.61493   0.92717   0.33664   0.00000  Uiso   1.00
H438   H     0.62907   0.96494   0.34772   0.00000  Uiso   1.00
S439   S     0.65997   0.75815   0.20394   0.00000  Uiso   1.00
O440   O     0.63978   0.71797   0.24242   0.00000  Uiso   1.00
O441   O     0.61183   0.75683   0.17242   0.00000  Uiso   1.00
O442   O     0.38535   0.74044   0.16268   0.00000  Uiso   1.00
H443   H     0.37224   0.70219   0.15291   0.00000  Uiso   1.00
S444   S     0.52985   0.75481   0.05303   0.00000  Uiso   1.00
O445   O     0.58635   0.74761   0.07020   0.00000  Uiso   1.00
O446   O     0.47622   0.72420   0.08516   0.00000  Uiso   1.00
O447   O     0.53222   0.73101   0.49090   0.00000  Uiso   1.00
H448   H     0.50547   0.69571   0.49119   0.00000  Uiso   1.00
C449   C     0.84722   0.93308   0.25328   0.00000  Uiso   1.00
C450   C     0.81062   0.82580   0.48546   0.00000  Uiso   1.00
C451   C     0.81581   0.84763   0.43841   0.00000  Uiso   1.00
C452   C     0.85174   0.84904   0.01951   0.00000  Uiso   1.00
C453   C     0.88615   0.90058   0.01223   0.00000  Uiso   1.00
C454   C     0.88637   0.92418   0.46782   0.00000  Uiso   1.00
C455   C     0.85272   0.89740   0.43074   0.00000  Uiso   1.00
C456   C     0.85955   0.82332   0.06091   0.00000  Uiso   1.00
C457   C     0.91516   0.90619   0.09582   0.00000  Uiso   1.00
C458   C     0.78191   0.82009   0.40086   0.00000  Uiso   1.00
C459   C     0.85056   0.98895   0.26123   0.00000  Uiso   1.00
C460   C     0.80080   0.82954   0.34655   0.00000  Uiso   1.00
C461   C     0.81636   0.67775   0.23835   0.00000  Uiso   1.00
C462   C     0.81951   0.73359   0.24655   0.00000  Uiso   1.00
C463   C     0.86585   0.83789   0.15367   0.00000  Uiso   1.00
C464   C     0.91894   0.92825   0.05004   0.00000  Uiso   1.00
C465   C     0.88423   0.85421   0.10177   0.00000  Uiso   1.00
C466   C     0.73487   0.77750   0.41398   0.00000  Uiso   1.00
C467   C     0.72366   0.76081   0.46315   0.00000  Uiso   1.00
C468   C     0.76169   0.78411   0.49846   0.00000  Uiso   1.00
Cu469  Cu    0.77377   0.82772   0.24436   0.00000  Uiso   1.00
Cu470  Cu    0.89290   0.83895   0.25565   0.00000  Uiso   1.00
H471   H     0.93474   0.93020   0.12720   0.00000  Uiso   1.00
H472   H     0.78887   0.98856   0.21093   0.00000  Uiso   1.00
H473   H     0.91274   0.96333   0.46167   0.00000  Uiso   1.00
H474   H     0.94404   0.96815   0.04564   0.00000  Uiso   1.00
H475   H     0.70788   0.75621   0.38574   0.00000  Uiso   1.00
H476   H     0.75144   0.77036   0.03633   0.00000  Uiso   1.00
H477   H     0.68663   0.72855   0.47340   0.00000  Uiso   1.00
H478   H     0.85245   0.91725   0.39745   0.00000  Uiso   1.00
H479   H     0.87816   0.67816   0.28856   0.00000  Uiso   1.00
N480   N     0.98241   0.84741   0.26416   0.00000  Uiso   1.00
N481   N     0.68426   0.81926   0.23584   0.00000  Uiso   1.00
O482   O     0.79464   0.90474   0.24633   0.00000  Uiso   1.00
O483   O     0.89524   0.91422   0.25587   0.00000  Uiso   1.00
O484   O     0.75848   0.82627   0.31840   0.00000  Uiso   1.00
O485   O     0.85908   0.83575   0.32793   0.00000  Uiso   1.00
O486   O     0.77142   0.75245   0.24414   0.00000  Uiso   1.00
O487   O     0.87203   0.76193   0.25367   0.00000  Uiso   1.00
O488   O     0.80758   0.83092   0.17207   0.00000  Uiso   1.00
O489   O     0.90819   0.84040   0.18161   0.00000  Uiso   1.00
S490   S     0.67358   0.90860   0.29597   0.00000  Uiso   1.00
O491   O     0.72119   0.90969   0.32806   0.00000  Uiso   1.00
O492   O     0.69457   0.94851   0.25729   0.00000  Uiso   1.00
O493   O     0.94827   0.92717   0.33664   0.00000  Uiso   1.00
H494   H     0.96240   0.96494   0.34772   0.00000  Uiso   1.00
S495   S     0.99331   0.75815   0.20394   0.00000  Uiso   1.00
O496   O     0.97311   0.71797   0.24242   0.00000  Uiso   1.00
O497   O     0.94516   0.75683   0.17242   0.00000  Uiso   1.00
O498   O     0.71868   0.74044   0.16268   0.00000  Uiso   1.00
H499   H     0.70557   0.70219   0.15291   0.00000  Uiso   1.00
S500   S     0.86318   0.75481   0.05303   0.00000  Uiso   1.00
O501   O     0.91968   0.74761   0.07020   0.00000  Uiso   1.00
O502   O     0.80956   0.72420   0.08516   0.00000  Uiso   1.00
O503   O     0.86555   0.73101   0.49090   0.00000  Uiso   1.00
H504   H     0.83881   0.69571   0.49119   0.00000  Uiso   1.00
C505   C     0.18056   0.26642   0.75328   0.00000  Uiso   1.00
C506   C     0.14396   0.15914   0.98546   0.00000  Uiso   1.00
C507   C     0.14915   0.18096   0.93841   0.00000  Uiso   1.00
C508   C     0.18507   0.18237   0.51951   0.00000  Uiso   1.00
C509   C     0.21949   0.23391   0.51223   0.00000  Uiso   1.00
C510   C     0.21970   0.25751   0.96782   0.00000  Uiso   1.00
C511   C     0.18605   0.23073   0.93074   0.00000  Uiso   1.00
C512   C     0.19288   0.15666   0.56091   0.00000  Uiso   1.00
C513   C     0.24849   0.23952   0.59582   0.00000  Uiso   1.00
C514   C     0.11524   0.15342   0.90086   0.00000  Uiso   1.00
C515   C     0.18390   0.32228   0.76123   0.00000  Uiso   1.00
C516   C     0.13413   0.16287   0.84655   0.00000  Uiso   1.00
C517   C     0.14969   0.01108   0.73835   0.00000  Uiso   1.00
C518   C     0.15285   0.06692   0.74655   0.00000  Uiso   1.00
C519   C     0.19918   0.17123   0.65367   0.00000  Uiso   1.00
C520   C     0.25228   0.26158   0.55004   0.00000  Uiso   1.00
C521   C     0.21756   0.18755   0.60177   0.00000  Uiso   1.00
C522   C     0.06820   0.11083   0.91398   0.00000  Uiso   1.00
C523   C     0.05700   0.09414   0.96315   0.00000  Uiso   1.00
C524   C     0.09502   0.11745   0.99846   0.00000  Uiso   1.00
Cu525  Cu    0.10710   0.16105   0.74436   0.00000  Uiso   1.00
Cu526  Cu    0.22623   0.17228   0.75565   0.00000  Uiso   1.00
H527   H     0.26808   0.26353   0.62720   0.00000  Uiso   1.00
H528   H     0.12220   0.32190   0.71093   0.00000  Uiso   1.00
H529   H     0.24607   0.29667   0.96167   0.00000  Uiso   1.00
H530   H     0.27738   0.30148   0.54564   0.00000  Uiso   1.00
H531   H     0.04121   0.08954   0.88574   0.00000  Uiso   1.00
H532   H     0.08478   0.10369   0.53633   0.00000  Uiso   1.00
H533   H     0.01996   0.06188   0.97340   0.00000  Uiso   1.00
H534   H     0.18578   0.25059   0.89745   0.00000  Uiso   1.00
H535   H     0.21149   0.01150   0.78856   0.00000  Uiso   1.00
N536   N     0.31574   0.18074   0.76416   0.00000  Uiso   1.00
N537   N     0.01759   0.15259   0.73584   0.00000  Uiso   1.00
O538   O     0.12797   0.23807   0.74633   0.00000  Uiso   1.00
O539   O     0.22858   0.24755   0.75587   0.00000  Uiso   1.00
O540   O     0.09181   0.15960   0.81840   0.00000  Uiso   1.00
O541   O     0.19242   0.16908   0.82793   0.00000  Uiso   1.00
O542   O     0.10476   0.08578   0.74414   0.00000  Uiso   1.00
O543   O     0.20536   0.09526   0.75367   0.00000  Uiso   1.00
O544   O     0.14092   0.16425   0.67207   0.00000  Uiso   1.00
O545   O     0.24152   0.17373   0.68161   0.00000  Uiso   1.00
S546   S     0.00691   0.24193   0.79597   0.00000  Uiso   1.00
O547   O     0.05453   0.24303   0.82806   0.00000  Uiso   1.00
O548   O     0.02790   0.28184   0.75729   0.00000  Uiso   1.00
O549   O     0.28160   0.26051   0.83664   0.00000  Uiso   1.00
H550   H     0.29573   0.29828   0.84772   0.00000  Uiso   1.00
S551   S     0.32664   0.09148   0.70394   0.00000  Uiso   1.00
O552   O     0.30645   0.05130   0.74242   0.00000  Uiso   1.00
O553   O     0.27849   0.09016   0.67242   0.00000  Uiso   1.00
O554   O     0.05201   0.07378   0.66268   0.00000  Uiso   1.00
H555   H     0.03891   0.03553   0.65291   0.00000  Uiso   1.00
S556   S     0.19651   0.08814   0.55303   0.00000  Uiso   1.00
O557   O     0.25302   0.08094   0.57020   0.00000  Uiso   1.00
O558   O     0.14289   0.05753   0.58516   0.00000  Uiso   1.00
O559   O     0.19888   0.06434   0.99090   0.00000  Uiso   1.00
H560   H     0.17214   0.02904   0.99119   0.00000  Uiso   1.00
C561   C     0.51389   0.26642   0.75328   0.00000  Uiso   1.00
C562   C     0.47729   0.15914   0.98546   0.00000  Uiso   1.00
C563   C     0.48248   0.18096   0.93841   0.00000  Uiso   1.00
C564   C     0.51840   0.18237   0.51951   0.00000  Uiso   1.00
C565   C     0.55282   0.23391   0.51223   0.00000  Uiso   1.00
C566   C     0.55304   0.25751   0.96782   0.00000  Uiso   1.00
C567   C     0.51938   0.23073   0.93074   0.00000  Uiso   1.00
C568   C     0.52621   0.15666   0.56091   0.00000  Uiso   1.00
C569   C     0.58182   0.23952   0.59582   0.00000  Uiso   1.00
C570   C     0.44857   0.15342   0.90086   0.00000  Uiso   1.00
C571   C     0.51723   0.32228   0.76123   0.00000  Uiso   1.00
C572   C     0.46746   0.16287   0.84655   0.00000  Uiso   1.00
C573   C     0.48302   0.01108   0.73835   0.00000  Uiso   1.00
C574   C     0.48618   0.06692   0.74655   0.00000  Uiso   1.00
C575   C     0.53252   0.17123   0.65367   0.00000  Uiso   1.00
C576   C     0.58561   0.26158   0.55004   0.00000  Uiso   1.00
C577   C     0.55089   0.18755   0.60177   0.00000  Uiso   1.00
C578   C     0.40154   0.11083   0.91398   0.00000  Uiso   1.00
C579   C     0.39033   0.09414   0.96315   0.00000  Uiso   1.00
C580   C     0.42836   0.11745   0.99846   0.00000  Uiso   1.00
Cu581  Cu    0.44043   0.16105   0.74436   0.00000  Uiso   1.00
Cu582  Cu    0.55957   0.17228   0.75565   0.00000  Uiso   1.00
H583   H     0.60141   0.26353   0.62720   0.00000  Uiso   1.00
H584   H     0.45553   0.32190   0.71093   0.00000  Uiso   1.00
H585   H     0.57941   0.29667   0.96167   0.00000  Uiso   1.00
H586   H     0.61071   0.30148   0.54564   0.00000  Uiso   1.00
H587   H     0.37455   0.08954   0.88574   0.00000  Uiso   1.00
H588   H     0.41811   0.10369   0.53633   0.00000  Uiso   1.00
H589   H     0.35329   0.06188   0.97340   0.00000  Uiso   1.00
H590   H     0.51912   0.25059   0.89745   0.00000  Uiso   1.00
H591   H     0.54483   0.01150   0.78856   0.00000  Uiso   1.00
N592   N     0.64908   0.18074   0.76416   0.00000  Uiso   1.00
N593   N     0.35092   0.15259   0.73584   0.00000  Uiso   1.00
O594   O     0.46131   0.23807   0.74633   0.00000  Uiso   1.00
O595   O     0.56191   0.24755   0.75587   0.00000  Uiso   1.00
O596   O     0.42515   0.15960   0.81840   0.00000  Uiso   1.00
O597   O     0.52575   0.16908   0.82793   0.00000  Uiso   1.00
O598   O     0.43809   0.08578   0.74414   0.00000  Uiso   1.00
O599   O     0.53869   0.09526   0.75367   0.00000  Uiso   1.00
O600   O     0.47425   0.16425   0.67207   0.00000  Uiso   1.00
O601   O     0.57485   0.17373   0.68161   0.00000  Uiso   1.00
S602   S     0.34024   0.24193   0.79597   0.00000  Uiso   1.00
O603   O     0.38786   0.24303   0.82806   0.00000  Uiso   1.00
O604   O     0.36123   0.28184   0.75729   0.00000  Uiso   1.00
O605   O     0.61493   0.26051   0.83664   0.00000  Uiso   1.00
H606   H     0.62907   0.29828   0.84772   0.00000  Uiso   1.00
S607   S     0.65997   0.09148   0.70394   0.00000  Uiso   1.00
O608   O     0.63978   0.05130   0.74242   0.00000  Uiso   1.00
O609   O     0.61183   0.09016   0.67242   0.00000  Uiso   1.00
O610   O     0.38535   0.07378   0.66268   0.00000  Uiso   1.00
H611   H     0.37224   0.03553   0.65291   0.00000  Uiso   1.00
S612   S     0.52985   0.08814   0.55303   0.00000  Uiso   1.00
O613   O     0.58635   0.08094   0.57020   0.00000  Uiso   1.00
O614   O     0.47622   0.05753   0.58516   0.00000  Uiso   1.00
O615   O     0.53222   0.06434   0.99090   0.00000  Uiso   1.00
H616   H     0.50547   0.02904   0.99119   0.00000  Uiso   1.00
C617   C     0.84722   0.26642   0.75328   0.00000  Uiso   1.00
C618   C     0.81062   0.15914   0.98546   0.00000  Uiso   1.00
C619   C     0.81581   0.18096   0.93841   0.00000  Uiso   1.00
C620   C     0.85174   0.18237   0.51951   0.00000  Uiso   1.00
C621   C     0.88615   0.23391   0.51223   0.00000  Uiso   1.00
C622   C     0.88637   0.25751   0.96782   0.00000  Uiso   1.00
C623   C     0.85272   0.23073   0.93074   0.00000  Uiso   1.00
C624   C     0.85955   0.15666   0.56091   0.00000  Uiso   1.00
C625   C     0.91516   0.23952   0.59582   0.00000  Uiso   1.00
C626   C     0.78191   0.15342   0.90086   0.00000  Uiso   1.00
C627   C     0.85056   0.32228   0.76123   0.00000  Uiso   1.00
C628   C     0.80080   0.16287   0.84655   0.00000  Uiso   1.00
C629   C     0.81636   0.01108   0.73835   0.00000  Uiso   1.00
C630   C     0.81951   0.06692   0.74655   0.00000  Uiso   1.00
C631   C     0.86585   0.17123   0.65367   0.00000  Uiso   1.00
C632   C     0.91894   0.26158   0.55004   0.00000  Uiso   1.00
C633   C     0.88423   0.18755   0.60177   0.00000  Uiso   1.00
C634   C     0.73487   0.11083   0.91398   0.00000  Uiso   1.00
C635   C     0.72366   0.09414   0.96315   0.00000  Uiso   1.00
C636   C     0.76169   0.11745   0.99846   0.00000  Uiso   1.00
Cu637  Cu    0.77377   0.16105   0.74436   0.00000  Uiso   1.00
Cu638  Cu    0.89290   0.17228   0.75565   0.00000  Uiso   1.00
H639   H     0.93474   0.26353   0.62720   0.00000  Uiso   1.00
H640   H     0.78887   0.32190   0.71093   0.00000  Uiso   1.00
H641   H     0.91274   0.29667   0.96167   0.00000  Uiso   1.00
H642   H     0.94404   0.30148   0.54564   0.00000  Uiso   1.00
H643   H     0.70788   0.08954   0.88574   0.00000  Uiso   1.00
H644   H     0.75144   0.10369   0.53633   0.00000  Uiso   1.00
H645   H     0.68663   0.06188   0.97340   0.00000  Uiso   1.00
H646   H     0.85245   0.25059   0.89745   0.00000  Uiso   1.00
H647   H     0.87816   0.01150   0.78856   0.00000  Uiso   1.00
N648   N     0.98241   0.18074   0.76416   0.00000  Uiso   1.00
N649   N     0.68426   0.15259   0.73584   0.00000  Uiso   1.00
O650   O     0.79464   0.23807   0.74633   0.00000  Uiso   1.00
O651   O     0.89524   0.24755   0.75587   0.00000  Uiso   1.00
O652   O     0.75848   0.15960   0.81840   0.00000  Uiso   1.00
O653   O     0.85908   0.16908   0.82793   0.00000  Uiso   1.00
O654   O     0.77142   0.08578   0.74414   0.00000  Uiso   1.00
O655   O     0.87203   0.09526   0.75367   0.00000  Uiso   1.00
O656   O     0.80758   0.16425   0.67207   0.00000  Uiso   1.00
O657   O     0.90819   0.17373   0.68161   0.00000  Uiso   1.00
S658   S     0.67358   0.24193   0.79597   0.00000  Uiso   1.00
O659   O     0.72119   0.24303   0.82806   0.00000  Uiso   1.00
O660   O     0.69457   0.28184   0.75729   0.00000  Uiso   1.00
O661   O     0.94827   0.26051   0.83664   0.00000  Uiso   1.00
H662   H     0.96240   0.29828   0.84772   0.00000  Uiso   1.00
S663   S     0.99331   0.09148   0.70394   0.00000  Uiso   1.00
O664   O     0.97311   0.05130   0.74242   0.00000  Uiso   1.00
O665   O     0.94516   0.09016   0.67242   0.00000  Uiso   1.00
O666   O     0.71868   0.07378   0.66268   0.00000  Uiso   1.00
H667   H     0.70557   0.03553   0.65291   0.00000  Uiso   1.00
S668   S     0.86318   0.08814   0.55303   0.00000  Uiso   1.00
O669   O     0.91968   0.08094   0.57020   0.00000  Uiso   1.00
O670   O     0.80956   0.05753   0.58516   0.00000  Uiso   1.00
O671   O     0.86555   0.06434   0.99090   0.00000  Uiso   1.00
H672   H     0.83881   0.02904   0.99119   0.00000  Uiso   1.00
C673   C     0.18056   0.59975   0.75328   0.00000  Uiso   1.00
C674   C     0.14396   0.49247   0.98546   0.00000  Uiso   1.00
C675   C     0.14915   0.51430   0.93841   0.00000  Uiso   1.00
C676   C     0.18507   0.51570   0.51951   0.00000  Uiso   1.00
C677   C     0.21949   0.56725   0.51223   0.00000  Uiso   1.00
C678   C     0.21970   0.59084   0.96782   0.00000  Uiso   1.00
C679   C     0.18605   0.56407   0.93074   0.00000  Uiso   1.00
C680   C     0.19288   0.48999   0.56091   0.00000  Uiso   1.00
C681   C     0.24849   0.57286   0.59582   0.00000  Uiso   1.00
C682   C     0.11524   0.48675   0.90086   0.00000  Uiso   1.00
C683   C     0.18390   0.65561   0.76123   0.00000  Uiso   1.00
C684   C     0.13413   0.49620   0.84655   0.00000  Uiso   1.00
C685   C     0.14969   0.34442   0.73835   0.00000  Uiso   1.00
C686   C     0.15285   0.40026   0.74655   0.00000  Uiso   1.00
C687   C     0.19918   0.50456   0.65367   0.00000  Uiso   1.00
C688   C     0.25228   0.59491   0.55004   0.00000  Uiso   1.00
C689   C     0.21756   0.52088   0.60177   0.00000  Uiso   1.00
C690   C     0.06820   0.44417   0.91398   0.00000  Uiso   1.00
C691   C     0.05700   0.42747   0.96315   0.00000  Uiso   1.00
C692   C     0.09502   0.45078   0.99846   0.00000  Uiso   1.00
Cu693  Cu    0.10710   0.49439   0.74436   0.00000  Uiso   1.00
Cu694  Cu    0.22623   0.50561   0.75565   0.00000  Uiso   1.00
H695   H     0.26808   0.59686   0.62720   0.00000  Uiso   1.00
H696   H     0.12220   0.65523   0.71093   0.00000  Uiso   1.00
H697   H     0.24607   0.63000   0.96167   0.00000  Uiso   1.00
H698   H     0.27738   0.63482   0.54564   0.00000  Uiso   1.00
H699   H     0.04121   0.42288   0.88574   0.00000  Uiso   1.00
H700   H     0.08478   0.43702   0.53633   0.00000  Uiso   1.00
H701   H     0.01996   0.39521   0.97340   0.00000  Uiso   1.00
H702   H     0.18578   0.58392   0.89745   0.00000  Uiso   1.00
H703   H     0.21149   0.34483   0.78856   0.00000  Uiso   1.00
N704   N     0.31574   0.51407   0.76416   0.00000  Uiso   1.00
N705   N     0.01759   0.48593   0.73584   0.00000  Uiso   1.00
O706   O     0.12797   0.57141   0.74633   0.00000  Uiso   1.00
O707   O     0.22858   0.58089   0.75587   0.00000  Uiso   1.00
O708   O     0.09181   0.49293   0.81840   0.00000  Uiso   1.00
O709   O     0.19242   0.50241   0.82793   0.00000  Uiso   1.00
O710   O     0.10476   0.41911   0.74414   0.00000  Uiso   1.00
O711   O     0.20536   0.42859   0.75367   0.00000  Uiso   1.00
O712   O     0.14092   0.49759   0.67207   0.00000  Uiso   1.00
O713   O     0.24152   0.50707   0.68161   0.00000  Uiso   1.00
S714   S     0.00691   0.57527   0.79597   0.00000  Uiso   1.00
O715   O     0.05453   0.57636   0.82806   0.00000  Uiso   1.00
O716   O     0.02790   0.61518   0.75729   0.00000  Uiso   1.00
O717   O     0.28160   0.59384   0.83664   0.00000  Uiso   1.00
H718   H     0.29573   0.63161   0.84772   0.00000  Uiso   1.00
S719   S     0.32664   0.42482   0.70394   0.00000  Uiso   1.00
O720   O     0.30645   0.38464   0.74242   0.00000  Uiso   1.00
O721   O     0.27849   0.42349   0.67242   0.00000  Uiso   1.00
O722   O     0.05201   0.40711   0.66268   0.00000  Uiso   1.00
H723   H     0.03891   0.36886   0.65291   0.00000  Uiso   1.00
S724   S     0.19651   0.42147   0.55303   0.00000  Uiso   1.00
O725   O     0.25302   0.41427   0.57020   0.00000  Uiso   1.00
O726   O     0.14289   0.39086   0.58516   0.00000  Uiso   1.00
O727   O     0.19888   0.39767   0.99090   0.00000  Uiso   1.00
H728   H     0.17214   0.36238   0.99119   0.00000  Uiso   1.00
C729   C     0.51389   0.59975   0.75328   0.00000  Uiso   1.00
C730   C     0.47729   0.49247   0.98546   0.00000  Uiso   1.00
C731   C     0.48248   0.51430   0.93841   0.00000  Uiso   1.00
C732   C     0.51840   0.51570   0.51951   0.00000  Uiso   1.00
C733   C     0.55282   0.56725   0.51223   0.00000  Uiso   1.00
C734   C     0.55304   0.59084   0.96782   0.00000  Uiso   1.00
C735   C     0.51938   0.56407   0.93074   0.00000  Uiso   1.00
C736   C     0.52621   0.48999   0.56091   0.00000  Uiso   1.00
C737   C     0.58182   0.57286   0.59582   0.00000  Uiso   1.00
C738   C     0.44857   0.48675   0.90086   0.00000  Uiso   1.00
C739   C     0.51723   0.65561   0.76123   0.00000  Uiso   1.00
C740   C     0.46746   0.49620   0.84655   0.00000  Uiso   1.00
C741   C     0.48302   0.34442   0.73835   0.00000  Uiso   1.00
C742   C     0.48618   0.40026   0.74655   0.00000  Uiso   1.00
C743   C     0.53252   0.50456   0.65367   0.00000  Uiso   1.00
C744   C     0.58561   0.59491   0.55004   0.00000  Uiso   1.00
C745   C     0.55089   0.52088   0.60177   0.00000  Uiso   1.00
C746   C     0.40154   0.44417   0.91398   0.00000  Uiso   1.00
C747   C     0.39033   0.42747   0.96315   0.00000  Uiso   1.00
C748   C     0.42836   0.45078   0.99846   0.00000  Uiso   1.00
Cu749  Cu    0.44043   0.49439   0.74436   0.00000  Uiso   1.00
Cu750  Cu    0.55957   0.50561   0.75565   0.00000  Uiso   1.00
H751   H     0.60141   0.59686   0.62720   0.00000  Uiso   1.00
H752   H     0.45553   0.65523   0.71093   0.00000  Uiso   1.00
H753   H     0.57941   0.63000   0.96167   0.00000  Uiso   1.00
H754   H     0.61071   0.63482   0.54564   0.00000  Uiso   1.00
H755   H     0.37455   0.42288   0.88574   0.00000  Uiso   1.00
H756   H     0.41811   0.43702   0.53633   0.00000  Uiso   1.00
H757   H     0.35329   0.39521   0.97340   0.00000  Uiso   1.00
H758   H     0.51912   0.58392   0.89745   0.00000  Uiso   1.00
H759   H     0.54483   0.34483   0.78856   0.00000  Uiso   1.00
N760   N     0.64908   0.51407   0.76416   0.00000  Uiso   1.00
N761   N     0.35092   0.48593   0.73584   0.00000  Uiso   1.00
O762   O     0.46131   0.57141   0.74633   0.00000  Uiso   1.00
O763   O     0.56191   0.58089   0.75587   0.00000  Uiso   1.00
O764   O     0.42515   0.49293   0.81840   0.00000  Uiso   1.00
O765   O     0.52575   0.50241   0.82793   0.00000  Uiso   1.00
O766   O     0.43809   0.41911   0.74414   0.00000  Uiso   1.00
O767   O     0.53869   0.42859   0.75367   0.00000  Uiso   1.00
O768   O     0.47425   0.49759   0.67207   0.00000  Uiso   1.00
O769   O     0.57485   0.50707   0.68161   0.00000  Uiso   1.00
S770   S     0.34024   0.57527   0.79597   0.00000  Uiso   1.00
O771   O     0.38786   0.57636   0.82806   0.00000  Uiso   1.00
O772   O     0.36123   0.61518   0.75729   0.00000  Uiso   1.00
O773   O     0.61493   0.59384   0.83664   0.00000  Uiso   1.00
H774   H     0.62907   0.63161   0.84772   0.00000  Uiso   1.00
S775   S     0.65997   0.42482   0.70394   0.00000  Uiso   1.00
O776   O     0.63978   0.38464   0.74242   0.00000  Uiso   1.00
O777   O     0.61183   0.42349   0.67242   0.00000  Uiso   1.00
O778   O     0.38535   0.40711   0.66268   0.00000  Uiso   1.00
H779   H     0.37224   0.36886   0.65291   0.00000  Uiso   1.00
S780   S     0.52985   0.42147   0.55303   0.00000  Uiso   1.00
O781   O     0.58635   0.41427   0.57020   0.00000  Uiso   1.00
O782   O     0.47622   0.39086   0.58516   0.00000  Uiso   1.00
O783   O     0.53222   0.39767   0.99090   0.00000  Uiso   1.00
H784   H     0.50547   0.36238   0.99119   0.00000  Uiso   1.00
C785   C     0.84722   0.59975   0.75328   0.00000  Uiso   1.00
C786   C     0.81062   0.49247   0.98546   0.00000  Uiso   1.00
C787   C     0.81581   0.51430   0.93841   0.00000  Uiso   1.00
C788   C     0.85174   0.51570   0.51951   0.00000  Uiso   1.00
C789   C     0.88615   0.56725   0.51223   0.00000  Uiso   1.00
C790   C     0.88637   0.59084   0.96782   0.00000  Uiso   1.00
C791   C     0.85272   0.56407   0.93074   0.00000  Uiso   1.00
C792   C     0.85955   0.48999   0.56091   0.00000  Uiso   1.00
C793   C     0.91516   0.57286   0.59582   0.00000  Uiso   1.00
C794   C     0.78191   0.48675   0.90086   0.00000  Uiso   1.00
C795   C     0.85056   0.65561   0.76123   0.00000  Uiso   1.00
C796   C     0.80080   0.49620   0.84655   0.00000  Uiso   1.00
C797   C     0.81636   0.34442   0.73835   0.00000  Uiso   1.00
C798   C     0.81951   0.40026   0.74655   0.00000  Uiso   1.00
C799   C     0.86585   0.50456   0.65367   0.00000  Uiso   1.00
C800   C     0.91894   0.59491   0.55004   0.00000  Uiso   1.00
C801   C     0.88423   0.52088   0.60177   0.00000  Uiso   1.00
C802   C     0.73487   0.44417   0.91398   0.00000  Uiso   1.00
C803   C     0.72366   0.42747   0.96315   0.00000  Uiso   1.00
C804   C     0.76169   0.45078   0.99846   0.00000  Uiso   1.00
Cu805  Cu    0.77377   0.49439   0.74436   0.00000  Uiso   1.00
Cu806  Cu    0.89290   0.50561   0.75565   0.00000  Uiso   1.00
H807   H     0.93474   0.59686   0.62720   0.00000  Uiso   1.00
H808   H     0.78887   0.65523   0.71093   0.00000  Uiso   1.00
H809   H     0.91274   0.63000   0.96167   0.00000  Uiso   1.00
H810   H     0.94404   0.63482   0.54564   0.00000  Uiso   1.00
H811   H     0.70788   0.42288   0.88574   0.00000  Uiso   1.00
H812   H     0.75144   0.43702   0.53633   0.00000  Uiso   1.00
H813   H     0.68663   0.39521   0.97340   0.00000  Uiso   1.00
H814   H     0.85245   0.58392   0.89745   0.00000  Uiso   1.00
H815   H     0.87816   0.34483   0.78856   0.00000  Uiso   1.00
N816   N     0.98241   0.51407   0.76416   0.00000  Uiso   1.00
N817   N     0.68426   0.48593   0.73584   0.00000  Uiso   1.00
O818   O     0.79464   0.57141   0.74633   0.00000  Uiso   1.00
O819   O     0.89524   0.58089   0.75587   0.00000  Uiso   1.00
O820   O     0.75848   0.49293   0.81840   0.00000  Uiso   1.00
O821   O     0.85908   0.50241   0.82793   0.00000  Uiso   1.00
O822   O     0.77142   0.41911   0.74414   0.00000  Uiso   1.00
O823   O     0.87203   0.42859   0.75367   0.00000  Uiso   1.00
O824   O     0.80758   0.49759   0.67207   0.00000  Uiso   1.00
O825   O     0.90819   0.50707   0.68161   0.00000  Uiso   1.00
S826   S     0.67358   0.57527   0.79597   0.00000  Uiso   1.00
O827   O     0.72119   0.57636   0.82806   0.00000  Uiso   1.00
O828   O     0.69457   0.61518   0.75729   0.00000  Uiso   1.00
O829   O     0.94827   0.59384   0.83664   0.00000  Uiso   1.00
H830   H     0.96240   0.63161   0.84772   0.00000  Uiso   1.00
S831   S     0.99331   0.42482   0.70394   0.00000  Uiso   1.00
O832   O     0.97311   0.38464   0.74242   0.00000  Uiso   1.00
O833   O     0.94516   0.42349   0.67242   0.00000  Uiso   1.00
O834   O     0.71868   0.40711   0.66268   0.00000  Uiso   1.00
H835   H     0.70557   0.36886   0.65291   0.00000  Uiso   1.00
S836   S     0.86318   0.42147   0.55303   0.00000  Uiso   1.00
O837   O     0.91968   0.41427   0.57020   0.00000  Uiso   1.00
O838   O     0.80956   0.39086   0.58516   0.00000  Uiso   1.00
O839   O     0.86555   0.39767   0.99090   0.00000  Uiso   1.00
H840   H     0.83881   0.36238   0.99119   0.00000  Uiso   1.00
C841   C     0.18056   0.93308   0.75328   0.00000  Uiso   1.00
C842   C     0.14396   0.82580   0.98546   0.00000  Uiso   1.00
C843   C     0.14915   0.84763   0.93841   0.00000  Uiso   1.00
C844   C     0.18507   0.84904   0.51951   0.00000  Uiso   1.00
C845   C     0.21949   0.90058   0.51223   0.00000  Uiso   1.00
C846   C     0.21970   0.92418   0.96782   0.00000  Uiso   1.00
C847   C     0.18605   0.89740   0.93074   0.00000  Uiso   1.00
C848   C     0.19288   0.82332   0.56091   0.00000  Uiso   1.00
C849   C     0.24849   0.90619   0.59582   0.00000  Uiso   1.00
C850   C     0.11524   0.82009   0.90086   0.00000  Uiso   1.00
C851   C     0.18390   0.98895   0.76123   0.00000  Uiso   1.00
C852   C     0.13413   0.82954   0.84655   0.00000  Uiso   1.00
C853   C     0.14969   0.67775   0.73835   0.00000  Uiso   1.00
C854   C     0.15285   0.73359   0.74655   0.00000  Uiso   1.00
C855   C     0.19918   0.83789   0.65367   0.00000  Uiso   1.00
C856   C     0.25228   0.92825   0.55004   0.00000  Uiso   1.00
C857   C     0.21756   0.85421   0.60177   0.00000  Uiso   1.00
C858   C     0.06820   0.77750   0.91398   0.00000  Uiso   1.00
C859   C     0.05700   0.76081   0.96315   0.00000  Uiso   1.00
C860   C     0.09502   0.78411   0.99846   0.00000  Uiso   1.00
Cu861  Cu    0.10710   0.82772   0.74436   0.00000  Uiso   1.00
Cu862  Cu    0.22623   0.83895   0.75565   0.00000  Uiso   1.00
H863   H     0.26808   0.93020   0.62720   0.00000  Uiso   1.00
H864   H     0.12220   0.98856   0.71093   0.00000  Uiso   1.00
H865   H     0.24607   0.96333   0.96167   0.00000  Uiso   1.00
H866   H     0.27738   0.96815   0.54564   0.00000  Uiso   1.00
H867   H     0.04121   0.75621   0.88574   0.00000  Uiso   1.00
H868   H     0.08478   0.77036   0.53633   0.00000  Uiso   1.00
H869   H     0.01996   0.72855   0.97340   0.00000  Uiso   1.00
H870   H     0.18578   0.91725   0.89745   0.00000  Uiso   1.00
H871   H     0.21149   0.67816   0.78856   0.00000  Uiso   1.00
N872   N     0.31574   0.84741   0.76416   0.00000  Uiso   1.00
N873   N     0.01759   0.81926   0.73584   0.00000  Uiso   1.00
O874   O     0.12797   0.90474   0.74633   0.00000  Uiso   1.00
O875   O     0.22858   0.91422   0.75587   0.00000  Uiso   1.00
O876   O     0.09181   0.82627   0.81840   0.00000  Uiso   1.00
O877   O     0.19242   0.83575   0.82793   0.00000  Uiso   1.00
O878   O     0.10476   0.75245   0.74414   0.00000  Uiso   1.00
O879   O     0.20536   0.76193   0.75367   0.00000  Uiso   1.00
O880   O     0.14092   0.83092   0.67207   0.00000  Uiso   1.00
O881   O     0.24152   0.84040   0.68161   0.00000  Uiso   1.00
S882   S     0.00691   0.90860   0.79597   0.00000  Uiso   1.00
O883   O     0.05453   0.90969   0.82806   0.00000  Uiso   1.00
O884   O     0.02790   0.94851   0.75729   0.00000  Uiso   1.00
O885   O     0.28160   0.92717   0.83664   0.00000  Uiso   1.00
H886   H     0.29573   0.96494   0.84772   0.00000  Uiso   1.00
S887   S     0.32664   0.75815   0.70394   0.00000  Uiso   1.00
O888   O     0.30645   0.71797   0.74242   0.00000  Uiso   1.00
O889   O     0.27849   0.75683   0.67242   0.00000  Uiso   1.00
O890   O     0.05201   0.74044   0.66268   0.00000  Uiso   1.00
H891   H     0.03891   0.70219   0.65291   0.00000  Uiso   1.00
S892   S     0.19651   0.75481   0.55303   0.00000  Uiso   1.00
O893   O     0.25302   0.74761   0.57020   0.00000  Uiso   1.00
O894   O     0.14289   0.72420   0.58516   0.00000  Uiso   1.00
O895   O     0.19888   0.73101   0.99090   0.00000  Uiso   1.00
H896   H     0.17214   0.69571   0.99119   0.00000  Uiso   1.00
C897   C     0.51389   0.93308   0.75328   0.00000  Uiso   1.00
C898   C     0.47729   0.82580   0.98546   0.00000  Uiso   1.00
C899   C     0.48248   0.84763   0.93841   0.00000  Uiso   1.00
C900   C     0.51840   0.84904   0.51951   0.00000  Uiso   1.00
C901   C     0.55282   0.90058   0.51223   0.00000  Uiso   1.00
C902   C     0.55304   0.92418   0.96782   0.00000  Uiso   1.00
C903   C     0.51938   0.89740   0.93074   0.00000  Uiso   1.00
C904   C     0.52621   0.82332   0.56091   0.00000  Uiso   1.00
C905   C     0.58182   0.90619   0.59582   0.00000  Uiso   1.00
C906   C     0.44857   0.82009   0.90086   0.00000  Uiso   1.00
C907   C     0.51723   0.98895   0.76123   0.00000  Uiso   1.00
C908   C     0.46746   0.82954   0.84655   0.00000  Uiso   1.00
C909   C     0.48302   0.67775   0.73835   0.00000  Uiso   1.00
C910   C     0.48618   0.73359   0.74655   0.00000  Uiso   1.00
C911   C     0.53252   0.83789   0.65367   0.00000  Uiso   1.00
C912   C     0.58561   0.92825   0.55004   0.00000  Uiso   1.00
C913   C     0.55089   0.85421   0.60177   0.00000  Uiso   1.00
C914   C     0.40154   0.77750   0.91398   0.00000  Uiso   1.00
C915   C     0.39033   0.76081   0.96315   0.00000  Uiso   1.00
C916   C     0.42836   0.78411   0.99846   0.00000  Uiso   1.00
Cu917  Cu    0.44043   0.82772   0.74436   0.00000  Uiso   1.00
Cu918  Cu    0.55957   0.83895   0.75565   0.00000  Uiso   1.00
H919   H     0.60141   0.93020   0.62720   0.00000  Uiso   1.00
H920   H     0.45553   0.98856   0.71093   0.00000  Uiso   1.00
H921   H     0.57941   0.96333   0.96167   0.00000  Uiso   1.00
H922   H     0.61071   0.96815   0.54564   0.00000  Uiso   1.00
H923   H     0.37455   0.75621   0.88574   0.00000  Uiso   1.00
H924   H     0.41811   0.77036   0.53633   0.00000  Uiso   1.00
H925   H     0.35329   0.72855   0.97340   0.00000  Uiso   1.00
H926   H     0.51912   0.91725   0.89745   0.00000  Uiso   1.00
H927   H     0.54483   0.67816   0.78856   0.00000  Uiso   1.00
N928   N     0.64908   0.84741   0.76416   0.00000  Uiso   1.00
N929   N     0.35092   0.81926   0.73584   0.00000  Uiso   1.00
O930   O     0.46131   0.90474   0.74633   0.00000  Uiso   1.00
O931   O     0.56191   0.91422   0.75587   0.00000  Uiso   1.00
O932   O     0.42515   0.82627   0.81840   0.00000  Uiso   1.00
O933   O     0.52575   0.83575   0.82793   0.00000  Uiso   1.00
O934   O     0.43809   0.75245   0.74414   0.00000  Uiso   1.00
O935   O     0.53869   0.76193   0.75367   0.00000  Uiso   1.00
O936   O     0.47425   0.83092   0.67207   0.00000  Uiso   1.00
O937   O     0.57485   0.84040   0.68161   0.00000  Uiso   1.00
S938   S     0.34024   0.90860   0.79597   0.00000  Uiso   1.00
O939   O     0.38786   0.90969   0.82806   0.00000  Uiso   1.00
O940   O     0.36123   0.94851   0.75729   0.00000  Uiso   1.00
O941   O     0.61493   0.92717   0.83664   0.00000  Uiso   1.00
H942   H     0.62907   0.96494   0.84772   0.00000  Uiso   1.00
S943   S     0.65997   0.75815   0.70394   0.00000  Uiso   1.00
O944   O     0.63978   0.71797   0.74242   0.00000  Uiso   1.00
O945   O     0.61183   0.75683   0.67242   0.00000  Uiso   1.00
O946   O     0.38535   0.74044   0.66268   0.00000  Uiso   1.00
H947   H     0.37224   0.70219   0.65291   0.00000  Uiso   1.00
S948   S     0.52985   0.75481   0.55303   0.00000  Uiso   1.00
O949   O     0.58635   0.74761   0.57020   0.00000  Uiso   1.00
O950   O     0.47622   0.72420   0.58516   0.00000  Uiso   1.00
O951   O     0.53222   0.73101   0.99090   0.00000  Uiso   1.00
H952   H     0.50547   0.69571   0.99119   0.00000  Uiso   1.00
C953   C     0.84722   0.93308   0.75328   0.00000  Uiso   1.00
C954   C     0.81062   0.82580   0.98546   0.00000  Uiso   1.00
C955   C     0.81581   0.84763   0.93841   0.00000  Uiso   1.00
C956   C     0.85174   0.84904   0.51951   0.00000  Uiso   1.00
C957   C     0.88615   0.90058   0.51223   0.00000  Uiso   1.00
C958   C     0.88637   0.92418   0.96782   0.00000  Uiso   1.00
C959   C     0.85272   0.89740   0.93074   0.00000  Uiso   1.00
C960   C     0.85955   0.82332   0.56091   0.00000  Uiso   1.00
C961   C     0.91516   0.90619   0.59582   0.00000  Uiso   1.00
C962   C     0.78191   0.82009   0.90086   0.00000  Uiso   1.00
C963   C     0.85056   0.98895   0.76123   0.00000  Uiso   1.00
C964   C     0.80080   0.82954   0.84655   0.00000  Uiso   1.00
C965   C     0.81636   0.67775   0.73835   0.00000  Uiso   1.00
C966   C     0.81951   0.73359   0.74655   0.00000  Uiso   1.00
C967   C     0.86585   0.83789   0.65367   0.00000  Uiso   1.00
C968   C     0.91894   0.92825   0.55004   0.00000  Uiso   1.00
C969   C     0.88423   0.85421   0.60177   0.00000  Uiso   1.00
C970   C     0.73487   0.77750   0.91398   0.00000  Uiso   1.00
C971   C     0.72366   0.76081   0.96315   0.00000  Uiso   1.00
C972   C     0.76169   0.78411   0.99846   0.00000  Uiso   1.00
Cu973  Cu    0.77377   0.82772   0.74436   0.00000  Uiso   1.00
Cu974  Cu    0.89290   0.83895   0.75565   0.00000  Uiso   1.00
H975   H     0.93474   0.93020   0.62720   0.00000  Uiso   1.00
H976   H     0.78887   0.98856   0.71093   0.00000  Uiso   1.00
H977   H     0.91274   0.96333   0.96167   0.00000  Uiso   1.00
H978   H     0.94404   0.96815   0.54564   0.00000  Uiso   1.00
H979   H     0.70788   0.75621   0.88574   0.00000  Uiso   1.00
H980   H     0.75144   0.77036   0.53633   0.00000  Uiso   1.00
H981   H     0.68663   0.72855   0.97340   0.00000  Uiso   1.00
H982   H     0.85245   0.91725   0.89745   0.00000  Uiso   1.00
H983   H     0.87816   0.67816   0.78856   0.00000  Uiso   1.00
N984   N     0.98241   0.84741   0.76416   0.00000  Uiso   1.00
N985   N     0.68426   0.81926   0.73584   0.00000  Uiso   1.00
O986   O     0.79464   0.90474   0.74633   0.00000  Uiso   1.00
O987   O     0.89524   0.91422   0.75587   0.00000  Uiso   1.00
O988   O     0.75848   0.82627   0.81840   0.00000  Uiso   1.00
O989   O     0.85908   0.83575   0.82793   0.00000  Uiso   1.00
O990   O     0.77142   0.75245   0.74414   0.00000  Uiso   1.00
O991   O     0.87203   0.76193   0.75367   0.00000  Uiso   1.00
O992   O     0.80758   0.83092   0.67207   0.00000  Uiso   1.00
O993   O     0.90819   0.84040   0.68161   0.00000  Uiso   1.00
S994   S     0.67358   0.90860   0.79597   0.00000  Uiso   1.00
O995   O     0.72119   0.90969   0.82806   0.00000  Uiso   1.00
O996   O     0.69457   0.94851   0.75729   0.00000  Uiso   1.00
O997   O     0.94827   0.92717   0.83664   0.00000  Uiso   1.00
H998   H     0.96240   0.96494   0.84772   0.00000  Uiso   1.00
S999   S     0.99331   0.75815   0.70394   0.00000  Uiso   1.00
O1000  O     0.97311   0.71797   0.74242   0.00000  Uiso   1.00
O1001  O     0.94516   0.75683   0.67242   0.00000  Uiso   1.00
O1002  O     0.71868   0.74044   0.66268   0.00000  Uiso   1.00
H1003  H     0.70557   0.70219   0.65291   0.00000  Uiso   1.00
S1004  S     0.86318   0.75481   0.55303   0.00000  Uiso   1.00
O1005  O     0.91968   0.74761   0.57020   0.00000  Uiso   1.00
O1006  O     0.80956   0.72420   0.58516   0.00000  Uiso   1.00
O1007  O     0.86555   0.73101   0.99090   0.00000  Uiso   1.00
H1008  H     0.83881   0.69571   0.99119   0.00000  Uiso   1.00
loop_
_geom_bond_atom_site_label_1
_geom_bond_atom_site_label_2
_geom_bond_distance
_geom_bond_site_symmetry_2
_ccdc_geom_bond_type
C1     C11     1.426   .     S
C1     O34     1.305   .     A
C1     O35     1.309   .     A
C2     C3      1.413   .     A
C2     C20     1.412   .     A
C2     C508    1.417   .     S
C3     C10     1.408   .     A
C3     C7      1.405   .     A
C4     C8      1.413   .     A
C4     C5      1.421   .     A
C4     C506    1.417   1_554 S
C5     C16     1.400   .     A
C5     C510    1.396   1_554 S
C6     C7      1.390   .     A
C6     H25     1.084   .     S
C6     C509    1.396   .     S
C7     H30     1.081   .     S
C8     S52     1.781   .     S
C8     C17     1.399   .     A
C9     C17     1.401   .     A
C9     C16     1.391   .     A
C9     H23     1.084   .     S
C10    C18     1.403   .     A
C10    C12     1.466   .     S
C11    C181    1.328   .     S
C11    H199    1.085   .     S
C12    O36     1.312   .     A
C12    O37     1.320   .     A
C13    C14     1.426   .     S
C13    C347    1.328   1_545 S
C13    H360    1.085   1_545 S
C14    O38     1.309   .     A
C14    O39     1.305   .     A
C15    O41     1.312   .     A
C15    O40     1.317   .     A
C15    C17     1.457   .     S
C16    H26     1.084   .     S
C18    C19     1.392   .     A
C18    H27     1.084   .     S
C19    C20     1.394   .     A
C19    H29     1.083   .     S
C20    H532    1.080   .     S
Cu21   O36     1.939   .     S
Cu21   Cu22    2.751   .     S
Cu21   O40     1.942   .     S
Cu21   O38     1.942   .     S
Cu21   N33     2.067   .     S
Cu21   O34     1.952   .     S
Cu22   O35     1.942   .     S
Cu22   N32     2.067   .     S
Cu22   O39     1.952   .     S
Cu22   O41     1.939   .     S
Cu22   O37     1.942   .     S
H24    C181    1.085   .     S
H28    C524    1.080   1_554 S
H31    C347    1.085   1_545 S
N32    N89     1.277   .     S
N32    S98     1.736   .     S
N33    N144    1.277   1_455 S
N33    S159    1.734   1_455 S
S42    O44     1.498   .     D
S42    O43     1.497   .     D
S42    N144    1.736   1_455 S
S42    O157    1.676   1_455 S
O45    H46     0.991   .     S
O45    S98     1.676   .     S
S47    O49     1.495   .     D
S47    O48     1.498   .     D
S47    N89     1.734   .     S
S47    O106    1.676   .     S
O50    H51     0.991   .     S
O50    S159    1.676   1_455 S
S52    O54     1.500   .     D
S52    O53     1.502   .     D
S52    O559    1.684   1_554 S
O55    H56     0.990   .     S
O55    S556    1.684   .     S
C57    C67     1.426   .     S
C57    O90     1.305   .     A
C57    O91     1.309   .     A
C58    C59     1.413   .     A
C58    C76     1.412   .     A
C58    C564    1.417   .     S
C59    C66     1.408   .     A
C59    C63     1.405   .     A
C60    C64     1.413   .     A
C60    C61     1.421   .     A
C60    C562    1.417   1_554 S
C61    C72     1.400   .     A
C61    C566    1.396   1_554 S
C62    C63     1.390   .     A
C62    H81     1.084   .     S
C62    C565    1.396   .     S
C63    H86     1.081   .     S
C64    S108    1.781   .     S
C64    C73     1.399   .     A
C65    C73     1.401   .     A
C65    C72     1.391   .     A
C65    H79     1.084   .     S
C66    C74     1.403   .     A
C66    C68     1.466   .     S
C67    C237    1.328   .     S
C67    H255    1.085   .     S
C68    O92     1.312   .     A
C68    O93     1.320   .     A
C69    C70     1.426   .     S
C69    C403    1.328   1_545 S
C69    H416    1.085   1_545 S
C70    O94     1.309   .     A
C70    O95     1.305   .     A
C71    O97     1.312   .     A
C71    O96     1.317   .     A
C71    C73     1.457   .     S
C72    H82     1.084   .     S
C74    C75     1.392   .     A
C74    H83     1.084   .     S
C75    C76     1.394   .     A
C75    H85     1.083   .     S
C76    H588    1.080   .     S
Cu77   O92     1.939   .     S
Cu77   Cu78    2.751   .     S
Cu77   O96     1.942   .     S
Cu77   O94     1.942   .     S
Cu77   N89     2.067   .     S
Cu77   O90     1.952   .     S
Cu78   O91     1.942   .     S
Cu78   N88     2.067   .     S
Cu78   O95     1.952   .     S
Cu78   O97     1.939   .     S
Cu78   O93     1.942   .     S
H80    C237    1.085   .     S
H84    C580    1.080   1_554 S
H87    C403    1.085   1_545 S
N88    N145    1.277   .     S
N88    S154    1.736   .     S
S98    O100    1.498   .     D
S98    O99     1.497   .     D
O101   H102    0.991   .     S
O101   S154    1.676   .     S
S103   O105    1.495   .     D
S103   O104    1.498   .     D
S103   N145    1.734   .     S
S103   O162    1.676   .     S
O106   H107    0.991   .     S
S108   O110    1.500   .     D
S108   O109    1.502   .     D
S108   O615    1.684   1_554 S
O111   H112    0.990   .     S
O111   S612    1.684   .     S
C113   C123    1.426   .     S
C113   O146    1.305   .     A
C113   O147    1.309   .     A
C114   C115    1.413   .     A
C114   C132    1.412   .     A
C114   C620    1.417   .     S
C115   C122    1.408   .     A
C115   C119    1.405   .     A
C116   C120    1.413   .     A
C116   C117    1.421   .     A
C116   C618    1.417   1_554 S
C117   C128    1.400   .     A
C117   C622    1.396   1_554 S
C118   C119    1.390   .     A
C118   H137    1.084   .     S
C118   C621    1.396   .     S
C119   H142    1.081   .     S
C120   S164    1.781   .     S
C120   C129    1.399   .     A
C121   C129    1.401   .     A
C121   C128    1.391   .     A
C121   H135    1.084   .     S
C122   C130    1.403   .     A
C122   C124    1.466   .     S
C123   C293    1.328   .     S
C123   H311    1.085   .     S
C124   O148    1.312   .     A
C124   O149    1.320   .     A
C125   C126    1.426   .     S
C125   C459    1.328   1_545 S
C125   H472    1.085   1_545 S
C126   O150    1.309   .     A
C126   O151    1.305   .     A
C127   O153    1.312   .     A
C127   O152    1.317   .     A
C127   C129    1.457   .     S
C128   H138    1.084   .     S
C130   C131    1.392   .     A
C130   H139    1.084   .     S
C131   C132    1.394   .     A
C131   H141    1.083   .     S
C132   H644    1.080   .     S
Cu133  O148    1.939   .     S
Cu133  Cu134   2.751   .     S
Cu133  O152    1.942   .     S
Cu133  O150    1.942   .     S
Cu133  N145    2.067   .     S
Cu133  O146    1.952   .     S
Cu134  O147    1.942   .     S
Cu134  N144    2.067   .     S
Cu134  O151    1.952   .     S
Cu134  O153    1.939   .     S
Cu134  O149    1.942   .     S
H136   C293    1.085   .     S
H140   C636    1.080   1_554 S
H143   C459    1.085   1_545 S
N144   N33     1.277   1_655 S
N144   S42     1.736   1_655 S
S154   O156    1.498   .     D
S154   O155    1.497   .     D
O157   H158    0.991   .     S
O157   S42     1.676   1_655 S
S159   O161    1.495   .     D
S159   O160    1.498   .     D
S159   N33     1.734   1_655 S
S159   O50     1.676   1_655 S
O162   H163    0.991   .     S
S164   O166    1.500   .     D
S164   O165    1.502   .     D
S164   O671    1.684   1_554 S
O167   H168    0.990   .     S
O167   S668    1.684   .     S
C169   C179    1.426   .     S
C169   O202    1.305   .     A
C169   O203    1.309   .     A
C170   C171    1.413   .     A
C170   C188    1.412   .     A
C170   C676    1.417   .     S
C171   C178    1.408   .     A
C171   C175    1.405   .     A
C172   C176    1.413   .     A
C172   C173    1.421   .     A
C172   C674    1.417   1_554 S
C173   C184    1.400   .     A
C173   C678    1.396   1_554 S
C174   C175    1.390   .     A
C174   H193    1.084   .     S
C174   C677    1.396   .     S
C175   H198    1.081   .     S
C176   S220    1.781   .     S
C176   C185    1.399   .     A
C177   C185    1.401   .     A
C177   C184    1.391   .     A
C177   H191    1.084   .     S
C178   C186    1.403   .     A
C178   C180    1.466   .     S
C179   C349    1.328   .     S
C179   H367    1.085   .     S
C180   O204    1.312   .     A
C180   O205    1.320   .     A
C181   C182    1.426   .     S
C182   O206    1.309   .     A
C182   O207    1.305   .     A
C183   O209    1.312   .     A
C183   O208    1.317   .     A
C183   C185    1.457   .     S
C184   H194    1.084   .     S
C186   C187    1.392   .     A
C186   H195    1.084   .     S
C187   C188    1.394   .     A
C187   H197    1.083   .     S
C188   H700    1.080   .     S
Cu189  O204    1.939   .     S
Cu189  Cu190   2.751   .     S
Cu189  O208    1.942   .     S
Cu189  O206    1.942   .     S
Cu189  N201    2.067   .     S
Cu189  O202    1.952   .     S
Cu190  O203    1.942   .     S
Cu190  N200    2.067   .     S
Cu190  O207    1.952   .     S
Cu190  O209    1.939   .     S
Cu190  O205    1.942   .     S
H192   C349    1.085   .     S
H196   C692    1.080   1_554 S
N200   N257    1.277   .     S
N200   S266    1.736   .     S
N201   N312    1.277   1_455 S
N201   S327    1.734   1_455 S
S210   O212    1.498   .     D
S210   O211    1.497   .     D
S210   N312    1.736   1_455 S
S210   O325    1.676   1_455 S
O213   H214    0.991   .     S
O213   S266    1.676   .     S
S215   O217    1.495   .     D
S215   O216    1.498   .     D
S215   N257    1.734   .     S
S215   O274    1.676   .     S
O218   H219    0.991   .     S
O218   S327    1.676   1_455 S
S220   O222    1.500   .     D
S220   O221    1.502   .     D
S220   O727    1.684   1_554 S
O223   H224    0.990   .     S
O223   S724    1.684   .     S
C225   C235    1.426   .     S
C225   O258    1.305   .     A
C225   O259    1.309   .     A
C226   C227    1.413   .     A
C226   C244    1.412   .     A
C226   C732    1.417   .     S
C227   C234    1.408   .     A
C227   C231    1.405   .     A
C228   C232    1.413   .     A
C228   C229    1.421   .     A
C228   C730    1.417   1_554 S
C229   C240    1.400   .     A
C229   C734    1.396   1_554 S
C230   C231    1.390   .     A
C230   H249    1.084   .     S
C230   C733    1.396   .     S
C231   H254    1.081   .     S
C232   S276    1.781   .     S
C232   C241    1.399   .     A
C233   C241    1.401   .     A
C233   C240    1.391   .     A
C233   H247    1.084   .     S
C234   C242    1.403   .     A
C234   C236    1.466   .     S
C235   C405    1.328   .     S
C235   H423    1.085   .     S
C236   O260    1.312   .     A
C236   O261    1.320   .     A
C237   C238    1.426   .     S
C238   O262    1.309   .     A
C238   O263    1.305   .     A
C239   O265    1.312   .     A
C239   O264    1.317   .     A
C239   C241    1.457   .     S
C240   H250    1.084   .     S
C242   C243    1.392   .     A
C242   H251    1.084   .     S
C243   C244    1.394   .     A
C243   H253    1.083   .     S
C244   H756    1.080   .     S
Cu245  O260    1.939   .     S
Cu245  Cu246   2.751   .     S
Cu245  O264    1.942   .     S
Cu245  O262    1.942   .     S
Cu245  N257    2.067   .     S
Cu245  O258    1.952   .     S
Cu246  O259    1.942   .     S
Cu246  N256    2.067   .     S
Cu246  O263    1.952   .     S
Cu246  O265    1.939   .     S
Cu246  O261    1.942   .     S
H248   C405    1.085   .     S
H252   C748    1.080   1_554 S
N256   N313    1.277   .     S
N256   S322    1.736   .     S
S266   O268    1.498   .     D
S266   O267    1.497   .     D
O269   H270    0.991   .     S
O269   S322    1.676   .     S
S271   O273    1.495   .     D
S271   O272    1.498   .     D
S271   N313    1.734   .     S
S271   O330    1.676   .     S
O274   H275    0.991   .     S
S276   O278    1.500   .     D
S276   O277    1.502   .     D
S276   O783    1.684   1_554 S
O279   H280    0.990   .     S
O279   S780    1.684   .     S
C281   C291    1.426   .     S
C281   O314    1.305   .     A
C281   O315    1.309   .     A
C282   C283    1.413   .     A
C282   C300    1.412   .     A
C282   C788    1.417   .     S
C283   C290    1.408   .     A
C283   C287    1.405   .     A
C284   C288    1.413   .     A
C284   C285    1.421   .     A
C284   C786    1.417   1_554 S
C285   C296    1.400   .     A
C285   C790    1.396   1_554 S
C286   C287    1.390   .     A
C286   H305    1.084   .     S
C286   C789    1.396   .     S
C287   H310    1.081   .     S
C288   S332    1.781   .     S
C288   C297    1.399   .     A
C289   C297    1.401   .     A
C289   C296    1.391   .     A
C289   H303    1.084   .     S
C290   C298    1.403   .     A
C290   C292    1.466   .     S
C291   C461    1.328   .     S
C291   H479    1.085   .     S
C292   O316    1.312   .     A
C292   O317    1.320   .     A
C293   C294    1.426   .     S
C294   O318    1.309   .     A
C294   O319    1.305   .     A
C295   O321    1.312   .     A
C295   O320    1.317   .     A
C295   C297    1.457   .     S
C296   H306    1.084   .     S
C298   C299    1.392   .     A
C298   H307    1.084   .     S
C299   C300    1.394   .     A
C299   H309    1.083   .     S
C300   H812    1.080   .     S
Cu301  O316    1.939   .     S
Cu301  Cu302   2.751   .     S
Cu301  O320    1.942   .     S
Cu301  O318    1.942   .     S
Cu301  N313    2.067   .     S
Cu301  O314    1.952   .     S
Cu302  O315    1.942   .     S
Cu302  N312    2.067   .     S
Cu302  O319    1.952   .     S
Cu302  O321    1.939   .     S
Cu302  O317    1.942   .     S
H304   C461    1.085   .     S
H308   C804    1.080   1_554 S
N312   N201    1.277   1_655 S
N312   S210    1.736   1_655 S
S322   O324    1.498   .     D
S322   O323    1.497   .     D
O325   H326    0.991   .     S
O325   S210    1.676   1_655 S
S327   O329    1.495   .     D
S327   O328    1.498   .     D
S327   N201    1.734   1_655 S
S327   O218    1.676   1_655 S
O330   H331    0.991   .     S
S332   O334    1.500   .     D
S332   O333    1.502   .     D
S332   O839    1.684   1_554 S
O335   H336    0.990   .     S
O335   S836    1.684   .     S
C337   C347    1.426   .     S
C337   O370    1.305   .     A
C337   O371    1.309   .     A
C338   C339    1.413   .     A
C338   C356    1.412   .     A
C338   C844    1.417   .     S
C339   C346    1.408   .     A
C339   C343    1.405   .     A
C340   C344    1.413   .     A
C340   C341    1.421   .     A
C340   C842    1.417   1_554 S
C341   C352    1.400   .     A
C341   C846    1.396   1_554 S
C342   C343    1.390   .     A
C342   H361    1.084   .     S
C342   C845    1.396   .     S
C343   H366    1.081   .     S
C344   S388    1.781   .     S
C344   C353    1.399   .     A
C345   C353    1.401   .     A
C345   C352    1.391   .     A
C345   H359    1.084   .     S
C346   C354    1.403   .     A
C346   C348    1.466   .     S
C347   C13     1.328   1_565 S
C347   H31     1.085   1_565 S
C348   O372    1.312   .     A
C348   O373    1.320   .     A
C349   C350    1.426   .     S
C350   O374    1.309   .     A
C350   O375    1.305   .     A
C351   O377    1.312   .     A
C351   O376    1.317   .     A
C351   C353    1.457   .     S
C352   H362    1.084   .     S
C354   C355    1.392   .     A
C354   H363    1.084   .     S
C355   C356    1.394   .     A
C355   H365    1.083   .     S
C356   H868    1.080   .     S
Cu357  O372    1.939   .     S
Cu357  Cu358   2.751   .     S
Cu357  O376    1.942   .     S
Cu357  O374    1.942   .     S
Cu357  N369    2.067   .     S
Cu357  O370    1.952   .     S
Cu358  O371    1.942   .     S
Cu358  N368    2.067   .     S
Cu358  O375    1.952   .     S
Cu358  O377    1.939   .     S
Cu358  O373    1.942   .     S
H360   C13     1.085   1_565 S
H364   C860    1.080   1_554 S
N368   N425    1.277   .     S
N368   S434    1.736   .     S
N369   N480    1.277   1_455 S
N369   S495    1.734   1_455 S
S378   O380    1.498   .     D
S378   O379    1.497   .     D
S378   N480    1.736   1_455 S
S378   O493    1.676   1_455 S
O381   H382    0.991   .     S
O381   S434    1.676   .     S
S383   O385    1.495   .     D
S383   O384    1.498   .     D
S383   N425    1.734   .     S
S383   O442    1.676   .     S
O386   H387    0.991   .     S
O386   S495    1.676   1_455 S
S388   O390    1.500   .     D
S388   O389    1.502   .     D
S388   O895    1.684   1_554 S
O391   H392    0.990   .     S
O391   S892    1.684   .     S
C393   C403    1.426   .     S
C393   O426    1.305   .     A
C393   O427    1.309   .     A
C394   C395    1.413   .     A
C394   C412    1.412   .     A
C394   C900    1.417   .     S
C395   C402    1.408   .     A
C395   C399    1.405   .     A
C396   C400    1.413   .     A
C396   C397    1.421   .     A
C396   C898    1.417   1_554 S
C397   C408    1.400   .     A
C397   C902    1.396   1_554 S
C398   C399    1.390   .     A
C398   H417    1.084   .     S
C398   C901    1.396   .     S
C399   H422    1.081   .     S
C400   S444    1.781   .     S
C400   C409    1.399   .     A
C401   C409    1.401   .     A
C401   C408    1.391   .     A
C401   H415    1.084   .     S
C402   C410    1.403   .     A
C402   C404    1.466   .     S
C403   C69     1.328   1_565 S
C403   H87     1.085   1_565 S
C404   O428    1.312   .     A
C404   O429    1.320   .     A
C405   C406    1.426   .     S
C406   O430    1.309   .     A
C406   O431    1.305   .     A
C407   O433    1.312   .     A
C407   O432    1.317   .     A
C407   C409    1.457   .     S
C408   H418    1.084   .     S
C410   C411    1.392   .     A
C410   H419    1.084   .     S
C411   C412    1.394   .     A
C411   H421    1.083   .     S
C412   H924    1.080   .     S
Cu413  O428    1.939   .     S
Cu413  Cu414   2.751   .     S
Cu413  O432    1.942   .     S
Cu413  O430    1.942   .     S
Cu413  N425    2.067   .     S
Cu413  O426    1.952   .     S
Cu414  O427    1.942   .     S
Cu414  N424    2.067   .     S
Cu414  O431    1.952   .     S
Cu414  O433    1.939   .     S
Cu414  O429    1.942   .     S
H416   C69     1.085   1_565 S
H420   C916    1.080   1_554 S
N424   N481    1.277   .     S
N424   S490    1.736   .     S
S434   O436    1.498   .     D
S434   O435    1.497   .     D
O437   H438    0.991   .     S
O437   S490    1.676   .     S
S439   O441    1.495   .     D
S439   O440    1.498   .     D
S439   N481    1.734   .     S
S439   O498    1.676   .     S
O442   H443    0.991   .     S
S444   O446    1.500   .     D
S444   O445    1.502   .     D
S444   O951    1.684   1_554 S
O447   H448    0.990   .     S
O447   S948    1.684   .     S
C449   C459    1.426   .     S
C449   O482    1.305   .     A
C449   O483    1.309   .     A
C450   C451    1.413   .     A
C450   C468    1.412   .     A
C450   C956    1.417   .     S
C451   C458    1.408   .     A
C451   C455    1.405   .     A
C452   C456    1.413   .     A
C452   C453    1.421   .     A
C452   C954    1.417   1_554 S
C453   C464    1.400   .     A
C453   C958    1.396   1_554 S
C454   C455    1.390   .     A
C454   H473    1.084   .     S
C454   C957    1.396   .     S
C455   H478    1.081   .     S
C456   S500    1.781   .     S
C456   C465    1.399   .     A
C457   C465    1.401   .     A
C457   C464    1.391   .     A
C457   H471    1.084   .     S
C458   C466    1.403   .     A
C458   C460    1.466   .     S
C459   C125    1.328   1_565 S
C459   H143    1.085   1_565 S
C460   O484    1.312   .     A
C460   O485    1.320   .     A
C461   C462    1.426   .     S
C462   O486    1.309   .     A
C462   O487    1.305   .     A
C463   O489    1.312   .     A
C463   O488    1.317   .     A
C463   C465    1.457   .     S
C464   H474    1.084   .     S
C466   C467    1.392   .     A
C466   H475    1.084   .     S
C467   C468    1.394   .     A
C467   H477    1.083   .     S
C468   H980    1.080   .     S
Cu469  O484    1.939   .     S
Cu469  Cu470   2.751   .     S
Cu469  O488    1.942   .     S
Cu469  O486    1.942   .     S
Cu469  N481    2.067   .     S
Cu469  O482    1.952   .     S
Cu470  O483    1.942   .     S
Cu470  N480    2.067   .     S
Cu470  O487    1.952   .     S
Cu470  O489    1.939   .     S
Cu470  O485    1.942   .     S
H472   C125    1.085   1_565 S
H476   C972    1.080   1_554 S
N480   N369    1.277   1_655 S
N480   S378    1.736   1_655 S
S490   O492    1.498   .     D
S490   O491    1.497   .     D
O493   H494    0.991   .     S
O493   S378    1.676   1_655 S
S495   O497    1.495   .     D
S495   O496    1.498   .     D
S495   N369    1.734   1_655 S
S495   O386    1.676   1_655 S
O498   H499    0.991   .     S
S500   O502    1.500   .     D
S500   O501    1.502   .     D
S500   O1007   1.684   1_554 S
O503   H504    0.990   .     S
O503   S1004   1.684   .     S
C505   C515    1.426   .     S
C505   O538    1.305   .     A
C505   O539    1.309   .     A
C506   C507    1.413   .     A
C506   C524    1.412   .     A
C506   C4      1.417   1_556 S
C507   C514    1.408   .     A
C507   C511    1.405   .     A
C508   C512    1.413   .     A
C508   C509    1.421   .     A
C509   C520    1.400   .     A
C510   C511    1.390   .     A
C510   H529    1.084   .     S
C510   C5      1.396   1_556 S
C511   H534    1.081   .     S
C512   S556    1.781   .     S
C512   C521    1.399   .     A
C513   C521    1.401   .     A
C513   C520    1.391   .     A
C513   H527    1.084   .     S
C514   C522    1.403   .     A
C514   C516    1.466   .     S
C515   C685    1.328   .     S
C515   H703    1.085   .     S
C516   O540    1.312   .     A
C516   O541    1.320   .     A
C517   C518    1.426   .     S
C517   C851    1.328   1_545 S
C517   H864    1.085   1_545 S
C518   O542    1.309   .     A
C518   O543    1.305   .     A
C519   O545    1.312   .     A
C519   O544    1.317   .     A
C519   C521    1.457   .     S
C520   H530    1.084   .     S
C522   C523    1.392   .     A
C522   H531    1.084   .     S
C523   C524    1.394   .     A
C523   H533    1.083   .     S
C524   H28     1.080   1_556 S
Cu525  O540    1.939   .     S
Cu525  Cu526   2.751   .     S
Cu525  O544    1.942   .     S
Cu525  O542    1.942   .     S
Cu525  N537    2.067   .     S
Cu525  O538    1.952   .     S
Cu526  O539    1.942   .     S
Cu526  N536    2.067   .     S
Cu526  O543    1.952   .     S
Cu526  O545    1.939   .     S
Cu526  O541    1.942   .     S
H528   C685    1.085   .     S
H535   C851    1.085   1_545 S
N536   N593    1.277   .     S
N536   S602    1.736   .     S
N537   N648    1.277   1_455 S
N537   S663    1.734   1_455 S
S546   O548    1.498   .     D
S546   O547    1.497   .     D
S546   N648    1.736   1_455 S
S546   O661    1.676   1_455 S
O549   H550    0.991   .     S
O549   S602    1.676   .     S
S551   O553    1.495   .     D
S551   O552    1.498   .     D
S551   N593    1.734   .     S
S551   O610    1.676   .     S
O554   H555    0.991   .     S
O554   S663    1.676   1_455 S
S556   O558    1.500   .     D
S556   O557    1.502   .     D
O559   H560    0.990   .     S
O559   S52     1.684   1_556 S
C561   C571    1.426   .     S
C561   O594    1.305   .     A
C561   O595    1.309   .     A
C562   C563    1.413   .     A
C562   C580    1.412   .     A
C562   C60     1.417   1_556 S
C563   C570    1.408   .     A
C563   C567    1.405   .     A
C564   C568    1.413   .     A
C564   C565    1.421   .     A
C565   C576    1.400   .     A
C566   C567    1.390   .     A
C566   H585    1.084   .     S
C566   C61     1.396   1_556 S
C567   H590    1.081   .     S
C568   S612    1.781   .     S
C568   C577    1.399   .     A
C569   C577    1.401   .     A
C569   C576    1.391   .     A
C569   H583    1.084   .     S
C570   C578    1.403   .     A
C570   C572    1.466   .     S
C571   C741    1.328   .     S
C571   H759    1.085   .     S
C572   O596    1.312   .     A
C572   O597    1.320   .     A
C573   C574    1.426   .     S
C573   C907    1.328   1_545 S
C573   H920    1.085   1_545 S
C574   O598    1.309   .     A
C574   O599    1.305   .     A
C575   O601    1.312   .     A
C575   O600    1.317   .     A
C575   C577    1.457   .     S
C576   H586    1.084   .     S
C578   C579    1.392   .     A
C578   H587    1.084   .     S
C579   C580    1.394   .     A
C579   H589    1.083   .     S
C580   H84     1.080   1_556 S
Cu581  O596    1.939   .     S
Cu581  Cu582   2.751   .     S
Cu581  O600    1.942   .     S
Cu581  O598    1.942   .     S
Cu581  N593    2.067   .     S
Cu581  O594    1.952   .     S
Cu582  O595    1.942   .     S
Cu582  N592    2.067   .     S
Cu582  O599    1.952   .     S
Cu582  O601    1.939   .     S
Cu582  O597    1.942   .     S
H584   C741    1.085   .     S
H591   C907    1.085   1_545 S
N592   N649    1.277   .     S
N592   S658    1.736   .     S
S602   O604    1.498   .     D
S602   O603    1.497   .     D
O605   H606    0.991   .     S
O605   S658    1.676   .     S
S607   O609    1.495   .     D
S607   O608    1.498   .     D
S607   N649    1.734   .     S
S607   O666    1.676   .     S
O610   H611    0.991   .     S
S612   O614    1.500   .     D
S612   O613    1.502   .     D
O615   H616    0.990   .     S
O615   S108    1.684   1_556 S
C617   C627    1.426   .     S
C617   O650    1.305   .     A
C617   O651    1.309   .     A
C618   C619    1.413   .     A
C618   C636    1.412   .     A
C618   C116    1.417   1_556 S
C619   C626    1.408   .     A
C619   C623    1.405   .     A
C620   C624    1.413   .     A
C620   C621    1.421   .     A
C621   C632    1.400   .     A
C622   C623    1.390   .     A
C622   H641    1.084   .     S
C622   C117    1.396   1_556 S
C623   H646    1.081   .     S
C624   S668    1.781   .     S
C624   C633    1.399   .     A
C625   C633    1.401   .     A
C625   C632    1.391   .     A
C625   H639    1.084   .     S
C626   C634    1.403   .     A
C626   C628    1.466   .     S
C627   C797    1.328   .     S
C627   H815    1.085   .     S
C628   O652    1.312   .     A
C628   O653    1.320   .     A
C629   C630    1.426   .     S
C629   C963    1.328   1_545 S
C629   H976    1.085   1_545 S
C630   O654    1.309   .     A
C630   O655    1.305   .     A
C631   O657    1.312   .     A
C631   O656    1.317   .     A
C631   C633    1.457   .     S
C632   H642    1.084   .     S
C634   C635    1.392   .     A
C634   H643    1.084   .     S
C635   C636    1.394   .     A
C635   H645    1.083   .     S
C636   H140    1.080   1_556 S
Cu637  O652    1.939   .     S
Cu637  Cu638   2.751   .     S
Cu637  O656    1.942   .     S
Cu637  O654    1.942   .     S
Cu637  N649    2.067   .     S
Cu637  O650    1.952   .     S
Cu638  O651    1.942   .     S
Cu638  N648    2.067   .     S
Cu638  O655    1.952   .     S
Cu638  O657    1.939   .     S
Cu638  O653    1.942   .     S
H640   C797    1.085   .     S
H647   C963    1.085   1_545 S
N648   N537    1.277   1_655 S
N648   S546    1.736   1_655 S
S658   O660    1.498   .     D
S658   O659    1.497   .     D
O661   H662    0.991   .     S
O661   S546    1.676   1_655 S
S663   O665    1.495   .     D
S663   O664    1.498   .     D
S663   N537    1.734   1_655 S
S663   O554    1.676   1_655 S
O666   H667    0.991   .     S
S668   O670    1.500   .     D
S668   O669    1.502   .     D
O671   H672    0.990   .     S
O671   S164    1.684   1_556 S
C673   C683    1.426   .     S
C673   O706    1.305   .     A
C673   O707    1.309   .     A
C674   C675    1.413   .     A
C674   C692    1.412   .     A
C674   C172    1.417   1_556 S
C675   C682    1.408   .     A
C675   C679    1.405   .     A
C676   C680    1.413   .     A
C676   C677    1.421   .     A
C677   C688    1.400   .     A
C678   C679    1.390   .     A
C678   H697    1.084   .     S
C678   C173    1.396   1_556 S
C679   H702    1.081   .     S
C680   S724    1.781   .     S
C680   C689    1.399   .     A
C681   C689    1.401   .     A
C681   C688    1.391   .     A
C681   H695    1.084   .     S
C682   C690    1.403   .     A
C682   C684    1.466   .     S
C683   C853    1.328   .     S
C683   H871    1.085   .     S
C684   O708    1.312   .     A
C684   O709    1.320   .     A
C685   C686    1.426   .     S
C686   O710    1.309   .     A
C686   O711    1.305   .     A
C687   O713    1.312   .     A
C687   O712    1.317   .     A
C687   C689    1.457   .     S
C688   H698    1.084   .     S
C690   C691    1.392   .     A
C690   H699    1.084   .     S
C691   C692    1.394   .     A
C691   H701    1.083   .     S
C692   H196    1.080   1_556 S
Cu693  O708    1.939   .     S
Cu693  Cu694   2.751   .     S
Cu693  O712    1.942   .     S
Cu693  O710    1.942   .     S
Cu693  N705    2.067   .     S
Cu693  O706    1.952   .     S
Cu694  O707    1.942   .     S
Cu694  N704    2.067   .     S
Cu694  O711    1.952   .     S
Cu694  O713    1.939   .     S
Cu694  O709    1.942   .     S
H696   C853    1.085   .     S
N704   N761    1.277   .     S
N704   S770    1.736   .     S
N705   N816    1.277   1_455 S
N705   S831    1.734   1_455 S
S714   O716    1.498   .     D
S714   O715    1.497   .     D
S714   N816    1.736   1_455 S
S714   O829    1.676   1_455 S
O717   H718    0.991   .     S
O717   S770    1.676   .     S
S719   O721    1.495   .     D
S719   O720    1.498   .     D
S719   N761    1.734   .     S
S719   O778    1.676   .     S
O722   H723    0.991   .     S
O722   S831    1.676   1_455 S
S724   O726    1.500   .     D
S724   O725    1.502   .     D
O727   H728    0.990   .     S
O727   S220    1.684   1_556 S
C729   C739    1.426   .     S
C729   O762    1.305   .     A
C729   O763    1.309   .     A
C730   C731    1.413   .     A
C730   C748    1.412   .     A
C730   C228    1.417   1_556 S
C731   C738    1.408   .     A
C731   C735    1.405   .     A
C732   C736    1.413   .     A
C732   C733    1.421   .     A
C733   C744    1.400   .     A
C734   C735    1.390   .     A
C734   H753    1.084   .     S
C734   C229    1.396   1_556 S
C735   H758    1.081   .     S
C736   S780    1.781   .     S
C736   C745    1.399   .     A
C737   C745    1.401   .     A
C737   C744    1.391   .     A
C737   H751    1.084   .     S
C738   C746    1.403   .     A
C738   C740    1.466   .     S
C739   C909    1.328   .     S
C739   H927    1.085   .     S
C740   O764    1.312   .     A
C740   O765    1.320   .     A
C741   C742    1.426   .     S
C742   O766    1.309   .     A
C742   O767    1.305   .     A
C743   O769    1.312   .     A
C743   O768    1.317   .     A
C743   C745    1.457   .     S
C744   H754    1.084   .     S
C746   C747    1.392   .     A
C746   H755    1.084   .     S
C747   C748    1.394   .     A
C747   H757    1.083   .     S
C748   H252    1.080   1_556 S
Cu749  O764    1.939   .     S
Cu749  Cu750   2.751   .     S
Cu749  O768    1.942   .     S
Cu749  O766    1.942   .     S
Cu749  N761    2.067   .     S
Cu749  O762    1.952   .     S
Cu750  O763    1.942   .     S
Cu750  N760    2.067   .     S
Cu750  O767    1.952   .     S
Cu750  O769    1.939   .     S
Cu750  O765    1.942   .     S
H752   C909    1.085   .     S
N760   N817    1.277   .     S
N760   S826    1.736   .     S
S770   O772    1.498   .     D
S770   O771    1.497   .     D
O773   H774    0.991   .     S
O773   S826    1.676   .     S
S775   O777    1.495   .     D
S775   O776    1.498   .     D
S775   N817    1.734   .     S
S775   O834    1.676   .     S
O778   H779    0.991   .     S
S780   O782    1.500   .     D
S780   O781    1.502   .     D
O783   H784    0.990   .     S
O783   S276    1.684   1_556 S
C785   C795    1.426   .     S
C785   O818    1.305   .     A
C785   O819    1.309   .     A
C786   C787    1.413   .     A
C786   C804    1.412   .     A
C786   C284    1.417   1_556 S
C787   C794    1.408   .     A
C787   C791    1.405   .     A
C788   C792    1.413   .     A
C788   C789    1.421   .     A
C789   C800    1.400   .     A
C790   C791    1.390   .     A
C790   H809    1.084   .     S
C790   C285    1.396   1_556 S
C791   H814    1.081   .     S
C792   S836    1.781   .     S
C792   C801    1.399   .     A
C793   C801    1.401   .     A
C793   C800    1.391   .     A
C793   H807    1.084   .     S
C794   C802    1.403   .     A
C794   C796    1.466   .     S
C795   C965    1.328   .     S
C795   H983    1.085   .     S
C796   O820    1.312   .     A
C796   O821    1.320   .     A
C797   C798    1.426   .     S
C798   O822    1.309   .     A
C798   O823    1.305   .     A
C799   O825    1.312   .     A
C799   O824    1.317   .     A
C799   C801    1.457   .     S
C800   H810    1.084   .     S
C802   C803    1.392   .     A
C802   H811    1.084   .     S
C803   C804    1.394   .     A
C803   H813    1.083   .     S
C804   H308    1.080   1_556 S
Cu805  O820    1.939   .     S
Cu805  Cu806   2.751   .     S
Cu805  O824    1.942   .     S
Cu805  O822    1.942   .     S
Cu805  N817    2.067   .     S
Cu805  O818    1.952   .     S
Cu806  O819    1.942   .     S
Cu806  N816    2.067   .     S
Cu806  O823    1.952   .     S
Cu806  O825    1.939   .     S
Cu806  O821    1.942   .     S
H808   C965    1.085   .     S
N816   N705    1.277   1_655 S
N816   S714    1.736   1_655 S
S826   O828    1.498   .     D
S826   O827    1.497   .     D
O829   H830    0.991   .     S
O829   S714    1.676   1_655 S
S831   O833    1.495   .     D
S831   O832    1.498   .     D
S831   N705    1.734   1_655 S
S831   O722    1.676   1_655 S
O834   H835    0.991   .     S
S836   O838    1.500   .     D
S836   O837    1.502   .     D
O839   H840    0.990   .     S
O839   S332    1.684   1_556 S
C841   C851    1.426   .     S
C841   O874    1.305   .     A
C841   O875    1.309   .     A
C842   C843    1.413   .     A
C842   C860    1.412   .     A
C842   C340    1.417   1_556 S
C843   C850    1.408   .     A
C843   C847    1.405   .     A
C844   C848    1.413   .     A
C844   C845    1.421   .     A
C845   C856    1.400   .     A
C846   C847    1.390   .     A
C846   H865    1.084   .     S
C846   C341    1.396   1_556 S
C847   H870    1.081   .     S
C848   S892    1.781   .     S
C848   C857    1.399   .     A
C849   C857    1.401   .     A
C849   C856    1.391   .     A
C849   H863    1.084   .     S
C850   C858    1.403   .     A
C850   C852    1.466   .     S
C851   C517    1.328   1_565 S
C851   H535    1.085   1_565 S
C852   O876    1.312   .     A
C852   O877    1.320   .     A
C853   C854    1.426   .     S
C854   O878    1.309   .     A
C854   O879    1.305   .     A
C855   O881    1.312   .     A
C855   O880    1.317   .     A
C855   C857    1.457   .     S
C856   H866    1.084   .     S
C858   C859    1.392   .     A
C858   H867    1.084   .     S
C859   C860    1.394   .     A
C859   H869    1.083   .     S
C860   H364    1.080   1_556 S
Cu861  O876    1.939   .     S
Cu861  Cu862   2.751   .     S
Cu861  O880    1.942   .     S
Cu861  O878    1.942   .     S
Cu861  N873    2.067   .     S
Cu861  O874    1.952   .     S
Cu862  O875    1.942   .     S
Cu862  N872    2.067   .     S
Cu862  O879    1.952   .     S
Cu862  O881    1.939   .     S
Cu862  O877    1.942   .     S
H864   C517    1.085   1_565 S
N872   N929    1.277   .     S
N872   S938    1.736   .     S
N873   N984    1.277   1_455 S
N873   S999    1.734   1_455 S
S882   O884    1.498   .     D
S882   O883    1.497   .     D
S882   N984    1.736   1_455 S
S882   O997    1.676   1_455 S
O885   H886    0.991   .     S
O885   S938    1.676   .     S
S887   O889    1.495   .     D
S887   O888    1.498   .     D
S887   N929    1.734   .     S
S887   O946    1.676   .     S
O890   H891    0.991   .     S
O890   S999    1.676   1_455 S
S892   O894    1.500   .     D
S892   O893    1.502   .     D
O895   H896    0.990   .     S
O895   S388    1.684   1_556 S
C897   C907    1.426   .     S
C897   O930    1.305   .     A
C897   O931    1.309   .     A
C898   C899    1.413   .     A
C898   C916    1.412   .     A
C898   C396    1.417   1_556 S
C899   C906    1.408   .     A
C899   C903    1.405   .     A
C900   C904    1.413   .     A
C900   C901    1.421   .     A
C901   C912    1.400   .     A
C902   C903    1.390   .     A
C902   H921    1.084   .     S
C902   C397    1.396   1_556 S
C903   H926    1.081   .     S
C904   S948    1.781   .     S
C904   C913    1.399   .     A
C905   C913    1.401   .     A
C905   C912    1.391   .     A
C905   H919    1.084   .     S
C906   C914    1.403   .     A
C906   C908    1.466   .     S
C907   C573    1.328   1_565 S
C907   H591    1.085   1_565 S
C908   O932    1.312   .     A
C908   O933    1.320   .     A
C909   C910    1.426   .     S
C910   O934    1.309   .     A
C910   O935    1.305   .     A
C911   O937    1.312   .     A
C911   O936    1.317   .     A
C911   C913    1.457   .     S
C912   H922    1.084   .     S
C914   C915    1.392   .     A
C914   H923    1.084   .     S
C915   C916    1.394   .     A
C915   H925    1.083   .     S
C916   H420    1.080   1_556 S
Cu917  O932    1.939   .     S
Cu917  Cu918   2.751   .     S
Cu917  O936    1.942   .     S
Cu917  O934    1.942   .     S
Cu917  N929    2.067   .     S
Cu917  O930    1.952   .     S
Cu918  O931    1.942   .     S
Cu918  N928    2.067   .     S
Cu918  O935    1.952   .     S
Cu918  O937    1.939   .     S
Cu918  O933    1.942   .     S
H920   C573    1.085   1_565 S
N928   N985    1.277   .     S
N928   S994    1.736   .     S
S938   O940    1.498   .     D
S938   O939    1.497   .     D
O941   H942    0.991   .     S
O941   S994    1.676   .     S
S943   O945    1.495   .     D
S943   O944    1.498   .     D
S943   N985    1.734   .     S
S943   O1002   1.676   .     S
O946   H947    0.991   .     S
S948   O950    1.500   .     D
S948   O949    1.502   .     D
O951   H952    0.990   .     S
O951   S444    1.684   1_556 S
C953   C963    1.426   .     S
C953   O986    1.305   .     A
C953   O987    1.309   .     A
C954   C955    1.413   .     A
C954   C972    1.412   .     A
C954   C452    1.417   1_556 S
C955   C962    1.408   .     A
C955   C959    1.405   .     A
C956   C960    1.413   .     A
C956   C957    1.421   .     A
C957   C968    1.400   .     A
C958   C959    1.390   .     A
C958   H977    1.084   .     S
C958   C453    1.396   1_556 S
C959   H982    1.081   .     S
C960   S1004   1.781   .     S
C960   C969    1.399   .     A
C961   C969    1.401   .     A
C961   C968    1.391   .     A
C961   H975    1.084   .     S
C962   C970    1.403   .     A
C962   C964    1.466   .     S
C963   C629    1.328   1_565 S
C963   H647    1.085   1_565 S
C964   O988    1.312   .     A
C964   O989    1.320   .     A
C965   C966    1.426   .     S
C966   O990    1.309   .     A
C966   O991    1.305   .     A
C967   O993    1.312   .     A
C967   O992    1.317   .     A
C967   C969    1.457   .     S
C968   H978    1.084   .     S
C970   C971    1.392   .     A
C970   H979    1.084   .     S
C971   C972    1.394   .     A
C971   H981    1.083   .     S
C972   H476    1.080   1_556 S
Cu973  O988    1.939   .     S
Cu973  Cu974   2.751   .     S
Cu973  O992    1.942   .     S
Cu973  O990    1.942   .     S
Cu973  N985    2.067   .     S
Cu973  O986    1.952   .     S
Cu974  O987    1.942   .     S
Cu974  N984    2.067   .     S
Cu974  O991    1.952   .     S
Cu974  O993    1.939   .     S
Cu974  O989    1.942   .     S
H976   C629    1.085   1_565 S
N984   N873    1.277   1_655 S
N984   S882    1.736   1_655 S
S994   O996    1.498   .     D
S994   O995    1.497   .     D
O997   H998    0.991   .     S
O997   S882    1.676   1_655 S
S999   O1001   1.495   .     D
S999   O1000   1.498   .     D
S999   N873    1.734   1_655 S
S999   O890    1.676   1_655 S
O1002  H1003   0.991   .     S
S1004  O1006   1.500   .     D
S1004  O1005   1.502   .     D
O1007  H1008   0.990   .     S
O1007  S500    1.684   1_556 S
