data_str_m2_o1_o16_pcu_sym.181
_audit_creation_date              2020-01-03
_audit_creation_method            'Materials Studio'
_symmetry_space_group_name_H-M    'P1'
_symmetry_Int_Tables_number       1
_symmetry_cell_setting            triclinic
loop_
_symmetry_equiv_pos_as_xyz
  x,y,z
_cell_length_a                    29.1236
_cell_length_b                    32.3059
_cell_length_c                    27.2797
_cell_angle_alpha                 91.6865
_cell_angle_beta                  74.3504
_cell_angle_gamma                 90.2367
loop_
_atom_site_label
_atom_site_type_symbol
_atom_site_fract_x
_atom_site_fract_y
_atom_site_fract_z
_atom_site_U_iso_or_equiv
_atom_site_adp_type
_atom_site_occupancy
C1     C     0.16635   0.24579   0.25092   0.00000  Uiso   1.00
C2     C     0.14269   0.16571   0.48960   0.00000  Uiso   1.00
C3     C     0.15859   0.17330   0.43690   0.00000  Uiso   1.00
C4     C     0.17732   0.16007   0.01651   0.00000  Uiso   1.00
C5     C     0.22203   0.14462   0.48883   0.00000  Uiso   1.00
C6     C     0.23786   0.15311   0.43657   0.00000  Uiso   1.00
C7     C     0.20812   0.17763   0.41644   0.00000  Uiso   1.00
C8     C     0.17020   0.17087   0.06821   0.00000  Uiso   1.00
C9     C     0.23935   0.12872   0.06834   0.00000  Uiso   1.00
C10    C     0.12649   0.16810   0.40602   0.00000  Uiso   1.00
C11    C     0.18049   0.31270   0.28970   0.00000  Uiso   1.00
C12    C     0.14140   0.16738   0.34951   0.00000  Uiso   1.00
C13    C     0.17885   0.02281   0.29195   0.00000  Uiso   1.00
C14    C     0.16593   0.04316   0.25291   0.00000  Uiso   1.00
C15    C     0.15073   0.02110   0.21572   0.00000  Uiso   1.00
C16    C     0.14625   0.31152   0.21752   0.00000  Uiso   1.00
C17    C     0.16515   0.29065   0.25212   0.00000  Uiso   1.00
C18    C     0.30434   0.19981   0.26966   0.00000  Uiso   1.00
C19    C     0.01903   0.19750   0.27460   0.00000  Uiso   1.00
C20    C     0.03036   0.13621   0.22527   0.00000  Uiso   1.00
C21    C     0.31363   0.13364   0.23064   0.00000  Uiso   1.00
C22    C     0.16635   0.08773   0.25130   0.00000  Uiso   1.00
C23    C     0.19162   0.16411   0.15058   0.00000  Uiso   1.00
C24    C     0.24927   0.12312   0.01511   0.00000  Uiso   1.00
C25    C     0.20243   0.15619   0.09473   0.00000  Uiso   1.00
C26    C     0.07942   0.15671   0.42993   0.00000  Uiso   1.00
C27    C     0.06181   0.16226   0.48241   0.00000  Uiso   1.00
C28    C     0.09389   0.15781   0.01158   0.00000  Uiso   1.00
Cu29   Cu    0.11978   0.16666   0.25000   0.00000  Uiso   1.00
Cu30   Cu    0.21355   0.16667   0.25000   0.00000  Uiso   1.00
H31    H     0.14253   0.03724   0.18511   0.00000  Uiso   1.00
H32    H     0.19304   0.29601   0.31728   0.00000  Uiso   1.00
N33    N     0.04931   0.16666   0.24999   0.00000  Uiso   1.00
N34    N     0.28402   0.16669   0.25000   0.00000  Uiso   1.00
O35    O     0.12708   0.22678   0.25001   0.00000  Uiso   1.00
O36    O     0.20627   0.22679   0.25001   0.00000  Uiso   1.00
O37    O     0.10775   0.16665   0.32549   0.00000  Uiso   1.00
O38    O     0.18694   0.16666   0.32549   0.00000  Uiso   1.00
O39    O     0.12706   0.10654   0.25000   0.00000  Uiso   1.00
O40    O     0.20625   0.10655   0.25000   0.00000  Uiso   1.00
O41    O     0.14640   0.16667   0.17451   0.00000  Uiso   1.00
O42    O     0.22559   0.16668   0.17451   0.00000  Uiso   1.00
I43    I     0.27984   0.09277   0.10528   0.00000  Uiso   1.00
O44    O     0.19256   0.04622   0.32917   0.00000  Uiso   1.00
C45    C     0.17066   0.03198   0.37837   0.00000  Uiso   1.00
H46    H     0.17085   0.05756   0.40639   0.00000  Uiso   1.00
H47    H     0.19135   0.00592   0.38747   0.00000  Uiso   1.00
H48    H     0.13275   0.02298   0.38322   0.00000  Uiso   1.00
O49    O     0.12653   0.28914   0.18403   0.00000  Uiso   1.00
C50    C     0.08392   0.30797   0.17993   0.00000  Uiso   1.00
H51    H     0.06334   0.32391   0.21592   0.00000  Uiso   1.00
H52    H     0.06028   0.28371   0.17079   0.00000  Uiso   1.00
H53    H     0.09208   0.32991   0.14818   0.00000  Uiso   1.00
O54    O     0.27810   0.23553   0.28553   0.00000  Uiso   1.00
C55    C     0.29763   0.26739   0.25176   0.00000  Uiso   1.00
H56    H     0.30157   0.25773   0.21126   0.00000  Uiso   1.00
H57    H     0.27342   0.29445   0.26044   0.00000  Uiso   1.00
H58    H     0.33211   0.27835   0.25703   0.00000  Uiso   1.00
O59    O     0.03700   0.22898   0.29929   0.00000  Uiso   1.00
C60    C     0.01790   0.22593   0.35227   0.00000  Uiso   1.00
H61    H     0.03903   0.24600   0.37164   0.00000  Uiso   1.00
H62    H     0.02016   0.19390   0.36526   0.00000  Uiso   1.00
H63    H     0.31395   0.23731   0.36430   0.00000  Uiso   1.00
I64    I     0.07444   0.09563   0.17082   0.00000  Uiso   1.00
O65    O     0.29569   0.09893   0.21190   0.00000  Uiso   1.00
C66    C     0.29585   0.06543   0.24409   0.00000  Uiso   1.00
H67    H     0.33226   0.05651   0.24527   0.00000  Uiso   1.00
H68    H     0.28003   0.03812   0.22930   0.00000  Uiso   1.00
H69    H     0.27392   0.07249   0.28336   0.00000  Uiso   1.00
O70    O     0.28420   0.14500   0.40886   0.00000  Uiso   1.00
C71    C     0.28346   0.12020   0.36547   0.00000  Uiso   1.00
H72    H     0.31972   0.11904   0.33901   0.00000  Uiso   1.00
H73    H     0.26007   0.13267   0.34338   0.00000  Uiso   1.00
H74    H     0.27261   0.08806   0.37649   0.00000  Uiso   1.00
O75    O     0.28543   0.09667   0.48928   0.00000  Uiso   1.00
C76    C     0.26503   0.05822   0.48116   0.00000  Uiso   1.00
H77    H     0.23814   0.06140   0.45924   0.00000  Uiso   1.00
H78    H     0.24847   0.04317   0.01786   0.00000  Uiso   1.00
H79    H     0.29371   0.03741   0.45863   0.00000  Uiso   1.00
I80    I     0.11970   0.21936   0.09866   0.00000  Uiso   1.00
I81    I     0.05295   0.10313   0.39971   0.00000  Uiso   1.00
O82    O     0.07900   0.13611   0.05591   0.00000  Uiso   1.00
C83    C     0.08590   0.09328   0.04290   0.00000  Uiso   1.00
H84    H     0.12260   0.08385   0.04270   0.00000  Uiso   1.00
H85    H     0.07925   0.08411   0.00568   0.00000  Uiso   1.00
H86    H     0.06020   0.07516   0.07163   0.00000  Uiso   1.00
O87    O     0.01370   0.15967   0.00538   0.00000  Uiso   1.00
C88    C     0.32753   0.19949   0.00452   0.00000  Uiso   1.00
H89    H     0.32787   0.20751   0.46505   0.00000  Uiso   1.00
H90    H     0.01308   0.22366   0.02164   0.00000  Uiso   1.00
H91    H     0.28993   0.19988   0.02771   0.00000  Uiso   1.00
O92    O     0.22839   0.20630   0.38030   0.00000  Uiso   1.00
C93    C     0.21041   0.24613   0.39801   0.00000  Uiso   1.00
H94    H     0.21088   0.25260   0.43825   0.00000  Uiso   1.00
H95    H     0.17379   0.25015   0.39380   0.00000  Uiso   1.00
H96    H     0.23363   0.26957   0.37472   0.00000  Uiso   1.00
C97    C     0.49968   0.24579   0.25092   0.00000  Uiso   1.00
C98    C     0.47602   0.16571   0.48960   0.00000  Uiso   1.00
C99    C     0.49192   0.17330   0.43690   0.00000  Uiso   1.00
C100   C     0.51066   0.16007   0.01651   0.00000  Uiso   1.00
C101   C     0.55536   0.14462   0.48883   0.00000  Uiso   1.00
C102   C     0.57119   0.15311   0.43657   0.00000  Uiso   1.00
C103   C     0.54146   0.17763   0.41644   0.00000  Uiso   1.00
C104   C     0.50353   0.17087   0.06821   0.00000  Uiso   1.00
C105   C     0.57269   0.12872   0.06834   0.00000  Uiso   1.00
C106   C     0.45982   0.16810   0.40602   0.00000  Uiso   1.00
C107   C     0.51383   0.31270   0.28970   0.00000  Uiso   1.00
C108   C     0.47473   0.16738   0.34951   0.00000  Uiso   1.00
C109   C     0.51218   0.02281   0.29195   0.00000  Uiso   1.00
C110   C     0.49927   0.04316   0.25291   0.00000  Uiso   1.00
C111   C     0.48406   0.02110   0.21572   0.00000  Uiso   1.00
C112   C     0.47958   0.31152   0.21752   0.00000  Uiso   1.00
C113   C     0.49848   0.29065   0.25212   0.00000  Uiso   1.00
C114   C     0.63767   0.19981   0.26966   0.00000  Uiso   1.00
C115   C     0.35236   0.19750   0.27460   0.00000  Uiso   1.00
C116   C     0.36370   0.13621   0.22527   0.00000  Uiso   1.00
C117   C     0.64697   0.13364   0.23064   0.00000  Uiso   1.00
C118   C     0.49968   0.08773   0.25130   0.00000  Uiso   1.00
C119   C     0.52495   0.16411   0.15058   0.00000  Uiso   1.00
C120   C     0.58260   0.12312   0.01511   0.00000  Uiso   1.00
C121   C     0.53576   0.15619   0.09473   0.00000  Uiso   1.00
C122   C     0.41275   0.15671   0.42993   0.00000  Uiso   1.00
C123   C     0.39515   0.16226   0.48241   0.00000  Uiso   1.00
C124   C     0.42723   0.15781   0.01158   0.00000  Uiso   1.00
Cu125  Cu    0.45311   0.16666   0.25000   0.00000  Uiso   1.00
Cu126  Cu    0.54689   0.16667   0.25000   0.00000  Uiso   1.00
H127   H     0.47586   0.03724   0.18511   0.00000  Uiso   1.00
H128   H     0.52638   0.29601   0.31728   0.00000  Uiso   1.00
N129   N     0.38265   0.16666   0.24999   0.00000  Uiso   1.00
N130   N     0.61735   0.16669   0.25000   0.00000  Uiso   1.00
O131   O     0.46042   0.22678   0.25001   0.00000  Uiso   1.00
O132   O     0.53961   0.22679   0.25001   0.00000  Uiso   1.00
O133   O     0.44108   0.16665   0.32549   0.00000  Uiso   1.00
O134   O     0.52027   0.16666   0.32549   0.00000  Uiso   1.00
O135   O     0.46039   0.10654   0.25000   0.00000  Uiso   1.00
O136   O     0.53958   0.10655   0.25000   0.00000  Uiso   1.00
O137   O     0.47973   0.16667   0.17451   0.00000  Uiso   1.00
O138   O     0.55892   0.16668   0.17451   0.00000  Uiso   1.00
I139   I     0.61317   0.09277   0.10528   0.00000  Uiso   1.00
O140   O     0.52590   0.04622   0.32917   0.00000  Uiso   1.00
C141   C     0.50399   0.03198   0.37837   0.00000  Uiso   1.00
H142   H     0.50419   0.05756   0.40639   0.00000  Uiso   1.00
H143   H     0.52469   0.00592   0.38747   0.00000  Uiso   1.00
H144   H     0.46608   0.02298   0.38322   0.00000  Uiso   1.00
O145   O     0.45986   0.28914   0.18403   0.00000  Uiso   1.00
C146   C     0.41726   0.30797   0.17993   0.00000  Uiso   1.00
H147   H     0.39667   0.32391   0.21592   0.00000  Uiso   1.00
H148   H     0.39362   0.28371   0.17079   0.00000  Uiso   1.00
H149   H     0.42541   0.32991   0.14818   0.00000  Uiso   1.00
O150   O     0.61144   0.23553   0.28553   0.00000  Uiso   1.00
C151   C     0.63096   0.26739   0.25176   0.00000  Uiso   1.00
H152   H     0.63490   0.25773   0.21126   0.00000  Uiso   1.00
H153   H     0.60675   0.29445   0.26044   0.00000  Uiso   1.00
H154   H     0.66544   0.27835   0.25703   0.00000  Uiso   1.00
O155   O     0.37034   0.22898   0.29929   0.00000  Uiso   1.00
C156   C     0.35123   0.22593   0.35227   0.00000  Uiso   1.00
H157   H     0.37236   0.24600   0.37164   0.00000  Uiso   1.00
H158   H     0.35349   0.19390   0.36526   0.00000  Uiso   1.00
H159   H     0.64728   0.23731   0.36430   0.00000  Uiso   1.00
I160   I     0.40778   0.09563   0.17082   0.00000  Uiso   1.00
O161   O     0.62903   0.09893   0.21190   0.00000  Uiso   1.00
C162   C     0.62919   0.06543   0.24409   0.00000  Uiso   1.00
H163   H     0.66559   0.05651   0.24527   0.00000  Uiso   1.00
H164   H     0.61337   0.03812   0.22930   0.00000  Uiso   1.00
H165   H     0.60725   0.07249   0.28336   0.00000  Uiso   1.00
O166   O     0.61754   0.14500   0.40886   0.00000  Uiso   1.00
C167   C     0.61679   0.12020   0.36547   0.00000  Uiso   1.00
H168   H     0.65305   0.11904   0.33901   0.00000  Uiso   1.00
H169   H     0.59341   0.13267   0.34338   0.00000  Uiso   1.00
H170   H     0.60594   0.08806   0.37649   0.00000  Uiso   1.00
O171   O     0.61876   0.09667   0.48928   0.00000  Uiso   1.00
C172   C     0.59837   0.05822   0.48116   0.00000  Uiso   1.00
H173   H     0.57147   0.06140   0.45924   0.00000  Uiso   1.00
H174   H     0.58180   0.04317   0.01786   0.00000  Uiso   1.00
H175   H     0.62704   0.03741   0.45863   0.00000  Uiso   1.00
I176   I     0.45303   0.21936   0.09866   0.00000  Uiso   1.00
I177   I     0.38628   0.10313   0.39971   0.00000  Uiso   1.00
O178   O     0.41233   0.13611   0.05591   0.00000  Uiso   1.00
C179   C     0.41923   0.09328   0.04290   0.00000  Uiso   1.00
H180   H     0.45593   0.08385   0.04270   0.00000  Uiso   1.00
H181   H     0.41259   0.08411   0.00568   0.00000  Uiso   1.00
H182   H     0.39353   0.07516   0.07163   0.00000  Uiso   1.00
O183   O     0.34704   0.15967   0.00538   0.00000  Uiso   1.00
C184   C     0.66086   0.19949   0.00452   0.00000  Uiso   1.00
H185   H     0.66120   0.20751   0.46505   0.00000  Uiso   1.00
H186   H     0.34641   0.22366   0.02164   0.00000  Uiso   1.00
H187   H     0.62326   0.19988   0.02771   0.00000  Uiso   1.00
O188   O     0.56172   0.20630   0.38030   0.00000  Uiso   1.00
C189   C     0.54374   0.24613   0.39801   0.00000  Uiso   1.00
H190   H     0.54422   0.25260   0.43825   0.00000  Uiso   1.00
H191   H     0.50713   0.25015   0.39380   0.00000  Uiso   1.00
H192   H     0.56697   0.26957   0.37472   0.00000  Uiso   1.00
C193   C     0.83301   0.24579   0.25092   0.00000  Uiso   1.00
C194   C     0.80936   0.16571   0.48960   0.00000  Uiso   1.00
C195   C     0.82525   0.17330   0.43690   0.00000  Uiso   1.00
C196   C     0.84399   0.16007   0.01651   0.00000  Uiso   1.00
C197   C     0.88870   0.14462   0.48883   0.00000  Uiso   1.00
C198   C     0.90453   0.15311   0.43657   0.00000  Uiso   1.00
C199   C     0.87479   0.17763   0.41644   0.00000  Uiso   1.00
C200   C     0.83686   0.17087   0.06821   0.00000  Uiso   1.00
C201   C     0.90602   0.12872   0.06834   0.00000  Uiso   1.00
C202   C     0.79315   0.16810   0.40602   0.00000  Uiso   1.00
C203   C     0.84716   0.31270   0.28970   0.00000  Uiso   1.00
C204   C     0.80806   0.16738   0.34951   0.00000  Uiso   1.00
C205   C     0.84552   0.02281   0.29195   0.00000  Uiso   1.00
C206   C     0.83260   0.04316   0.25291   0.00000  Uiso   1.00
C207   C     0.81740   0.02110   0.21572   0.00000  Uiso   1.00
C208   C     0.81292   0.31152   0.21752   0.00000  Uiso   1.00
C209   C     0.83182   0.29065   0.25212   0.00000  Uiso   1.00
C210   C     0.97101   0.19981   0.26966   0.00000  Uiso   1.00
C211   C     0.68570   0.19750   0.27460   0.00000  Uiso   1.00
C212   C     0.69703   0.13621   0.22527   0.00000  Uiso   1.00
C213   C     0.98030   0.13364   0.23064   0.00000  Uiso   1.00
C214   C     0.83301   0.08773   0.25130   0.00000  Uiso   1.00
C215   C     0.85829   0.16411   0.15058   0.00000  Uiso   1.00
C216   C     0.91593   0.12312   0.01511   0.00000  Uiso   1.00
C217   C     0.86910   0.15619   0.09473   0.00000  Uiso   1.00
C218   C     0.74608   0.15671   0.42993   0.00000  Uiso   1.00
C219   C     0.72848   0.16226   0.48241   0.00000  Uiso   1.00
C220   C     0.76056   0.15781   0.01158   0.00000  Uiso   1.00
Cu221  Cu    0.78645   0.16666   0.25000   0.00000  Uiso   1.00
Cu222  Cu    0.88022   0.16667   0.25000   0.00000  Uiso   1.00
H223   H     0.80919   0.03724   0.18511   0.00000  Uiso   1.00
H224   H     0.85971   0.29601   0.31728   0.00000  Uiso   1.00
N225   N     0.71598   0.16666   0.24999   0.00000  Uiso   1.00
N226   N     0.95069   0.16669   0.25000   0.00000  Uiso   1.00
O227   O     0.79375   0.22678   0.25001   0.00000  Uiso   1.00
O228   O     0.87294   0.22679   0.25001   0.00000  Uiso   1.00
O229   O     0.77441   0.16665   0.32549   0.00000  Uiso   1.00
O230   O     0.85360   0.16666   0.32549   0.00000  Uiso   1.00
O231   O     0.79373   0.10654   0.25000   0.00000  Uiso   1.00
O232   O     0.87292   0.10655   0.25000   0.00000  Uiso   1.00
O233   O     0.81306   0.16667   0.17451   0.00000  Uiso   1.00
O234   O     0.89225   0.16668   0.17451   0.00000  Uiso   1.00
I235   I     0.94651   0.09277   0.10528   0.00000  Uiso   1.00
O236   O     0.85923   0.04622   0.32917   0.00000  Uiso   1.00
C237   C     0.83733   0.03198   0.37837   0.00000  Uiso   1.00
H238   H     0.83752   0.05756   0.40639   0.00000  Uiso   1.00
H239   H     0.85802   0.00592   0.38747   0.00000  Uiso   1.00
H240   H     0.79941   0.02298   0.38322   0.00000  Uiso   1.00
O241   O     0.79319   0.28914   0.18403   0.00000  Uiso   1.00
C242   C     0.75059   0.30797   0.17993   0.00000  Uiso   1.00
H243   H     0.73000   0.32391   0.21592   0.00000  Uiso   1.00
H244   H     0.72695   0.28371   0.17079   0.00000  Uiso   1.00
H245   H     0.75875   0.32991   0.14818   0.00000  Uiso   1.00
O246   O     0.94477   0.23553   0.28553   0.00000  Uiso   1.00
C247   C     0.96429   0.26739   0.25176   0.00000  Uiso   1.00
H248   H     0.96823   0.25773   0.21126   0.00000  Uiso   1.00
H249   H     0.94009   0.29445   0.26044   0.00000  Uiso   1.00
H250   H     0.99877   0.27835   0.25703   0.00000  Uiso   1.00
O251   O     0.70367   0.22898   0.29929   0.00000  Uiso   1.00
C252   C     0.68457   0.22593   0.35227   0.00000  Uiso   1.00
H253   H     0.70569   0.24600   0.37164   0.00000  Uiso   1.00
H254   H     0.68682   0.19390   0.36526   0.00000  Uiso   1.00
H255   H     0.98062   0.23731   0.36430   0.00000  Uiso   1.00
I256   I     0.74111   0.09563   0.17082   0.00000  Uiso   1.00
O257   O     0.96236   0.09893   0.21190   0.00000  Uiso   1.00
C258   C     0.96252   0.06543   0.24409   0.00000  Uiso   1.00
H259   H     0.99893   0.05651   0.24527   0.00000  Uiso   1.00
H260   H     0.94670   0.03812   0.22930   0.00000  Uiso   1.00
H261   H     0.94058   0.07249   0.28336   0.00000  Uiso   1.00
O262   O     0.95087   0.14500   0.40886   0.00000  Uiso   1.00
C263   C     0.95013   0.12020   0.36547   0.00000  Uiso   1.00
H264   H     0.98638   0.11904   0.33901   0.00000  Uiso   1.00
H265   H     0.92674   0.13267   0.34338   0.00000  Uiso   1.00
H266   H     0.93928   0.08806   0.37649   0.00000  Uiso   1.00
O267   O     0.95209   0.09667   0.48928   0.00000  Uiso   1.00
C268   C     0.93170   0.05822   0.48116   0.00000  Uiso   1.00
H269   H     0.90481   0.06140   0.45924   0.00000  Uiso   1.00
H270   H     0.91513   0.04317   0.01786   0.00000  Uiso   1.00
H271   H     0.96037   0.03741   0.45863   0.00000  Uiso   1.00
I272   I     0.78637   0.21936   0.09866   0.00000  Uiso   1.00
I273   I     0.71962   0.10313   0.39971   0.00000  Uiso   1.00
O274   O     0.74566   0.13611   0.05591   0.00000  Uiso   1.00
C275   C     0.75256   0.09328   0.04290   0.00000  Uiso   1.00
H276   H     0.78926   0.08385   0.04270   0.00000  Uiso   1.00
H277   H     0.74592   0.08411   0.00568   0.00000  Uiso   1.00
H278   H     0.72687   0.07516   0.07163   0.00000  Uiso   1.00
O279   O     0.68037   0.15967   0.00538   0.00000  Uiso   1.00
C280   C     0.99420   0.19949   0.00452   0.00000  Uiso   1.00
H281   H     0.99453   0.20751   0.46505   0.00000  Uiso   1.00
H282   H     0.67974   0.22366   0.02164   0.00000  Uiso   1.00
H283   H     0.95660   0.19988   0.02771   0.00000  Uiso   1.00
O284   O     0.89506   0.20630   0.38030   0.00000  Uiso   1.00
C285   C     0.87708   0.24613   0.39801   0.00000  Uiso   1.00
H286   H     0.87755   0.25260   0.43825   0.00000  Uiso   1.00
H287   H     0.84046   0.25015   0.39380   0.00000  Uiso   1.00
H288   H     0.90030   0.26957   0.37472   0.00000  Uiso   1.00
C289   C     0.16635   0.57912   0.25092   0.00000  Uiso   1.00
C290   C     0.14269   0.49904   0.48960   0.00000  Uiso   1.00
C291   C     0.15859   0.50663   0.43690   0.00000  Uiso   1.00
C292   C     0.17732   0.49340   0.01651   0.00000  Uiso   1.00
C293   C     0.22203   0.47795   0.48883   0.00000  Uiso   1.00
C294   C     0.23786   0.48644   0.43657   0.00000  Uiso   1.00
C295   C     0.20812   0.51096   0.41644   0.00000  Uiso   1.00
C296   C     0.17020   0.50420   0.06821   0.00000  Uiso   1.00
C297   C     0.23935   0.46206   0.06834   0.00000  Uiso   1.00
C298   C     0.12649   0.50144   0.40602   0.00000  Uiso   1.00
C299   C     0.18049   0.64603   0.28970   0.00000  Uiso   1.00
C300   C     0.14140   0.50072   0.34951   0.00000  Uiso   1.00
C301   C     0.17885   0.35614   0.29195   0.00000  Uiso   1.00
C302   C     0.16593   0.37649   0.25291   0.00000  Uiso   1.00
C303   C     0.15073   0.35444   0.21572   0.00000  Uiso   1.00
C304   C     0.14625   0.64486   0.21752   0.00000  Uiso   1.00
C305   C     0.16515   0.62399   0.25212   0.00000  Uiso   1.00
C306   C     0.30434   0.53314   0.26966   0.00000  Uiso   1.00
C307   C     0.01903   0.53083   0.27460   0.00000  Uiso   1.00
C308   C     0.03036   0.46954   0.22527   0.00000  Uiso   1.00
C309   C     0.31363   0.46698   0.23064   0.00000  Uiso   1.00
C310   C     0.16635   0.42106   0.25130   0.00000  Uiso   1.00
C311   C     0.19162   0.49744   0.15058   0.00000  Uiso   1.00
C312   C     0.24927   0.45645   0.01511   0.00000  Uiso   1.00
C313   C     0.20243   0.48953   0.09473   0.00000  Uiso   1.00
C314   C     0.07942   0.49004   0.42993   0.00000  Uiso   1.00
C315   C     0.06181   0.49560   0.48241   0.00000  Uiso   1.00
C316   C     0.09389   0.49115   0.01158   0.00000  Uiso   1.00
Cu317  Cu    0.11978   0.49999   0.25000   0.00000  Uiso   1.00
Cu318  Cu    0.21355   0.50001   0.25000   0.00000  Uiso   1.00
H319   H     0.14253   0.37057   0.18511   0.00000  Uiso   1.00
H320   H     0.19304   0.62934   0.31728   0.00000  Uiso   1.00
N321   N     0.04931   0.49999   0.24999   0.00000  Uiso   1.00
N322   N     0.28402   0.50002   0.25000   0.00000  Uiso   1.00
O323   O     0.12708   0.56011   0.25001   0.00000  Uiso   1.00
O324   O     0.20627   0.56012   0.25001   0.00000  Uiso   1.00
O325   O     0.10775   0.49998   0.32549   0.00000  Uiso   1.00
O326   O     0.18694   0.49999   0.32549   0.00000  Uiso   1.00
O327   O     0.12706   0.43988   0.25000   0.00000  Uiso   1.00
O328   O     0.20625   0.43989   0.25000   0.00000  Uiso   1.00
O329   O     0.14640   0.50001   0.17451   0.00000  Uiso   1.00
O330   O     0.22559   0.50002   0.17451   0.00000  Uiso   1.00
I331   I     0.27984   0.42610   0.10528   0.00000  Uiso   1.00
O332   O     0.19256   0.37955   0.32917   0.00000  Uiso   1.00
C333   C     0.17066   0.36532   0.37837   0.00000  Uiso   1.00
H334   H     0.17085   0.39089   0.40639   0.00000  Uiso   1.00
H335   H     0.19135   0.33925   0.38747   0.00000  Uiso   1.00
H336   H     0.13275   0.35631   0.38322   0.00000  Uiso   1.00
O337   O     0.12653   0.62248   0.18403   0.00000  Uiso   1.00
C338   C     0.08392   0.64131   0.17993   0.00000  Uiso   1.00
H339   H     0.06334   0.65725   0.21592   0.00000  Uiso   1.00
H340   H     0.06028   0.61705   0.17079   0.00000  Uiso   1.00
H341   H     0.09208   0.66324   0.14818   0.00000  Uiso   1.00
O342   O     0.27810   0.56886   0.28553   0.00000  Uiso   1.00
C343   C     0.29763   0.60072   0.25176   0.00000  Uiso   1.00
H344   H     0.30157   0.59106   0.21126   0.00000  Uiso   1.00
H345   H     0.27342   0.62779   0.26044   0.00000  Uiso   1.00
H346   H     0.33211   0.61169   0.25703   0.00000  Uiso   1.00
O347   O     0.03700   0.56231   0.29929   0.00000  Uiso   1.00
C348   C     0.01790   0.55926   0.35227   0.00000  Uiso   1.00
H349   H     0.03903   0.57934   0.37164   0.00000  Uiso   1.00
H350   H     0.02016   0.52723   0.36526   0.00000  Uiso   1.00
H351   H     0.31395   0.57064   0.36430   0.00000  Uiso   1.00
I352   I     0.07444   0.42896   0.17082   0.00000  Uiso   1.00
O353   O     0.29569   0.43227   0.21190   0.00000  Uiso   1.00
C354   C     0.29585   0.39877   0.24409   0.00000  Uiso   1.00
H355   H     0.33226   0.38984   0.24527   0.00000  Uiso   1.00
H356   H     0.28003   0.37145   0.22930   0.00000  Uiso   1.00
H357   H     0.27392   0.40583   0.28336   0.00000  Uiso   1.00
O358   O     0.28420   0.47834   0.40886   0.00000  Uiso   1.00
C359   C     0.28346   0.45354   0.36547   0.00000  Uiso   1.00
H360   H     0.31972   0.45237   0.33901   0.00000  Uiso   1.00
H361   H     0.26007   0.46601   0.34338   0.00000  Uiso   1.00
H362   H     0.27261   0.42139   0.37649   0.00000  Uiso   1.00
O363   O     0.28543   0.43000   0.48928   0.00000  Uiso   1.00
C364   C     0.26503   0.39155   0.48116   0.00000  Uiso   1.00
H365   H     0.23814   0.39473   0.45924   0.00000  Uiso   1.00
H366   H     0.24847   0.37650   0.01786   0.00000  Uiso   1.00
H367   H     0.29371   0.37075   0.45863   0.00000  Uiso   1.00
I368   I     0.11970   0.55270   0.09866   0.00000  Uiso   1.00
I369   I     0.05295   0.43646   0.39971   0.00000  Uiso   1.00
O370   O     0.07900   0.46945   0.05591   0.00000  Uiso   1.00
C371   C     0.08590   0.42661   0.04290   0.00000  Uiso   1.00
H372   H     0.12260   0.41718   0.04270   0.00000  Uiso   1.00
H373   H     0.07925   0.41744   0.00568   0.00000  Uiso   1.00
H374   H     0.06020   0.40849   0.07163   0.00000  Uiso   1.00
O375   O     0.01370   0.49300   0.00538   0.00000  Uiso   1.00
C376   C     0.32753   0.53282   0.00452   0.00000  Uiso   1.00
H377   H     0.32787   0.54085   0.46505   0.00000  Uiso   1.00
H378   H     0.01308   0.55699   0.02164   0.00000  Uiso   1.00
H379   H     0.28993   0.53322   0.02771   0.00000  Uiso   1.00
O380   O     0.22839   0.53963   0.38030   0.00000  Uiso   1.00
C381   C     0.21041   0.57947   0.39801   0.00000  Uiso   1.00
H382   H     0.21088   0.58593   0.43825   0.00000  Uiso   1.00
H383   H     0.17379   0.58348   0.39380   0.00000  Uiso   1.00
H384   H     0.23363   0.60291   0.37472   0.00000  Uiso   1.00
C385   C     0.49968   0.57912   0.25092   0.00000  Uiso   1.00
C386   C     0.47602   0.49904   0.48960   0.00000  Uiso   1.00
C387   C     0.49192   0.50663   0.43690   0.00000  Uiso   1.00
C388   C     0.51066   0.49340   0.01651   0.00000  Uiso   1.00
C389   C     0.55536   0.47795   0.48883   0.00000  Uiso   1.00
C390   C     0.57119   0.48644   0.43657   0.00000  Uiso   1.00
C391   C     0.54146   0.51096   0.41644   0.00000  Uiso   1.00
C392   C     0.50353   0.50420   0.06821   0.00000  Uiso   1.00
C393   C     0.57269   0.46206   0.06834   0.00000  Uiso   1.00
C394   C     0.45982   0.50144   0.40602   0.00000  Uiso   1.00
C395   C     0.51383   0.64603   0.28970   0.00000  Uiso   1.00
C396   C     0.47473   0.50072   0.34951   0.00000  Uiso   1.00
C397   C     0.51218   0.35614   0.29195   0.00000  Uiso   1.00
C398   C     0.49927   0.37649   0.25291   0.00000  Uiso   1.00
C399   C     0.48406   0.35444   0.21572   0.00000  Uiso   1.00
C400   C     0.47958   0.64486   0.21752   0.00000  Uiso   1.00
C401   C     0.49848   0.62399   0.25212   0.00000  Uiso   1.00
C402   C     0.63767   0.53314   0.26966   0.00000  Uiso   1.00
C403   C     0.35236   0.53083   0.27460   0.00000  Uiso   1.00
C404   C     0.36370   0.46954   0.22527   0.00000  Uiso   1.00
C405   C     0.64697   0.46698   0.23064   0.00000  Uiso   1.00
C406   C     0.49968   0.42106   0.25130   0.00000  Uiso   1.00
C407   C     0.52495   0.49744   0.15058   0.00000  Uiso   1.00
C408   C     0.58260   0.45645   0.01511   0.00000  Uiso   1.00
C409   C     0.53576   0.48953   0.09473   0.00000  Uiso   1.00
C410   C     0.41275   0.49004   0.42993   0.00000  Uiso   1.00
C411   C     0.39515   0.49560   0.48241   0.00000  Uiso   1.00
C412   C     0.42723   0.49115   0.01158   0.00000  Uiso   1.00
Cu413  Cu    0.45311   0.49999   0.25000   0.00000  Uiso   1.00
Cu414  Cu    0.54689   0.50001   0.25000   0.00000  Uiso   1.00
H415   H     0.47586   0.37057   0.18511   0.00000  Uiso   1.00
H416   H     0.52638   0.62934   0.31728   0.00000  Uiso   1.00
N417   N     0.38265   0.49999   0.24999   0.00000  Uiso   1.00
N418   N     0.61735   0.50002   0.25000   0.00000  Uiso   1.00
O419   O     0.46042   0.56011   0.25001   0.00000  Uiso   1.00
O420   O     0.53961   0.56012   0.25001   0.00000  Uiso   1.00
O421   O     0.44108   0.49998   0.32549   0.00000  Uiso   1.00
O422   O     0.52027   0.49999   0.32549   0.00000  Uiso   1.00
O423   O     0.46039   0.43988   0.25000   0.00000  Uiso   1.00
O424   O     0.53958   0.43989   0.25000   0.00000  Uiso   1.00
O425   O     0.47973   0.50001   0.17451   0.00000  Uiso   1.00
O426   O     0.55892   0.50002   0.17451   0.00000  Uiso   1.00
I427   I     0.61317   0.42610   0.10528   0.00000  Uiso   1.00
O428   O     0.52590   0.37955   0.32917   0.00000  Uiso   1.00
C429   C     0.50399   0.36532   0.37837   0.00000  Uiso   1.00
H430   H     0.50419   0.39089   0.40639   0.00000  Uiso   1.00
H431   H     0.52469   0.33925   0.38747   0.00000  Uiso   1.00
H432   H     0.46608   0.35631   0.38322   0.00000  Uiso   1.00
O433   O     0.45986   0.62248   0.18403   0.00000  Uiso   1.00
C434   C     0.41726   0.64131   0.17993   0.00000  Uiso   1.00
H435   H     0.39667   0.65725   0.21592   0.00000  Uiso   1.00
H436   H     0.39362   0.61705   0.17079   0.00000  Uiso   1.00
H437   H     0.42541   0.66324   0.14818   0.00000  Uiso   1.00
O438   O     0.61144   0.56886   0.28553   0.00000  Uiso   1.00
C439   C     0.63096   0.60072   0.25176   0.00000  Uiso   1.00
H440   H     0.63490   0.59106   0.21126   0.00000  Uiso   1.00
H441   H     0.60675   0.62779   0.26044   0.00000  Uiso   1.00
H442   H     0.66544   0.61169   0.25703   0.00000  Uiso   1.00
O443   O     0.37034   0.56231   0.29929   0.00000  Uiso   1.00
C444   C     0.35123   0.55926   0.35227   0.00000  Uiso   1.00
H445   H     0.37236   0.57934   0.37164   0.00000  Uiso   1.00
H446   H     0.35349   0.52723   0.36526   0.00000  Uiso   1.00
H447   H     0.64728   0.57064   0.36430   0.00000  Uiso   1.00
I448   I     0.40778   0.42896   0.17082   0.00000  Uiso   1.00
O449   O     0.62903   0.43227   0.21190   0.00000  Uiso   1.00
C450   C     0.62919   0.39877   0.24409   0.00000  Uiso   1.00
H451   H     0.66559   0.38984   0.24527   0.00000  Uiso   1.00
H452   H     0.61337   0.37145   0.22930   0.00000  Uiso   1.00
H453   H     0.60725   0.40583   0.28336   0.00000  Uiso   1.00
O454   O     0.61754   0.47834   0.40886   0.00000  Uiso   1.00
C455   C     0.61679   0.45354   0.36547   0.00000  Uiso   1.00
H456   H     0.65305   0.45237   0.33901   0.00000  Uiso   1.00
H457   H     0.59341   0.46601   0.34338   0.00000  Uiso   1.00
H458   H     0.60594   0.42139   0.37649   0.00000  Uiso   1.00
O459   O     0.61876   0.43000   0.48928   0.00000  Uiso   1.00
C460   C     0.59837   0.39155   0.48116   0.00000  Uiso   1.00
H461   H     0.57147   0.39473   0.45924   0.00000  Uiso   1.00
H462   H     0.58180   0.37650   0.01786   0.00000  Uiso   1.00
H463   H     0.62704   0.37075   0.45863   0.00000  Uiso   1.00
I464   I     0.45303   0.55270   0.09866   0.00000  Uiso   1.00
I465   I     0.38628   0.43646   0.39971   0.00000  Uiso   1.00
O466   O     0.41233   0.46945   0.05591   0.00000  Uiso   1.00
C467   C     0.41923   0.42661   0.04290   0.00000  Uiso   1.00
H468   H     0.45593   0.41718   0.04270   0.00000  Uiso   1.00
H469   H     0.41259   0.41744   0.00568   0.00000  Uiso   1.00
H470   H     0.39353   0.40849   0.07163   0.00000  Uiso   1.00
O471   O     0.34704   0.49300   0.00538   0.00000  Uiso   1.00
C472   C     0.66086   0.53282   0.00452   0.00000  Uiso   1.00
H473   H     0.66120   0.54085   0.46505   0.00000  Uiso   1.00
H474   H     0.34641   0.55699   0.02164   0.00000  Uiso   1.00
H475   H     0.62326   0.53322   0.02771   0.00000  Uiso   1.00
O476   O     0.56172   0.53963   0.38030   0.00000  Uiso   1.00
C477   C     0.54374   0.57947   0.39801   0.00000  Uiso   1.00
H478   H     0.54422   0.58593   0.43825   0.00000  Uiso   1.00
H479   H     0.50713   0.58348   0.39380   0.00000  Uiso   1.00
H480   H     0.56697   0.60291   0.37472   0.00000  Uiso   1.00
C481   C     0.83301   0.57912   0.25092   0.00000  Uiso   1.00
C482   C     0.80936   0.49904   0.48960   0.00000  Uiso   1.00
C483   C     0.82525   0.50663   0.43690   0.00000  Uiso   1.00
C484   C     0.84399   0.49340   0.01651   0.00000  Uiso   1.00
C485   C     0.88870   0.47795   0.48883   0.00000  Uiso   1.00
C486   C     0.90453   0.48644   0.43657   0.00000  Uiso   1.00
C487   C     0.87479   0.51096   0.41644   0.00000  Uiso   1.00
C488   C     0.83686   0.50420   0.06821   0.00000  Uiso   1.00
C489   C     0.90602   0.46206   0.06834   0.00000  Uiso   1.00
C490   C     0.79315   0.50144   0.40602   0.00000  Uiso   1.00
C491   C     0.84716   0.64603   0.28970   0.00000  Uiso   1.00
C492   C     0.80806   0.50072   0.34951   0.00000  Uiso   1.00
C493   C     0.84552   0.35614   0.29195   0.00000  Uiso   1.00
C494   C     0.83260   0.37649   0.25291   0.00000  Uiso   1.00
C495   C     0.81740   0.35444   0.21572   0.00000  Uiso   1.00
C496   C     0.81292   0.64486   0.21752   0.00000  Uiso   1.00
C497   C     0.83182   0.62399   0.25212   0.00000  Uiso   1.00
C498   C     0.97101   0.53314   0.26966   0.00000  Uiso   1.00
C499   C     0.68570   0.53083   0.27460   0.00000  Uiso   1.00
C500   C     0.69703   0.46954   0.22527   0.00000  Uiso   1.00
C501   C     0.98030   0.46698   0.23064   0.00000  Uiso   1.00
C502   C     0.83301   0.42106   0.25130   0.00000  Uiso   1.00
C503   C     0.85829   0.49744   0.15058   0.00000  Uiso   1.00
C504   C     0.91593   0.45645   0.01511   0.00000  Uiso   1.00
C505   C     0.86910   0.48953   0.09473   0.00000  Uiso   1.00
C506   C     0.74608   0.49004   0.42993   0.00000  Uiso   1.00
C507   C     0.72848   0.49560   0.48241   0.00000  Uiso   1.00
C508   C     0.76056   0.49115   0.01158   0.00000  Uiso   1.00
Cu509  Cu    0.78645   0.49999   0.25000   0.00000  Uiso   1.00
Cu510  Cu    0.88022   0.50001   0.25000   0.00000  Uiso   1.00
H511   H     0.80919   0.37057   0.18511   0.00000  Uiso   1.00
H512   H     0.85971   0.62934   0.31728   0.00000  Uiso   1.00
N513   N     0.71598   0.49999   0.24999   0.00000  Uiso   1.00
N514   N     0.95069   0.50002   0.25000   0.00000  Uiso   1.00
O515   O     0.79375   0.56011   0.25001   0.00000  Uiso   1.00
O516   O     0.87294   0.56012   0.25001   0.00000  Uiso   1.00
O517   O     0.77441   0.49998   0.32549   0.00000  Uiso   1.00
O518   O     0.85360   0.49999   0.32549   0.00000  Uiso   1.00
O519   O     0.79373   0.43988   0.25000   0.00000  Uiso   1.00
O520   O     0.87292   0.43989   0.25000   0.00000  Uiso   1.00
O521   O     0.81306   0.50001   0.17451   0.00000  Uiso   1.00
O522   O     0.89225   0.50002   0.17451   0.00000  Uiso   1.00
I523   I     0.94651   0.42610   0.10528   0.00000  Uiso   1.00
O524   O     0.85923   0.37955   0.32917   0.00000  Uiso   1.00
C525   C     0.83733   0.36532   0.37837   0.00000  Uiso   1.00
H526   H     0.83752   0.39089   0.40639   0.00000  Uiso   1.00
H527   H     0.85802   0.33925   0.38747   0.00000  Uiso   1.00
H528   H     0.79941   0.35631   0.38322   0.00000  Uiso   1.00
O529   O     0.79319   0.62248   0.18403   0.00000  Uiso   1.00
C530   C     0.75059   0.64131   0.17993   0.00000  Uiso   1.00
H531   H     0.73000   0.65725   0.21592   0.00000  Uiso   1.00
H532   H     0.72695   0.61705   0.17079   0.00000  Uiso   1.00
H533   H     0.75875   0.66324   0.14818   0.00000  Uiso   1.00
O534   O     0.94477   0.56886   0.28553   0.00000  Uiso   1.00
C535   C     0.96429   0.60072   0.25176   0.00000  Uiso   1.00
H536   H     0.96823   0.59106   0.21126   0.00000  Uiso   1.00
H537   H     0.94009   0.62779   0.26044   0.00000  Uiso   1.00
H538   H     0.99877   0.61169   0.25703   0.00000  Uiso   1.00
O539   O     0.70367   0.56231   0.29929   0.00000  Uiso   1.00
C540   C     0.68457   0.55926   0.35227   0.00000  Uiso   1.00
H541   H     0.70569   0.57934   0.37164   0.00000  Uiso   1.00
H542   H     0.68682   0.52723   0.36526   0.00000  Uiso   1.00
H543   H     0.98062   0.57064   0.36430   0.00000  Uiso   1.00
I544   I     0.74111   0.42896   0.17082   0.00000  Uiso   1.00
O545   O     0.96236   0.43227   0.21190   0.00000  Uiso   1.00
C546   C     0.96252   0.39877   0.24409   0.00000  Uiso   1.00
H547   H     0.99893   0.38984   0.24527   0.00000  Uiso   1.00
H548   H     0.94670   0.37145   0.22930   0.00000  Uiso   1.00
H549   H     0.94058   0.40583   0.28336   0.00000  Uiso   1.00
O550   O     0.95087   0.47834   0.40886   0.00000  Uiso   1.00
C551   C     0.95013   0.45354   0.36547   0.00000  Uiso   1.00
H552   H     0.98638   0.45237   0.33901   0.00000  Uiso   1.00
H553   H     0.92674   0.46601   0.34338   0.00000  Uiso   1.00
H554   H     0.93928   0.42139   0.37649   0.00000  Uiso   1.00
O555   O     0.95209   0.43000   0.48928   0.00000  Uiso   1.00
C556   C     0.93170   0.39155   0.48116   0.00000  Uiso   1.00
H557   H     0.90481   0.39473   0.45924   0.00000  Uiso   1.00
H558   H     0.91513   0.37650   0.01786   0.00000  Uiso   1.00
H559   H     0.96037   0.37075   0.45863   0.00000  Uiso   1.00
I560   I     0.78637   0.55270   0.09866   0.00000  Uiso   1.00
I561   I     0.71962   0.43646   0.39971   0.00000  Uiso   1.00
O562   O     0.74566   0.46945   0.05591   0.00000  Uiso   1.00
C563   C     0.75256   0.42661   0.04290   0.00000  Uiso   1.00
H564   H     0.78926   0.41718   0.04270   0.00000  Uiso   1.00
H565   H     0.74592   0.41744   0.00568   0.00000  Uiso   1.00
H566   H     0.72687   0.40849   0.07163   0.00000  Uiso   1.00
O567   O     0.68037   0.49300   0.00538   0.00000  Uiso   1.00
C568   C     0.99420   0.53282   0.00452   0.00000  Uiso   1.00
H569   H     0.99453   0.54085   0.46505   0.00000  Uiso   1.00
H570   H     0.67974   0.55699   0.02164   0.00000  Uiso   1.00
H571   H     0.95660   0.53322   0.02771   0.00000  Uiso   1.00
O572   O     0.89506   0.53963   0.38030   0.00000  Uiso   1.00
C573   C     0.87708   0.57947   0.39801   0.00000  Uiso   1.00
H574   H     0.87755   0.58593   0.43825   0.00000  Uiso   1.00
H575   H     0.84046   0.58348   0.39380   0.00000  Uiso   1.00
H576   H     0.90030   0.60291   0.37472   0.00000  Uiso   1.00
C577   C     0.16635   0.91246   0.25092   0.00000  Uiso   1.00
C578   C     0.14269   0.83237   0.48960   0.00000  Uiso   1.00
C579   C     0.15859   0.83996   0.43690   0.00000  Uiso   1.00
C580   C     0.17732   0.82674   0.01651   0.00000  Uiso   1.00
C581   C     0.22203   0.81129   0.48883   0.00000  Uiso   1.00
C582   C     0.23786   0.81978   0.43657   0.00000  Uiso   1.00
C583   C     0.20812   0.84430   0.41644   0.00000  Uiso   1.00
C584   C     0.17020   0.83754   0.06821   0.00000  Uiso   1.00
C585   C     0.23935   0.79539   0.06834   0.00000  Uiso   1.00
C586   C     0.12649   0.83477   0.40602   0.00000  Uiso   1.00
C587   C     0.18049   0.97936   0.28970   0.00000  Uiso   1.00
C588   C     0.14140   0.83405   0.34951   0.00000  Uiso   1.00
C589   C     0.17885   0.68947   0.29195   0.00000  Uiso   1.00
C590   C     0.16593   0.70983   0.25291   0.00000  Uiso   1.00
C591   C     0.15073   0.68777   0.21572   0.00000  Uiso   1.00
C592   C     0.14625   0.97819   0.21752   0.00000  Uiso   1.00
C593   C     0.16515   0.95732   0.25212   0.00000  Uiso   1.00
C594   C     0.30434   0.86648   0.26966   0.00000  Uiso   1.00
C595   C     0.01903   0.86416   0.27460   0.00000  Uiso   1.00
C596   C     0.03036   0.80288   0.22527   0.00000  Uiso   1.00
C597   C     0.31363   0.80031   0.23064   0.00000  Uiso   1.00
C598   C     0.16635   0.75439   0.25130   0.00000  Uiso   1.00
C599   C     0.19162   0.83077   0.15058   0.00000  Uiso   1.00
C600   C     0.24927   0.78978   0.01511   0.00000  Uiso   1.00
C601   C     0.20243   0.82286   0.09473   0.00000  Uiso   1.00
C602   C     0.07942   0.82338   0.42993   0.00000  Uiso   1.00
C603   C     0.06181   0.82893   0.48241   0.00000  Uiso   1.00
C604   C     0.09389   0.82448   0.01158   0.00000  Uiso   1.00
Cu605  Cu    0.11978   0.83333   0.25000   0.00000  Uiso   1.00
Cu606  Cu    0.21355   0.83334   0.25000   0.00000  Uiso   1.00
H607   H     0.14253   0.70390   0.18511   0.00000  Uiso   1.00
H608   H     0.19304   0.96267   0.31728   0.00000  Uiso   1.00
N609   N     0.04931   0.83332   0.24999   0.00000  Uiso   1.00
N610   N     0.28402   0.83335   0.25000   0.00000  Uiso   1.00
O611   O     0.12708   0.89345   0.25001   0.00000  Uiso   1.00
O612   O     0.20627   0.89346   0.25001   0.00000  Uiso   1.00
O613   O     0.10775   0.83332   0.32549   0.00000  Uiso   1.00
O614   O     0.18694   0.83333   0.32549   0.00000  Uiso   1.00
O615   O     0.12706   0.77321   0.25000   0.00000  Uiso   1.00
O616   O     0.20625   0.77322   0.25000   0.00000  Uiso   1.00
O617   O     0.14640   0.83334   0.17451   0.00000  Uiso   1.00
O618   O     0.22559   0.83335   0.17451   0.00000  Uiso   1.00
I619   I     0.27984   0.75943   0.10528   0.00000  Uiso   1.00
O620   O     0.19256   0.71289   0.32917   0.00000  Uiso   1.00
C621   C     0.17066   0.69865   0.37837   0.00000  Uiso   1.00
H622   H     0.17085   0.72422   0.40639   0.00000  Uiso   1.00
H623   H     0.19135   0.67259   0.38747   0.00000  Uiso   1.00
H624   H     0.13275   0.68965   0.38322   0.00000  Uiso   1.00
O625   O     0.12653   0.95581   0.18403   0.00000  Uiso   1.00
C626   C     0.08392   0.97464   0.17993   0.00000  Uiso   1.00
H627   H     0.06334   0.99058   0.21592   0.00000  Uiso   1.00
H628   H     0.06028   0.95038   0.17079   0.00000  Uiso   1.00
H629   H     0.09208   0.99657   0.14818   0.00000  Uiso   1.00
O630   O     0.27810   0.90220   0.28553   0.00000  Uiso   1.00
C631   C     0.29763   0.93406   0.25176   0.00000  Uiso   1.00
H632   H     0.30157   0.92439   0.21126   0.00000  Uiso   1.00
H633   H     0.27342   0.96112   0.26044   0.00000  Uiso   1.00
H634   H     0.33211   0.94502   0.25703   0.00000  Uiso   1.00
O635   O     0.03700   0.89564   0.29929   0.00000  Uiso   1.00
C636   C     0.01790   0.89260   0.35227   0.00000  Uiso   1.00
H637   H     0.03903   0.91267   0.37164   0.00000  Uiso   1.00
H638   H     0.02016   0.86056   0.36526   0.00000  Uiso   1.00
H639   H     0.31395   0.90397   0.36430   0.00000  Uiso   1.00
I640   I     0.07444   0.76229   0.17082   0.00000  Uiso   1.00
O641   O     0.29569   0.76560   0.21190   0.00000  Uiso   1.00
C642   C     0.29585   0.73210   0.24409   0.00000  Uiso   1.00
H643   H     0.33226   0.72317   0.24527   0.00000  Uiso   1.00
H644   H     0.28003   0.70478   0.22930   0.00000  Uiso   1.00
H645   H     0.27392   0.73916   0.28336   0.00000  Uiso   1.00
O646   O     0.28420   0.81167   0.40886   0.00000  Uiso   1.00
C647   C     0.28346   0.78687   0.36547   0.00000  Uiso   1.00
H648   H     0.31972   0.78571   0.33901   0.00000  Uiso   1.00
H649   H     0.26007   0.79934   0.34338   0.00000  Uiso   1.00
H650   H     0.27261   0.75473   0.37649   0.00000  Uiso   1.00
O651   O     0.28543   0.76334   0.48928   0.00000  Uiso   1.00
C652   C     0.26503   0.72488   0.48116   0.00000  Uiso   1.00
H653   H     0.23814   0.72806   0.45924   0.00000  Uiso   1.00
H654   H     0.24847   0.70983   0.01786   0.00000  Uiso   1.00
H655   H     0.29371   0.70408   0.45863   0.00000  Uiso   1.00
I656   I     0.11970   0.88603   0.09866   0.00000  Uiso   1.00
I657   I     0.05295   0.76979   0.39971   0.00000  Uiso   1.00
O658   O     0.07900   0.80278   0.05591   0.00000  Uiso   1.00
C659   C     0.08590   0.75995   0.04290   0.00000  Uiso   1.00
H660   H     0.12260   0.75051   0.04270   0.00000  Uiso   1.00
H661   H     0.07925   0.75077   0.00568   0.00000  Uiso   1.00
H662   H     0.06020   0.74182   0.07163   0.00000  Uiso   1.00
O663   O     0.01370   0.82633   0.00538   0.00000  Uiso   1.00
C664   C     0.32753   0.86616   0.00452   0.00000  Uiso   1.00
H665   H     0.32787   0.87418   0.46505   0.00000  Uiso   1.00
H666   H     0.01308   0.89032   0.02164   0.00000  Uiso   1.00
H667   H     0.28993   0.86655   0.02771   0.00000  Uiso   1.00
O668   O     0.22839   0.87296   0.38030   0.00000  Uiso   1.00
C669   C     0.21041   0.91280   0.39801   0.00000  Uiso   1.00
H670   H     0.21088   0.91926   0.43825   0.00000  Uiso   1.00
H671   H     0.17379   0.91682   0.39380   0.00000  Uiso   1.00
H672   H     0.23363   0.93624   0.37472   0.00000  Uiso   1.00
C673   C     0.49968   0.91246   0.25092   0.00000  Uiso   1.00
C674   C     0.47602   0.83237   0.48960   0.00000  Uiso   1.00
C675   C     0.49192   0.83996   0.43690   0.00000  Uiso   1.00
C676   C     0.51066   0.82674   0.01651   0.00000  Uiso   1.00
C677   C     0.55536   0.81129   0.48883   0.00000  Uiso   1.00
C678   C     0.57119   0.81978   0.43657   0.00000  Uiso   1.00
C679   C     0.54146   0.84430   0.41644   0.00000  Uiso   1.00
C680   C     0.50353   0.83754   0.06821   0.00000  Uiso   1.00
C681   C     0.57269   0.79539   0.06834   0.00000  Uiso   1.00
C682   C     0.45982   0.83477   0.40602   0.00000  Uiso   1.00
C683   C     0.51383   0.97936   0.28970   0.00000  Uiso   1.00
C684   C     0.47473   0.83405   0.34951   0.00000  Uiso   1.00
C685   C     0.51218   0.68947   0.29195   0.00000  Uiso   1.00
C686   C     0.49927   0.70983   0.25291   0.00000  Uiso   1.00
C687   C     0.48406   0.68777   0.21572   0.00000  Uiso   1.00
C688   C     0.47958   0.97819   0.21752   0.00000  Uiso   1.00
C689   C     0.49848   0.95732   0.25212   0.00000  Uiso   1.00
C690   C     0.63767   0.86648   0.26966   0.00000  Uiso   1.00
C691   C     0.35236   0.86416   0.27460   0.00000  Uiso   1.00
C692   C     0.36370   0.80288   0.22527   0.00000  Uiso   1.00
C693   C     0.64697   0.80031   0.23064   0.00000  Uiso   1.00
C694   C     0.49968   0.75439   0.25130   0.00000  Uiso   1.00
C695   C     0.52495   0.83077   0.15058   0.00000  Uiso   1.00
C696   C     0.58260   0.78978   0.01511   0.00000  Uiso   1.00
C697   C     0.53576   0.82286   0.09473   0.00000  Uiso   1.00
C698   C     0.41275   0.82338   0.42993   0.00000  Uiso   1.00
C699   C     0.39515   0.82893   0.48241   0.00000  Uiso   1.00
C700   C     0.42723   0.82448   0.01158   0.00000  Uiso   1.00
Cu701  Cu    0.45311   0.83333   0.25000   0.00000  Uiso   1.00
Cu702  Cu    0.54689   0.83334   0.25000   0.00000  Uiso   1.00
H703   H     0.47586   0.70390   0.18511   0.00000  Uiso   1.00
H704   H     0.52638   0.96267   0.31728   0.00000  Uiso   1.00
N705   N     0.38265   0.83332   0.24999   0.00000  Uiso   1.00
N706   N     0.61735   0.83335   0.25000   0.00000  Uiso   1.00
O707   O     0.46042   0.89345   0.25001   0.00000  Uiso   1.00
O708   O     0.53961   0.89346   0.25001   0.00000  Uiso   1.00
O709   O     0.44108   0.83332   0.32549   0.00000  Uiso   1.00
O710   O     0.52027   0.83333   0.32549   0.00000  Uiso   1.00
O711   O     0.46039   0.77321   0.25000   0.00000  Uiso   1.00
O712   O     0.53958   0.77322   0.25000   0.00000  Uiso   1.00
O713   O     0.47973   0.83334   0.17451   0.00000  Uiso   1.00
O714   O     0.55892   0.83335   0.17451   0.00000  Uiso   1.00
I715   I     0.61317   0.75943   0.10528   0.00000  Uiso   1.00
O716   O     0.52590   0.71289   0.32917   0.00000  Uiso   1.00
C717   C     0.50399   0.69865   0.37837   0.00000  Uiso   1.00
H718   H     0.50419   0.72422   0.40639   0.00000  Uiso   1.00
H719   H     0.52469   0.67259   0.38747   0.00000  Uiso   1.00
H720   H     0.46608   0.68965   0.38322   0.00000  Uiso   1.00
O721   O     0.45986   0.95581   0.18403   0.00000  Uiso   1.00
C722   C     0.41726   0.97464   0.17993   0.00000  Uiso   1.00
H723   H     0.39667   0.99058   0.21592   0.00000  Uiso   1.00
H724   H     0.39362   0.95038   0.17079   0.00000  Uiso   1.00
H725   H     0.42541   0.99657   0.14818   0.00000  Uiso   1.00
O726   O     0.61144   0.90220   0.28553   0.00000  Uiso   1.00
C727   C     0.63096   0.93406   0.25176   0.00000  Uiso   1.00
H728   H     0.63490   0.92439   0.21126   0.00000  Uiso   1.00
H729   H     0.60675   0.96112   0.26044   0.00000  Uiso   1.00
H730   H     0.66544   0.94502   0.25703   0.00000  Uiso   1.00
O731   O     0.37034   0.89564   0.29929   0.00000  Uiso   1.00
C732   C     0.35123   0.89260   0.35227   0.00000  Uiso   1.00
H733   H     0.37236   0.91267   0.37164   0.00000  Uiso   1.00
H734   H     0.35349   0.86056   0.36526   0.00000  Uiso   1.00
H735   H     0.64728   0.90397   0.36430   0.00000  Uiso   1.00
I736   I     0.40778   0.76229   0.17082   0.00000  Uiso   1.00
O737   O     0.62903   0.76560   0.21190   0.00000  Uiso   1.00
C738   C     0.62919   0.73210   0.24409   0.00000  Uiso   1.00
H739   H     0.66559   0.72317   0.24527   0.00000  Uiso   1.00
H740   H     0.61337   0.70478   0.22930   0.00000  Uiso   1.00
H741   H     0.60725   0.73916   0.28336   0.00000  Uiso   1.00
O742   O     0.61754   0.81167   0.40886   0.00000  Uiso   1.00
C743   C     0.61679   0.78687   0.36547   0.00000  Uiso   1.00
H744   H     0.65305   0.78571   0.33901   0.00000  Uiso   1.00
H745   H     0.59341   0.79934   0.34338   0.00000  Uiso   1.00
H746   H     0.60594   0.75473   0.37649   0.00000  Uiso   1.00
O747   O     0.61876   0.76334   0.48928   0.00000  Uiso   1.00
C748   C     0.59837   0.72488   0.48116   0.00000  Uiso   1.00
H749   H     0.57147   0.72806   0.45924   0.00000  Uiso   1.00
H750   H     0.58180   0.70983   0.01786   0.00000  Uiso   1.00
H751   H     0.62704   0.70408   0.45863   0.00000  Uiso   1.00
I752   I     0.45303   0.88603   0.09866   0.00000  Uiso   1.00
I753   I     0.38628   0.76979   0.39971   0.00000  Uiso   1.00
O754   O     0.41233   0.80278   0.05591   0.00000  Uiso   1.00
C755   C     0.41923   0.75995   0.04290   0.00000  Uiso   1.00
H756   H     0.45593   0.75051   0.04270   0.00000  Uiso   1.00
H757   H     0.41259   0.75077   0.00568   0.00000  Uiso   1.00
H758   H     0.39353   0.74182   0.07163   0.00000  Uiso   1.00
O759   O     0.34704   0.82633   0.00538   0.00000  Uiso   1.00
C760   C     0.66086   0.86616   0.00452   0.00000  Uiso   1.00
H761   H     0.66120   0.87418   0.46505   0.00000  Uiso   1.00
H762   H     0.34641   0.89032   0.02164   0.00000  Uiso   1.00
H763   H     0.62326   0.86655   0.02771   0.00000  Uiso   1.00
O764   O     0.56172   0.87296   0.38030   0.00000  Uiso   1.00
C765   C     0.54374   0.91280   0.39801   0.00000  Uiso   1.00
H766   H     0.54422   0.91926   0.43825   0.00000  Uiso   1.00
H767   H     0.50713   0.91682   0.39380   0.00000  Uiso   1.00
H768   H     0.56697   0.93624   0.37472   0.00000  Uiso   1.00
C769   C     0.83301   0.91246   0.25092   0.00000  Uiso   1.00
C770   C     0.80936   0.83237   0.48960   0.00000  Uiso   1.00
C771   C     0.82525   0.83996   0.43690   0.00000  Uiso   1.00
C772   C     0.84399   0.82674   0.01651   0.00000  Uiso   1.00
C773   C     0.88870   0.81129   0.48883   0.00000  Uiso   1.00
C774   C     0.90453   0.81978   0.43657   0.00000  Uiso   1.00
C775   C     0.87479   0.84430   0.41644   0.00000  Uiso   1.00
C776   C     0.83686   0.83754   0.06821   0.00000  Uiso   1.00
C777   C     0.90602   0.79539   0.06834   0.00000  Uiso   1.00
C778   C     0.79315   0.83477   0.40602   0.00000  Uiso   1.00
C779   C     0.84716   0.97936   0.28970   0.00000  Uiso   1.00
C780   C     0.80806   0.83405   0.34951   0.00000  Uiso   1.00
C781   C     0.84552   0.68947   0.29195   0.00000  Uiso   1.00
C782   C     0.83260   0.70983   0.25291   0.00000  Uiso   1.00
C783   C     0.81740   0.68777   0.21572   0.00000  Uiso   1.00
C784   C     0.81292   0.97819   0.21752   0.00000  Uiso   1.00
C785   C     0.83182   0.95732   0.25212   0.00000  Uiso   1.00
C786   C     0.97101   0.86648   0.26966   0.00000  Uiso   1.00
C787   C     0.68570   0.86416   0.27460   0.00000  Uiso   1.00
C788   C     0.69703   0.80288   0.22527   0.00000  Uiso   1.00
C789   C     0.98030   0.80031   0.23064   0.00000  Uiso   1.00
C790   C     0.83301   0.75439   0.25130   0.00000  Uiso   1.00
C791   C     0.85829   0.83077   0.15058   0.00000  Uiso   1.00
C792   C     0.91593   0.78978   0.01511   0.00000  Uiso   1.00
C793   C     0.86910   0.82286   0.09473   0.00000  Uiso   1.00
C794   C     0.74608   0.82338   0.42993   0.00000  Uiso   1.00
C795   C     0.72848   0.82893   0.48241   0.00000  Uiso   1.00
C796   C     0.76056   0.82448   0.01158   0.00000  Uiso   1.00
Cu797  Cu    0.78645   0.83333   0.25000   0.00000  Uiso   1.00
Cu798  Cu    0.88022   0.83334   0.25000   0.00000  Uiso   1.00
H799   H     0.80919   0.70390   0.18511   0.00000  Uiso   1.00
H800   H     0.85971   0.96267   0.31728   0.00000  Uiso   1.00
N801   N     0.71598   0.83332   0.24999   0.00000  Uiso   1.00
N802   N     0.95069   0.83335   0.25000   0.00000  Uiso   1.00
O803   O     0.79375   0.89345   0.25001   0.00000  Uiso   1.00
O804   O     0.87294   0.89346   0.25001   0.00000  Uiso   1.00
O805   O     0.77441   0.83332   0.32549   0.00000  Uiso   1.00
O806   O     0.85360   0.83333   0.32549   0.00000  Uiso   1.00
O807   O     0.79373   0.77321   0.25000   0.00000  Uiso   1.00
O808   O     0.87292   0.77322   0.25000   0.00000  Uiso   1.00
O809   O     0.81306   0.83334   0.17451   0.00000  Uiso   1.00
O810   O     0.89225   0.83335   0.17451   0.00000  Uiso   1.00
I811   I     0.94651   0.75943   0.10528   0.00000  Uiso   1.00
O812   O     0.85923   0.71289   0.32917   0.00000  Uiso   1.00
C813   C     0.83733   0.69865   0.37837   0.00000  Uiso   1.00
H814   H     0.83752   0.72422   0.40639   0.00000  Uiso   1.00
H815   H     0.85802   0.67259   0.38747   0.00000  Uiso   1.00
H816   H     0.79941   0.68965   0.38322   0.00000  Uiso   1.00
O817   O     0.79319   0.95581   0.18403   0.00000  Uiso   1.00
C818   C     0.75059   0.97464   0.17993   0.00000  Uiso   1.00
H819   H     0.73000   0.99058   0.21592   0.00000  Uiso   1.00
H820   H     0.72695   0.95038   0.17079   0.00000  Uiso   1.00
H821   H     0.75875   0.99657   0.14818   0.00000  Uiso   1.00
O822   O     0.94477   0.90220   0.28553   0.00000  Uiso   1.00
C823   C     0.96429   0.93406   0.25176   0.00000  Uiso   1.00
H824   H     0.96823   0.92439   0.21126   0.00000  Uiso   1.00
H825   H     0.94009   0.96112   0.26044   0.00000  Uiso   1.00
H826   H     0.99877   0.94502   0.25703   0.00000  Uiso   1.00
O827   O     0.70367   0.89564   0.29929   0.00000  Uiso   1.00
C828   C     0.68457   0.89260   0.35227   0.00000  Uiso   1.00
H829   H     0.70569   0.91267   0.37164   0.00000  Uiso   1.00
H830   H     0.68682   0.86056   0.36526   0.00000  Uiso   1.00
H831   H     0.98062   0.90397   0.36430   0.00000  Uiso   1.00
I832   I     0.74111   0.76229   0.17082   0.00000  Uiso   1.00
O833   O     0.96236   0.76560   0.21190   0.00000  Uiso   1.00
C834   C     0.96252   0.73210   0.24409   0.00000  Uiso   1.00
H835   H     0.99893   0.72317   0.24527   0.00000  Uiso   1.00
H836   H     0.94670   0.70478   0.22930   0.00000  Uiso   1.00
H837   H     0.94058   0.73916   0.28336   0.00000  Uiso   1.00
O838   O     0.95087   0.81167   0.40886   0.00000  Uiso   1.00
C839   C     0.95013   0.78687   0.36547   0.00000  Uiso   1.00
H840   H     0.98638   0.78571   0.33901   0.00000  Uiso   1.00
H841   H     0.92674   0.79934   0.34338   0.00000  Uiso   1.00
H842   H     0.93928   0.75473   0.37649   0.00000  Uiso   1.00
O843   O     0.95209   0.76334   0.48928   0.00000  Uiso   1.00
C844   C     0.93170   0.72488   0.48116   0.00000  Uiso   1.00
H845   H     0.90481   0.72806   0.45924   0.00000  Uiso   1.00
H846   H     0.91513   0.70983   0.01786   0.00000  Uiso   1.00
H847   H     0.96037   0.70408   0.45863   0.00000  Uiso   1.00
I848   I     0.78637   0.88603   0.09866   0.00000  Uiso   1.00
I849   I     0.71962   0.76979   0.39971   0.00000  Uiso   1.00
O850   O     0.74566   0.80278   0.05591   0.00000  Uiso   1.00
C851   C     0.75256   0.75995   0.04290   0.00000  Uiso   1.00
H852   H     0.78926   0.75051   0.04270   0.00000  Uiso   1.00
H853   H     0.74592   0.75077   0.00568   0.00000  Uiso   1.00
H854   H     0.72687   0.74182   0.07163   0.00000  Uiso   1.00
O855   O     0.68037   0.82633   0.00538   0.00000  Uiso   1.00
C856   C     0.99420   0.86616   0.00452   0.00000  Uiso   1.00
H857   H     0.99453   0.87418   0.46505   0.00000  Uiso   1.00
H858   H     0.67974   0.89032   0.02164   0.00000  Uiso   1.00
H859   H     0.95660   0.86655   0.02771   0.00000  Uiso   1.00
O860   O     0.89506   0.87296   0.38030   0.00000  Uiso   1.00
C861   C     0.87708   0.91280   0.39801   0.00000  Uiso   1.00
H862   H     0.87755   0.91926   0.43825   0.00000  Uiso   1.00
H863   H     0.84046   0.91682   0.39380   0.00000  Uiso   1.00
H864   H     0.90030   0.93624   0.37472   0.00000  Uiso   1.00
C865   C     0.16635   0.24579   0.75092   0.00000  Uiso   1.00
C866   C     0.14269   0.16571   0.98960   0.00000  Uiso   1.00
C867   C     0.15859   0.17330   0.93690   0.00000  Uiso   1.00
C868   C     0.17732   0.16007   0.51651   0.00000  Uiso   1.00
C869   C     0.22203   0.14462   0.98883   0.00000  Uiso   1.00
C870   C     0.23786   0.15311   0.93657   0.00000  Uiso   1.00
C871   C     0.20812   0.17763   0.91644   0.00000  Uiso   1.00
C872   C     0.17020   0.17087   0.56821   0.00000  Uiso   1.00
C873   C     0.23935   0.12872   0.56834   0.00000  Uiso   1.00
C874   C     0.12649   0.16810   0.90602   0.00000  Uiso   1.00
C875   C     0.18049   0.31270   0.78970   0.00000  Uiso   1.00
C876   C     0.14140   0.16738   0.84951   0.00000  Uiso   1.00
C877   C     0.17885   0.02281   0.79195   0.00000  Uiso   1.00
C878   C     0.16593   0.04316   0.75291   0.00000  Uiso   1.00
C879   C     0.15073   0.02110   0.71572   0.00000  Uiso   1.00
C880   C     0.14625   0.31152   0.71752   0.00000  Uiso   1.00
C881   C     0.16515   0.29065   0.75212   0.00000  Uiso   1.00
C882   C     0.30434   0.19981   0.76966   0.00000  Uiso   1.00
C883   C     0.01903   0.19750   0.77460   0.00000  Uiso   1.00
C884   C     0.03036   0.13621   0.72527   0.00000  Uiso   1.00
C885   C     0.31363   0.13364   0.73064   0.00000  Uiso   1.00
C886   C     0.16635   0.08773   0.75130   0.00000  Uiso   1.00
C887   C     0.19162   0.16411   0.65058   0.00000  Uiso   1.00
C888   C     0.24927   0.12312   0.51511   0.00000  Uiso   1.00
C889   C     0.20243   0.15619   0.59473   0.00000  Uiso   1.00
C890   C     0.07942   0.15671   0.92993   0.00000  Uiso   1.00
C891   C     0.06181   0.16226   0.98241   0.00000  Uiso   1.00
C892   C     0.09389   0.15781   0.51158   0.00000  Uiso   1.00
Cu893  Cu    0.11978   0.16666   0.75000   0.00000  Uiso   1.00
Cu894  Cu    0.21355   0.16667   0.75000   0.00000  Uiso   1.00
H895   H     0.14253   0.03724   0.68511   0.00000  Uiso   1.00
H896   H     0.19304   0.29601   0.81728   0.00000  Uiso   1.00
N897   N     0.04931   0.16666   0.74999   0.00000  Uiso   1.00
N898   N     0.28402   0.16669   0.75000   0.00000  Uiso   1.00
O899   O     0.12708   0.22678   0.75001   0.00000  Uiso   1.00
O900   O     0.20627   0.22679   0.75001   0.00000  Uiso   1.00
O901   O     0.10775   0.16665   0.82549   0.00000  Uiso   1.00
O902   O     0.18694   0.16666   0.82549   0.00000  Uiso   1.00
O903   O     0.12706   0.10654   0.75000   0.00000  Uiso   1.00
O904   O     0.20625   0.10655   0.75000   0.00000  Uiso   1.00
O905   O     0.14640   0.16667   0.67451   0.00000  Uiso   1.00
O906   O     0.22559   0.16668   0.67451   0.00000  Uiso   1.00
I907   I     0.27984   0.09277   0.60528   0.00000  Uiso   1.00
O908   O     0.19256   0.04622   0.82917   0.00000  Uiso   1.00
C909   C     0.17066   0.03198   0.87837   0.00000  Uiso   1.00
H910   H     0.17085   0.05756   0.90639   0.00000  Uiso   1.00
H911   H     0.19135   0.00592   0.88747   0.00000  Uiso   1.00
H912   H     0.13275   0.02298   0.88322   0.00000  Uiso   1.00
O913   O     0.12653   0.28914   0.68403   0.00000  Uiso   1.00
C914   C     0.08392   0.30797   0.67993   0.00000  Uiso   1.00
H915   H     0.06334   0.32391   0.71592   0.00000  Uiso   1.00
H916   H     0.06028   0.28371   0.67079   0.00000  Uiso   1.00
H917   H     0.09208   0.32991   0.64818   0.00000  Uiso   1.00
O918   O     0.27810   0.23553   0.78553   0.00000  Uiso   1.00
C919   C     0.29763   0.26739   0.75176   0.00000  Uiso   1.00
H920   H     0.30157   0.25773   0.71126   0.00000  Uiso   1.00
H921   H     0.27342   0.29445   0.76044   0.00000  Uiso   1.00
H922   H     0.33211   0.27835   0.75703   0.00000  Uiso   1.00
O923   O     0.03700   0.22898   0.79929   0.00000  Uiso   1.00
C924   C     0.01790   0.22593   0.85227   0.00000  Uiso   1.00
H925   H     0.03903   0.24600   0.87164   0.00000  Uiso   1.00
H926   H     0.02016   0.19390   0.86526   0.00000  Uiso   1.00
H927   H     0.31395   0.23731   0.86430   0.00000  Uiso   1.00
I928   I     0.07444   0.09563   0.67082   0.00000  Uiso   1.00
O929   O     0.29569   0.09893   0.71190   0.00000  Uiso   1.00
C930   C     0.29585   0.06543   0.74409   0.00000  Uiso   1.00
H931   H     0.33226   0.05651   0.74527   0.00000  Uiso   1.00
H932   H     0.28003   0.03812   0.72930   0.00000  Uiso   1.00
H933   H     0.27392   0.07249   0.78336   0.00000  Uiso   1.00
O934   O     0.28420   0.14500   0.90886   0.00000  Uiso   1.00
C935   C     0.28346   0.12020   0.86547   0.00000  Uiso   1.00
H936   H     0.31972   0.11904   0.83901   0.00000  Uiso   1.00
H937   H     0.26007   0.13267   0.84338   0.00000  Uiso   1.00
H938   H     0.27261   0.08806   0.87649   0.00000  Uiso   1.00
O939   O     0.28543   0.09667   0.98928   0.00000  Uiso   1.00
C940   C     0.26503   0.05822   0.98116   0.00000  Uiso   1.00
H941   H     0.23814   0.06140   0.95924   0.00000  Uiso   1.00
H942   H     0.24847   0.04317   0.51786   0.00000  Uiso   1.00
H943   H     0.29371   0.03741   0.95863   0.00000  Uiso   1.00
I944   I     0.11970   0.21936   0.59866   0.00000  Uiso   1.00
I945   I     0.05295   0.10313   0.89971   0.00000  Uiso   1.00
O946   O     0.07900   0.13611   0.55591   0.00000  Uiso   1.00
C947   C     0.08590   0.09328   0.54290   0.00000  Uiso   1.00
H948   H     0.12260   0.08385   0.54270   0.00000  Uiso   1.00
H949   H     0.07925   0.08411   0.50568   0.00000  Uiso   1.00
H950   H     0.06020   0.07516   0.57163   0.00000  Uiso   1.00
O951   O     0.01370   0.15967   0.50538   0.00000  Uiso   1.00
C952   C     0.32753   0.19949   0.50452   0.00000  Uiso   1.00
H953   H     0.32787   0.20751   0.96505   0.00000  Uiso   1.00
H954   H     0.01308   0.22366   0.52164   0.00000  Uiso   1.00
H955   H     0.28993   0.19988   0.52771   0.00000  Uiso   1.00
O956   O     0.22839   0.20630   0.88030   0.00000  Uiso   1.00
C957   C     0.21041   0.24613   0.89801   0.00000  Uiso   1.00
H958   H     0.21088   0.25260   0.93825   0.00000  Uiso   1.00
H959   H     0.17379   0.25015   0.89380   0.00000  Uiso   1.00
H960   H     0.23363   0.26957   0.87472   0.00000  Uiso   1.00
C961   C     0.49968   0.24579   0.75092   0.00000  Uiso   1.00
C962   C     0.47602   0.16571   0.98960   0.00000  Uiso   1.00
C963   C     0.49192   0.17330   0.93690   0.00000  Uiso   1.00
C964   C     0.51066   0.16007   0.51651   0.00000  Uiso   1.00
C965   C     0.55536   0.14462   0.98883   0.00000  Uiso   1.00
C966   C     0.57119   0.15311   0.93657   0.00000  Uiso   1.00
C967   C     0.54146   0.17763   0.91644   0.00000  Uiso   1.00
C968   C     0.50353   0.17087   0.56821   0.00000  Uiso   1.00
C969   C     0.57269   0.12872   0.56834   0.00000  Uiso   1.00
C970   C     0.45982   0.16810   0.90602   0.00000  Uiso   1.00
C971   C     0.51383   0.31270   0.78970   0.00000  Uiso   1.00
C972   C     0.47473   0.16738   0.84951   0.00000  Uiso   1.00
C973   C     0.51218   0.02281   0.79195   0.00000  Uiso   1.00
C974   C     0.49927   0.04316   0.75291   0.00000  Uiso   1.00
C975   C     0.48406   0.02110   0.71572   0.00000  Uiso   1.00
C976   C     0.47958   0.31152   0.71752   0.00000  Uiso   1.00
C977   C     0.49848   0.29065   0.75212   0.00000  Uiso   1.00
C978   C     0.63767   0.19981   0.76966   0.00000  Uiso   1.00
C979   C     0.35236   0.19750   0.77460   0.00000  Uiso   1.00
C980   C     0.36370   0.13621   0.72527   0.00000  Uiso   1.00
C981   C     0.64697   0.13364   0.73064   0.00000  Uiso   1.00
C982   C     0.49968   0.08773   0.75130   0.00000  Uiso   1.00
C983   C     0.52495   0.16411   0.65058   0.00000  Uiso   1.00
C984   C     0.58260   0.12312   0.51511   0.00000  Uiso   1.00
C985   C     0.53576   0.15619   0.59473   0.00000  Uiso   1.00
C986   C     0.41275   0.15671   0.92993   0.00000  Uiso   1.00
C987   C     0.39515   0.16226   0.98241   0.00000  Uiso   1.00
C988   C     0.42723   0.15781   0.51158   0.00000  Uiso   1.00
Cu989  Cu    0.45311   0.16666   0.75000   0.00000  Uiso   1.00
Cu990  Cu    0.54689   0.16667   0.75000   0.00000  Uiso   1.00
H991   H     0.47586   0.03724   0.68511   0.00000  Uiso   1.00
H992   H     0.52638   0.29601   0.81728   0.00000  Uiso   1.00
N993   N     0.38265   0.16666   0.74999   0.00000  Uiso   1.00
N994   N     0.61735   0.16669   0.75000   0.00000  Uiso   1.00
O995   O     0.46042   0.22678   0.75001   0.00000  Uiso   1.00
O996   O     0.53961   0.22679   0.75001   0.00000  Uiso   1.00
O997   O     0.44108   0.16665   0.82549   0.00000  Uiso   1.00
O998   O     0.52027   0.16666   0.82549   0.00000  Uiso   1.00
O999   O     0.46039   0.10654   0.75000   0.00000  Uiso   1.00
O1000  O     0.53958   0.10655   0.75000   0.00000  Uiso   1.00
O1001  O     0.47973   0.16667   0.67451   0.00000  Uiso   1.00
O1002  O     0.55892   0.16668   0.67451   0.00000  Uiso   1.00
I1003  I     0.61317   0.09277   0.60528   0.00000  Uiso   1.00
O1004  O     0.52590   0.04622   0.82917   0.00000  Uiso   1.00
C1005  C     0.50399   0.03198   0.87837   0.00000  Uiso   1.00
H1006  H     0.50419   0.05756   0.90639   0.00000  Uiso   1.00
H1007  H     0.52469   0.00592   0.88747   0.00000  Uiso   1.00
H1008  H     0.46608   0.02298   0.88322   0.00000  Uiso   1.00
O1009  O     0.45986   0.28914   0.68403   0.00000  Uiso   1.00
C1010  C     0.41726   0.30797   0.67993   0.00000  Uiso   1.00
H1011  H     0.39667   0.32391   0.71592   0.00000  Uiso   1.00
H1012  H     0.39362   0.28371   0.67079   0.00000  Uiso   1.00
H1013  H     0.42541   0.32991   0.64818   0.00000  Uiso   1.00
O1014  O     0.61144   0.23553   0.78553   0.00000  Uiso   1.00
C1015  C     0.63096   0.26739   0.75176   0.00000  Uiso   1.00
H1016  H     0.63490   0.25773   0.71126   0.00000  Uiso   1.00
H1017  H     0.60675   0.29445   0.76044   0.00000  Uiso   1.00
H1018  H     0.66544   0.27835   0.75703   0.00000  Uiso   1.00
O1019  O     0.37034   0.22898   0.79929   0.00000  Uiso   1.00
C1020  C     0.35123   0.22593   0.85227   0.00000  Uiso   1.00
H1021  H     0.37236   0.24600   0.87164   0.00000  Uiso   1.00
H1022  H     0.35349   0.19390   0.86526   0.00000  Uiso   1.00
H1023  H     0.64728   0.23731   0.86430   0.00000  Uiso   1.00
I1024  I     0.40778   0.09563   0.67082   0.00000  Uiso   1.00
O1025  O     0.62903   0.09893   0.71190   0.00000  Uiso   1.00
C1026  C     0.62919   0.06543   0.74409   0.00000  Uiso   1.00
H1027  H     0.66559   0.05651   0.74527   0.00000  Uiso   1.00
H1028  H     0.61337   0.03812   0.72930   0.00000  Uiso   1.00
H1029  H     0.60725   0.07249   0.78336   0.00000  Uiso   1.00
O1030  O     0.61754   0.14500   0.90886   0.00000  Uiso   1.00
C1031  C     0.61679   0.12020   0.86547   0.00000  Uiso   1.00
H1032  H     0.65305   0.11904   0.83901   0.00000  Uiso   1.00
H1033  H     0.59341   0.13267   0.84338   0.00000  Uiso   1.00
H1034  H     0.60594   0.08806   0.87649   0.00000  Uiso   1.00
O1035  O     0.61876   0.09667   0.98928   0.00000  Uiso   1.00
C1036  C     0.59837   0.05822   0.98116   0.00000  Uiso   1.00
H1037  H     0.57147   0.06140   0.95924   0.00000  Uiso   1.00
H1038  H     0.58180   0.04317   0.51786   0.00000  Uiso   1.00
H1039  H     0.62704   0.03741   0.95863   0.00000  Uiso   1.00
I1040  I     0.45303   0.21936   0.59866   0.00000  Uiso   1.00
I1041  I     0.38628   0.10313   0.89971   0.00000  Uiso   1.00
O1042  O     0.41233   0.13611   0.55591   0.00000  Uiso   1.00
C1043  C     0.41923   0.09328   0.54290   0.00000  Uiso   1.00
H1044  H     0.45593   0.08385   0.54270   0.00000  Uiso   1.00
H1045  H     0.41259   0.08411   0.50568   0.00000  Uiso   1.00
H1046  H     0.39353   0.07516   0.57163   0.00000  Uiso   1.00
O1047  O     0.34704   0.15967   0.50538   0.00000  Uiso   1.00
C1048  C     0.66086   0.19949   0.50452   0.00000  Uiso   1.00
H1049  H     0.66120   0.20751   0.96505   0.00000  Uiso   1.00
H1050  H     0.34641   0.22366   0.52164   0.00000  Uiso   1.00
H1051  H     0.62326   0.19988   0.52771   0.00000  Uiso   1.00
O1052  O     0.56172   0.20630   0.88030   0.00000  Uiso   1.00
C1053  C     0.54374   0.24613   0.89801   0.00000  Uiso   1.00
H1054  H     0.54422   0.25260   0.93825   0.00000  Uiso   1.00
H1055  H     0.50713   0.25015   0.89380   0.00000  Uiso   1.00
H1056  H     0.56697   0.26957   0.87472   0.00000  Uiso   1.00
C1057  C     0.83301   0.24579   0.75092   0.00000  Uiso   1.00
C1058  C     0.80936   0.16571   0.98960   0.00000  Uiso   1.00
C1059  C     0.82525   0.17330   0.93690   0.00000  Uiso   1.00
C1060  C     0.84399   0.16007   0.51651   0.00000  Uiso   1.00
C1061  C     0.88870   0.14462   0.98883   0.00000  Uiso   1.00
C1062  C     0.90453   0.15311   0.93657   0.00000  Uiso   1.00
C1063  C     0.87479   0.17763   0.91644   0.00000  Uiso   1.00
C1064  C     0.83686   0.17087   0.56821   0.00000  Uiso   1.00
C1065  C     0.90602   0.12872   0.56834   0.00000  Uiso   1.00
C1066  C     0.79315   0.16810   0.90602   0.00000  Uiso   1.00
C1067  C     0.84716   0.31270   0.78970   0.00000  Uiso   1.00
C1068  C     0.80806   0.16738   0.84951   0.00000  Uiso   1.00
C1069  C     0.84552   0.02281   0.79195   0.00000  Uiso   1.00
C1070  C     0.83260   0.04316   0.75291   0.00000  Uiso   1.00
C1071  C     0.81740   0.02110   0.71572   0.00000  Uiso   1.00
C1072  C     0.81292   0.31152   0.71752   0.00000  Uiso   1.00
C1073  C     0.83182   0.29065   0.75212   0.00000  Uiso   1.00
C1074  C     0.97101   0.19981   0.76966   0.00000  Uiso   1.00
C1075  C     0.68570   0.19750   0.77460   0.00000  Uiso   1.00
C1076  C     0.69703   0.13621   0.72527   0.00000  Uiso   1.00
C1077  C     0.98030   0.13364   0.73064   0.00000  Uiso   1.00
C1078  C     0.83301   0.08773   0.75130   0.00000  Uiso   1.00
C1079  C     0.85829   0.16411   0.65058   0.00000  Uiso   1.00
C1080  C     0.91593   0.12312   0.51511   0.00000  Uiso   1.00
C1081  C     0.86910   0.15619   0.59473   0.00000  Uiso   1.00
C1082  C     0.74608   0.15671   0.92993   0.00000  Uiso   1.00
C1083  C     0.72848   0.16226   0.98241   0.00000  Uiso   1.00
C1084  C     0.76056   0.15781   0.51158   0.00000  Uiso   1.00
Cu1085 Cu    0.78645   0.16666   0.75000   0.00000  Uiso   1.00
Cu1086 Cu    0.88022   0.16667   0.75000   0.00000  Uiso   1.00
H1087  H     0.80919   0.03724   0.68511   0.00000  Uiso   1.00
H1088  H     0.85971   0.29601   0.81728   0.00000  Uiso   1.00
N1089  N     0.71598   0.16666   0.74999   0.00000  Uiso   1.00
N1090  N     0.95069   0.16669   0.75000   0.00000  Uiso   1.00
O1091  O     0.79375   0.22678   0.75001   0.00000  Uiso   1.00
O1092  O     0.87294   0.22679   0.75001   0.00000  Uiso   1.00
O1093  O     0.77441   0.16665   0.82549   0.00000  Uiso   1.00
O1094  O     0.85360   0.16666   0.82549   0.00000  Uiso   1.00
O1095  O     0.79373   0.10654   0.75000   0.00000  Uiso   1.00
O1096  O     0.87292   0.10655   0.75000   0.00000  Uiso   1.00
O1097  O     0.81306   0.16667   0.67451   0.00000  Uiso   1.00
O1098  O     0.89225   0.16668   0.67451   0.00000  Uiso   1.00
I1099  I     0.94651   0.09277   0.60528   0.00000  Uiso   1.00
O1100  O     0.85923   0.04622   0.82917   0.00000  Uiso   1.00
C1101  C     0.83733   0.03198   0.87837   0.00000  Uiso   1.00
H1102  H     0.83752   0.05756   0.90639   0.00000  Uiso   1.00
H1103  H     0.85802   0.00592   0.88747   0.00000  Uiso   1.00
H1104  H     0.79941   0.02298   0.88322   0.00000  Uiso   1.00
O1105  O     0.79319   0.28914   0.68403   0.00000  Uiso   1.00
C1106  C     0.75059   0.30797   0.67993   0.00000  Uiso   1.00
H1107  H     0.73000   0.32391   0.71592   0.00000  Uiso   1.00
H1108  H     0.72695   0.28371   0.67079   0.00000  Uiso   1.00
H1109  H     0.75875   0.32991   0.64818   0.00000  Uiso   1.00
O1110  O     0.94477   0.23553   0.78553   0.00000  Uiso   1.00
C1111  C     0.96429   0.26739   0.75176   0.00000  Uiso   1.00
H1112  H     0.96823   0.25773   0.71126   0.00000  Uiso   1.00
H1113  H     0.94009   0.29445   0.76044   0.00000  Uiso   1.00
H1114  H     0.99877   0.27835   0.75703   0.00000  Uiso   1.00
O1115  O     0.70367   0.22898   0.79929   0.00000  Uiso   1.00
C1116  C     0.68457   0.22593   0.85227   0.00000  Uiso   1.00
H1117  H     0.70569   0.24600   0.87164   0.00000  Uiso   1.00
H1118  H     0.68682   0.19390   0.86526   0.00000  Uiso   1.00
H1119  H     0.98062   0.23731   0.86430   0.00000  Uiso   1.00
I1120  I     0.74111   0.09563   0.67082   0.00000  Uiso   1.00
O1121  O     0.96236   0.09893   0.71190   0.00000  Uiso   1.00
C1122  C     0.96252   0.06543   0.74409   0.00000  Uiso   1.00
H1123  H     0.99893   0.05651   0.74527   0.00000  Uiso   1.00
H1124  H     0.94670   0.03812   0.72930   0.00000  Uiso   1.00
H1125  H     0.94058   0.07249   0.78336   0.00000  Uiso   1.00
O1126  O     0.95087   0.14500   0.90886   0.00000  Uiso   1.00
C1127  C     0.95013   0.12020   0.86547   0.00000  Uiso   1.00
H1128  H     0.98638   0.11904   0.83901   0.00000  Uiso   1.00
H1129  H     0.92674   0.13267   0.84338   0.00000  Uiso   1.00
H1130  H     0.93928   0.08806   0.87649   0.00000  Uiso   1.00
O1131  O     0.95209   0.09667   0.98928   0.00000  Uiso   1.00
C1132  C     0.93170   0.05822   0.98116   0.00000  Uiso   1.00
H1133  H     0.90481   0.06140   0.95924   0.00000  Uiso   1.00
H1134  H     0.91513   0.04317   0.51786   0.00000  Uiso   1.00
H1135  H     0.96037   0.03741   0.95863   0.00000  Uiso   1.00
I1136  I     0.78637   0.21936   0.59866   0.00000  Uiso   1.00
I1137  I     0.71962   0.10313   0.89971   0.00000  Uiso   1.00
O1138  O     0.74566   0.13611   0.55591   0.00000  Uiso   1.00
C1139  C     0.75256   0.09328   0.54290   0.00000  Uiso   1.00
H1140  H     0.78926   0.08385   0.54270   0.00000  Uiso   1.00
H1141  H     0.74592   0.08411   0.50568   0.00000  Uiso   1.00
H1142  H     0.72687   0.07516   0.57163   0.00000  Uiso   1.00
O1143  O     0.68037   0.15967   0.50538   0.00000  Uiso   1.00
C1144  C     0.99420   0.19949   0.50452   0.00000  Uiso   1.00
H1145  H     0.99453   0.20751   0.96505   0.00000  Uiso   1.00
H1146  H     0.67974   0.22366   0.52164   0.00000  Uiso   1.00
H1147  H     0.95660   0.19988   0.52771   0.00000  Uiso   1.00
O1148  O     0.89506   0.20630   0.88030   0.00000  Uiso   1.00
C1149  C     0.87708   0.24613   0.89801   0.00000  Uiso   1.00
H1150  H     0.87755   0.25260   0.93825   0.00000  Uiso   1.00
H1151  H     0.84046   0.25015   0.89380   0.00000  Uiso   1.00
H1152  H     0.90030   0.26957   0.87472   0.00000  Uiso   1.00
C1153  C     0.16635   0.57912   0.75092   0.00000  Uiso   1.00
C1154  C     0.14269   0.49904   0.98960   0.00000  Uiso   1.00
C1155  C     0.15859   0.50663   0.93690   0.00000  Uiso   1.00
C1156  C     0.17732   0.49340   0.51651   0.00000  Uiso   1.00
C1157  C     0.22203   0.47795   0.98883   0.00000  Uiso   1.00
C1158  C     0.23786   0.48644   0.93657   0.00000  Uiso   1.00
C1159  C     0.20812   0.51096   0.91644   0.00000  Uiso   1.00
C1160  C     0.17020   0.50420   0.56821   0.00000  Uiso   1.00
C1161  C     0.23935   0.46206   0.56834   0.00000  Uiso   1.00
C1162  C     0.12649   0.50144   0.90602   0.00000  Uiso   1.00
C1163  C     0.18049   0.64603   0.78970   0.00000  Uiso   1.00
C1164  C     0.14140   0.50072   0.84951   0.00000  Uiso   1.00
C1165  C     0.17885   0.35614   0.79195   0.00000  Uiso   1.00
C1166  C     0.16593   0.37649   0.75291   0.00000  Uiso   1.00
C1167  C     0.15073   0.35444   0.71572   0.00000  Uiso   1.00
C1168  C     0.14625   0.64486   0.71752   0.00000  Uiso   1.00
C1169  C     0.16515   0.62399   0.75212   0.00000  Uiso   1.00
C1170  C     0.30434   0.53314   0.76966   0.00000  Uiso   1.00
C1171  C     0.01903   0.53083   0.77460   0.00000  Uiso   1.00
C1172  C     0.03036   0.46954   0.72527   0.00000  Uiso   1.00
C1173  C     0.31363   0.46698   0.73064   0.00000  Uiso   1.00
C1174  C     0.16635   0.42106   0.75130   0.00000  Uiso   1.00
C1175  C     0.19162   0.49744   0.65058   0.00000  Uiso   1.00
C1176  C     0.24927   0.45645   0.51511   0.00000  Uiso   1.00
C1177  C     0.20243   0.48953   0.59473   0.00000  Uiso   1.00
C1178  C     0.07942   0.49004   0.92993   0.00000  Uiso   1.00
C1179  C     0.06181   0.49560   0.98241   0.00000  Uiso   1.00
C1180  C     0.09389   0.49115   0.51158   0.00000  Uiso   1.00
Cu1181 Cu    0.11978   0.49999   0.75000   0.00000  Uiso   1.00
Cu1182 Cu    0.21355   0.50001   0.75000   0.00000  Uiso   1.00
H1183  H     0.14253   0.37057   0.68511   0.00000  Uiso   1.00
H1184  H     0.19304   0.62934   0.81728   0.00000  Uiso   1.00
N1185  N     0.04931   0.49999   0.74999   0.00000  Uiso   1.00
N1186  N     0.28402   0.50002   0.75000   0.00000  Uiso   1.00
O1187  O     0.12708   0.56011   0.75001   0.00000  Uiso   1.00
O1188  O     0.20627   0.56012   0.75001   0.00000  Uiso   1.00
O1189  O     0.10775   0.49998   0.82549   0.00000  Uiso   1.00
O1190  O     0.18694   0.49999   0.82549   0.00000  Uiso   1.00
O1191  O     0.12706   0.43988   0.75000   0.00000  Uiso   1.00
O1192  O     0.20625   0.43989   0.75000   0.00000  Uiso   1.00
O1193  O     0.14640   0.50001   0.67451   0.00000  Uiso   1.00
O1194  O     0.22559   0.50002   0.67451   0.00000  Uiso   1.00
I1195  I     0.27984   0.42610   0.60528   0.00000  Uiso   1.00
O1196  O     0.19256   0.37955   0.82917   0.00000  Uiso   1.00
C1197  C     0.17066   0.36532   0.87837   0.00000  Uiso   1.00
H1198  H     0.17085   0.39089   0.90639   0.00000  Uiso   1.00
H1199  H     0.19135   0.33925   0.88747   0.00000  Uiso   1.00
H1200  H     0.13275   0.35631   0.88322   0.00000  Uiso   1.00
O1201  O     0.12653   0.62248   0.68403   0.00000  Uiso   1.00
C1202  C     0.08392   0.64131   0.67993   0.00000  Uiso   1.00
H1203  H     0.06334   0.65725   0.71592   0.00000  Uiso   1.00
H1204  H     0.06028   0.61705   0.67079   0.00000  Uiso   1.00
H1205  H     0.09208   0.66324   0.64818   0.00000  Uiso   1.00
O1206  O     0.27810   0.56886   0.78553   0.00000  Uiso   1.00
C1207  C     0.29763   0.60072   0.75176   0.00000  Uiso   1.00
H1208  H     0.30157   0.59106   0.71126   0.00000  Uiso   1.00
H1209  H     0.27342   0.62779   0.76044   0.00000  Uiso   1.00
H1210  H     0.33211   0.61169   0.75703   0.00000  Uiso   1.00
O1211  O     0.03700   0.56231   0.79929   0.00000  Uiso   1.00
C1212  C     0.01790   0.55926   0.85227   0.00000  Uiso   1.00
H1213  H     0.03903   0.57934   0.87164   0.00000  Uiso   1.00
H1214  H     0.02016   0.52723   0.86526   0.00000  Uiso   1.00
H1215  H     0.31395   0.57064   0.86430   0.00000  Uiso   1.00
I1216  I     0.07444   0.42896   0.67082   0.00000  Uiso   1.00
O1217  O     0.29569   0.43227   0.71190   0.00000  Uiso   1.00
C1218  C     0.29585   0.39877   0.74409   0.00000  Uiso   1.00
H1219  H     0.33226   0.38984   0.74527   0.00000  Uiso   1.00
H1220  H     0.28003   0.37145   0.72930   0.00000  Uiso   1.00
H1221  H     0.27392   0.40583   0.78336   0.00000  Uiso   1.00
O1222  O     0.28420   0.47834   0.90886   0.00000  Uiso   1.00
C1223  C     0.28346   0.45354   0.86547   0.00000  Uiso   1.00
H1224  H     0.31972   0.45237   0.83901   0.00000  Uiso   1.00
H1225  H     0.26007   0.46601   0.84338   0.00000  Uiso   1.00
H1226  H     0.27261   0.42139   0.87649   0.00000  Uiso   1.00
O1227  O     0.28543   0.43000   0.98928   0.00000  Uiso   1.00
C1228  C     0.26503   0.39155   0.98116   0.00000  Uiso   1.00
H1229  H     0.23814   0.39473   0.95924   0.00000  Uiso   1.00
H1230  H     0.24847   0.37650   0.51786   0.00000  Uiso   1.00
H1231  H     0.29371   0.37075   0.95863   0.00000  Uiso   1.00
I1232  I     0.11970   0.55270   0.59866   0.00000  Uiso   1.00
I1233  I     0.05295   0.43646   0.89971   0.00000  Uiso   1.00
O1234  O     0.07900   0.46945   0.55591   0.00000  Uiso   1.00
C1235  C     0.08590   0.42661   0.54290   0.00000  Uiso   1.00
H1236  H     0.12260   0.41718   0.54270   0.00000  Uiso   1.00
H1237  H     0.07925   0.41744   0.50568   0.00000  Uiso   1.00
H1238  H     0.06020   0.40849   0.57163   0.00000  Uiso   1.00
O1239  O     0.01370   0.49300   0.50538   0.00000  Uiso   1.00
C1240  C     0.32753   0.53282   0.50452   0.00000  Uiso   1.00
H1241  H     0.32787   0.54085   0.96505   0.00000  Uiso   1.00
H1242  H     0.01308   0.55699   0.52164   0.00000  Uiso   1.00
H1243  H     0.28993   0.53322   0.52771   0.00000  Uiso   1.00
O1244  O     0.22839   0.53963   0.88030   0.00000  Uiso   1.00
C1245  C     0.21041   0.57947   0.89801   0.00000  Uiso   1.00
H1246  H     0.21088   0.58593   0.93825   0.00000  Uiso   1.00
H1247  H     0.17379   0.58348   0.89380   0.00000  Uiso   1.00
H1248  H     0.23363   0.60291   0.87472   0.00000  Uiso   1.00
C1249  C     0.49968   0.57912   0.75092   0.00000  Uiso   1.00
C1250  C     0.47602   0.49904   0.98960   0.00000  Uiso   1.00
C1251  C     0.49192   0.50663   0.93690   0.00000  Uiso   1.00
C1252  C     0.51066   0.49340   0.51651   0.00000  Uiso   1.00
C1253  C     0.55536   0.47795   0.98883   0.00000  Uiso   1.00
C1254  C     0.57119   0.48644   0.93657   0.00000  Uiso   1.00
C1255  C     0.54146   0.51096   0.91644   0.00000  Uiso   1.00
C1256  C     0.50353   0.50420   0.56821   0.00000  Uiso   1.00
C1257  C     0.57269   0.46206   0.56834   0.00000  Uiso   1.00
C1258  C     0.45982   0.50144   0.90602   0.00000  Uiso   1.00
C1259  C     0.51383   0.64603   0.78970   0.00000  Uiso   1.00
C1260  C     0.47473   0.50072   0.84951   0.00000  Uiso   1.00
C1261  C     0.51218   0.35614   0.79195   0.00000  Uiso   1.00
C1262  C     0.49927   0.37649   0.75291   0.00000  Uiso   1.00
C1263  C     0.48406   0.35444   0.71572   0.00000  Uiso   1.00
C1264  C     0.47958   0.64486   0.71752   0.00000  Uiso   1.00
C1265  C     0.49848   0.62399   0.75212   0.00000  Uiso   1.00
C1266  C     0.63767   0.53314   0.76966   0.00000  Uiso   1.00
C1267  C     0.35236   0.53083   0.77460   0.00000  Uiso   1.00
C1268  C     0.36370   0.46954   0.72527   0.00000  Uiso   1.00
C1269  C     0.64697   0.46698   0.73064   0.00000  Uiso   1.00
C1270  C     0.49968   0.42106   0.75130   0.00000  Uiso   1.00
C1271  C     0.52495   0.49744   0.65058   0.00000  Uiso   1.00
C1272  C     0.58260   0.45645   0.51511   0.00000  Uiso   1.00
C1273  C     0.53576   0.48953   0.59473   0.00000  Uiso   1.00
C1274  C     0.41275   0.49004   0.92993   0.00000  Uiso   1.00
C1275  C     0.39515   0.49560   0.98241   0.00000  Uiso   1.00
C1276  C     0.42723   0.49115   0.51158   0.00000  Uiso   1.00
Cu1277 Cu    0.45311   0.49999   0.75000   0.00000  Uiso   1.00
Cu1278 Cu    0.54689   0.50001   0.75000   0.00000  Uiso   1.00
H1279  H     0.47586   0.37057   0.68511   0.00000  Uiso   1.00
H1280  H     0.52638   0.62934   0.81728   0.00000  Uiso   1.00
N1281  N     0.38265   0.49999   0.74999   0.00000  Uiso   1.00
N1282  N     0.61735   0.50002   0.75000   0.00000  Uiso   1.00
O1283  O     0.46042   0.56011   0.75001   0.00000  Uiso   1.00
O1284  O     0.53961   0.56012   0.75001   0.00000  Uiso   1.00
O1285  O     0.44108   0.49998   0.82549   0.00000  Uiso   1.00
O1286  O     0.52027   0.49999   0.82549   0.00000  Uiso   1.00
O1287  O     0.46039   0.43988   0.75000   0.00000  Uiso   1.00
O1288  O     0.53958   0.43989   0.75000   0.00000  Uiso   1.00
O1289  O     0.47973   0.50001   0.67451   0.00000  Uiso   1.00
O1290  O     0.55892   0.50002   0.67451   0.00000  Uiso   1.00
I1291  I     0.61317   0.42610   0.60528   0.00000  Uiso   1.00
O1292  O     0.52590   0.37955   0.82917   0.00000  Uiso   1.00
C1293  C     0.50399   0.36532   0.87837   0.00000  Uiso   1.00
H1294  H     0.50419   0.39089   0.90639   0.00000  Uiso   1.00
H1295  H     0.52469   0.33925   0.88747   0.00000  Uiso   1.00
H1296  H     0.46608   0.35631   0.88322   0.00000  Uiso   1.00
O1297  O     0.45986   0.62248   0.68403   0.00000  Uiso   1.00
C1298  C     0.41726   0.64131   0.67993   0.00000  Uiso   1.00
H1299  H     0.39667   0.65725   0.71592   0.00000  Uiso   1.00
H1300  H     0.39362   0.61705   0.67079   0.00000  Uiso   1.00
H1301  H     0.42541   0.66324   0.64818   0.00000  Uiso   1.00
O1302  O     0.61144   0.56886   0.78553   0.00000  Uiso   1.00
C1303  C     0.63096   0.60072   0.75176   0.00000  Uiso   1.00
H1304  H     0.63490   0.59106   0.71126   0.00000  Uiso   1.00
H1305  H     0.60675   0.62779   0.76044   0.00000  Uiso   1.00
H1306  H     0.66544   0.61169   0.75703   0.00000  Uiso   1.00
O1307  O     0.37034   0.56231   0.79929   0.00000  Uiso   1.00
C1308  C     0.35123   0.55926   0.85227   0.00000  Uiso   1.00
H1309  H     0.37236   0.57934   0.87164   0.00000  Uiso   1.00
H1310  H     0.35349   0.52723   0.86526   0.00000  Uiso   1.00
H1311  H     0.64728   0.57064   0.86430   0.00000  Uiso   1.00
I1312  I     0.40778   0.42896   0.67082   0.00000  Uiso   1.00
O1313  O     0.62903   0.43227   0.71190   0.00000  Uiso   1.00
C1314  C     0.62919   0.39877   0.74409   0.00000  Uiso   1.00
H1315  H     0.66559   0.38984   0.74527   0.00000  Uiso   1.00
H1316  H     0.61337   0.37145   0.72930   0.00000  Uiso   1.00
H1317  H     0.60725   0.40583   0.78336   0.00000  Uiso   1.00
O1318  O     0.61754   0.47834   0.90886   0.00000  Uiso   1.00
C1319  C     0.61679   0.45354   0.86547   0.00000  Uiso   1.00
H1320  H     0.65305   0.45237   0.83901   0.00000  Uiso   1.00
H1321  H     0.59341   0.46601   0.84338   0.00000  Uiso   1.00
H1322  H     0.60594   0.42139   0.87649   0.00000  Uiso   1.00
O1323  O     0.61876   0.43000   0.98928   0.00000  Uiso   1.00
C1324  C     0.59837   0.39155   0.98116   0.00000  Uiso   1.00
H1325  H     0.57147   0.39473   0.95924   0.00000  Uiso   1.00
H1326  H     0.58180   0.37650   0.51786   0.00000  Uiso   1.00
H1327  H     0.62704   0.37075   0.95863   0.00000  Uiso   1.00
I1328  I     0.45303   0.55270   0.59866   0.00000  Uiso   1.00
I1329  I     0.38628   0.43646   0.89971   0.00000  Uiso   1.00
O1330  O     0.41233   0.46945   0.55591   0.00000  Uiso   1.00
C1331  C     0.41923   0.42661   0.54290   0.00000  Uiso   1.00
H1332  H     0.45593   0.41718   0.54270   0.00000  Uiso   1.00
H1333  H     0.41259   0.41744   0.50568   0.00000  Uiso   1.00
H1334  H     0.39353   0.40849   0.57163   0.00000  Uiso   1.00
O1335  O     0.34704   0.49300   0.50538   0.00000  Uiso   1.00
C1336  C     0.66086   0.53282   0.50452   0.00000  Uiso   1.00
H1337  H     0.66120   0.54085   0.96505   0.00000  Uiso   1.00
H1338  H     0.34641   0.55699   0.52164   0.00000  Uiso   1.00
H1339  H     0.62326   0.53322   0.52771   0.00000  Uiso   1.00
O1340  O     0.56172   0.53963   0.88030   0.00000  Uiso   1.00
C1341  C     0.54374   0.57947   0.89801   0.00000  Uiso   1.00
H1342  H     0.54422   0.58593   0.93825   0.00000  Uiso   1.00
H1343  H     0.50713   0.58348   0.89380   0.00000  Uiso   1.00
H1344  H     0.56697   0.60291   0.87472   0.00000  Uiso   1.00
C1345  C     0.83301   0.57912   0.75092   0.00000  Uiso   1.00
C1346  C     0.80936   0.49904   0.98960   0.00000  Uiso   1.00
C1347  C     0.82525   0.50663   0.93690   0.00000  Uiso   1.00
C1348  C     0.84399   0.49340   0.51651   0.00000  Uiso   1.00
C1349  C     0.88870   0.47795   0.98883   0.00000  Uiso   1.00
C1350  C     0.90453   0.48644   0.93657   0.00000  Uiso   1.00
C1351  C     0.87479   0.51096   0.91644   0.00000  Uiso   1.00
C1352  C     0.83686   0.50420   0.56821   0.00000  Uiso   1.00
C1353  C     0.90602   0.46206   0.56834   0.00000  Uiso   1.00
C1354  C     0.79315   0.50144   0.90602   0.00000  Uiso   1.00
C1355  C     0.84716   0.64603   0.78970   0.00000  Uiso   1.00
C1356  C     0.80806   0.50072   0.84951   0.00000  Uiso   1.00
C1357  C     0.84552   0.35614   0.79195   0.00000  Uiso   1.00
C1358  C     0.83260   0.37649   0.75291   0.00000  Uiso   1.00
C1359  C     0.81740   0.35444   0.71572   0.00000  Uiso   1.00
C1360  C     0.81292   0.64486   0.71752   0.00000  Uiso   1.00
C1361  C     0.83182   0.62399   0.75212   0.00000  Uiso   1.00
C1362  C     0.97101   0.53314   0.76966   0.00000  Uiso   1.00
C1363  C     0.68570   0.53083   0.77460   0.00000  Uiso   1.00
C1364  C     0.69703   0.46954   0.72527   0.00000  Uiso   1.00
C1365  C     0.98030   0.46698   0.73064   0.00000  Uiso   1.00
C1366  C     0.83301   0.42106   0.75130   0.00000  Uiso   1.00
C1367  C     0.85829   0.49744   0.65058   0.00000  Uiso   1.00
C1368  C     0.91593   0.45645   0.51511   0.00000  Uiso   1.00
C1369  C     0.86910   0.48953   0.59473   0.00000  Uiso   1.00
C1370  C     0.74608   0.49004   0.92993   0.00000  Uiso   1.00
C1371  C     0.72848   0.49560   0.98241   0.00000  Uiso   1.00
C1372  C     0.76056   0.49115   0.51158   0.00000  Uiso   1.00
Cu1373 Cu    0.78645   0.49999   0.75000   0.00000  Uiso   1.00
Cu1374 Cu    0.88022   0.50001   0.75000   0.00000  Uiso   1.00
H1375  H     0.80919   0.37057   0.68511   0.00000  Uiso   1.00
H1376  H     0.85971   0.62934   0.81728   0.00000  Uiso   1.00
N1377  N     0.71598   0.49999   0.74999   0.00000  Uiso   1.00
N1378  N     0.95069   0.50002   0.75000   0.00000  Uiso   1.00
O1379  O     0.79375   0.56011   0.75001   0.00000  Uiso   1.00
O1380  O     0.87294   0.56012   0.75001   0.00000  Uiso   1.00
O1381  O     0.77441   0.49998   0.82549   0.00000  Uiso   1.00
O1382  O     0.85360   0.49999   0.82549   0.00000  Uiso   1.00
O1383  O     0.79373   0.43988   0.75000   0.00000  Uiso   1.00
O1384  O     0.87292   0.43989   0.75000   0.00000  Uiso   1.00
O1385  O     0.81306   0.50001   0.67451   0.00000  Uiso   1.00
O1386  O     0.89225   0.50002   0.67451   0.00000  Uiso   1.00
I1387  I     0.94651   0.42610   0.60528   0.00000  Uiso   1.00
O1388  O     0.85923   0.37955   0.82917   0.00000  Uiso   1.00
C1389  C     0.83733   0.36532   0.87837   0.00000  Uiso   1.00
H1390  H     0.83752   0.39089   0.90639   0.00000  Uiso   1.00
H1391  H     0.85802   0.33925   0.88747   0.00000  Uiso   1.00
H1392  H     0.79941   0.35631   0.88322   0.00000  Uiso   1.00
O1393  O     0.79319   0.62248   0.68403   0.00000  Uiso   1.00
C1394  C     0.75059   0.64131   0.67993   0.00000  Uiso   1.00
H1395  H     0.73000   0.65725   0.71592   0.00000  Uiso   1.00
H1396  H     0.72695   0.61705   0.67079   0.00000  Uiso   1.00
H1397  H     0.75875   0.66324   0.64818   0.00000  Uiso   1.00
O1398  O     0.94477   0.56886   0.78553   0.00000  Uiso   1.00
C1399  C     0.96429   0.60072   0.75176   0.00000  Uiso   1.00
H1400  H     0.96823   0.59106   0.71126   0.00000  Uiso   1.00
H1401  H     0.94009   0.62779   0.76044   0.00000  Uiso   1.00
H1402  H     0.99877   0.61169   0.75703   0.00000  Uiso   1.00
O1403  O     0.70367   0.56231   0.79929   0.00000  Uiso   1.00
C1404  C     0.68457   0.55926   0.85227   0.00000  Uiso   1.00
H1405  H     0.70569   0.57934   0.87164   0.00000  Uiso   1.00
H1406  H     0.68682   0.52723   0.86526   0.00000  Uiso   1.00
H1407  H     0.98062   0.57064   0.86430   0.00000  Uiso   1.00
I1408  I     0.74111   0.42896   0.67082   0.00000  Uiso   1.00
O1409  O     0.96236   0.43227   0.71190   0.00000  Uiso   1.00
C1410  C     0.96252   0.39877   0.74409   0.00000  Uiso   1.00
H1411  H     0.99893   0.38984   0.74527   0.00000  Uiso   1.00
H1412  H     0.94670   0.37145   0.72930   0.00000  Uiso   1.00
H1413  H     0.94058   0.40583   0.78336   0.00000  Uiso   1.00
O1414  O     0.95087   0.47834   0.90886   0.00000  Uiso   1.00
C1415  C     0.95013   0.45354   0.86547   0.00000  Uiso   1.00
H1416  H     0.98638   0.45237   0.83901   0.00000  Uiso   1.00
H1417  H     0.92674   0.46601   0.84338   0.00000  Uiso   1.00
H1418  H     0.93928   0.42139   0.87649   0.00000  Uiso   1.00
O1419  O     0.95209   0.43000   0.98928   0.00000  Uiso   1.00
C1420  C     0.93170   0.39155   0.98116   0.00000  Uiso   1.00
H1421  H     0.90481   0.39473   0.95924   0.00000  Uiso   1.00
H1422  H     0.91513   0.37650   0.51786   0.00000  Uiso   1.00
H1423  H     0.96037   0.37075   0.95863   0.00000  Uiso   1.00
I1424  I     0.78637   0.55270   0.59866   0.00000  Uiso   1.00
I1425  I     0.71962   0.43646   0.89971   0.00000  Uiso   1.00
O1426  O     0.74566   0.46945   0.55591   0.00000  Uiso   1.00
C1427  C     0.75256   0.42661   0.54290   0.00000  Uiso   1.00
H1428  H     0.78926   0.41718   0.54270   0.00000  Uiso   1.00
H1429  H     0.74592   0.41744   0.50568   0.00000  Uiso   1.00
H1430  H     0.72687   0.40849   0.57163   0.00000  Uiso   1.00
O1431  O     0.68037   0.49300   0.50538   0.00000  Uiso   1.00
C1432  C     0.99420   0.53282   0.50452   0.00000  Uiso   1.00
H1433  H     0.99453   0.54085   0.96505   0.00000  Uiso   1.00
H1434  H     0.67974   0.55699   0.52164   0.00000  Uiso   1.00
H1435  H     0.95660   0.53322   0.52771   0.00000  Uiso   1.00
O1436  O     0.89506   0.53963   0.88030   0.00000  Uiso   1.00
C1437  C     0.87708   0.57947   0.89801   0.00000  Uiso   1.00
H1438  H     0.87755   0.58593   0.93825   0.00000  Uiso   1.00
H1439  H     0.84046   0.58348   0.89380   0.00000  Uiso   1.00
H1440  H     0.90030   0.60291   0.87472   0.00000  Uiso   1.00
C1441  C     0.16635   0.91246   0.75092   0.00000  Uiso   1.00
C1442  C     0.14269   0.83237   0.98960   0.00000  Uiso   1.00
C1443  C     0.15859   0.83996   0.93690   0.00000  Uiso   1.00
C1444  C     0.17732   0.82674   0.51651   0.00000  Uiso   1.00
C1445  C     0.22203   0.81129   0.98883   0.00000  Uiso   1.00
C1446  C     0.23786   0.81978   0.93657   0.00000  Uiso   1.00
C1447  C     0.20812   0.84430   0.91644   0.00000  Uiso   1.00
C1448  C     0.17020   0.83754   0.56821   0.00000  Uiso   1.00
C1449  C     0.23935   0.79539   0.56834   0.00000  Uiso   1.00
C1450  C     0.12649   0.83477   0.90602   0.00000  Uiso   1.00
C1451  C     0.18049   0.97936   0.78970   0.00000  Uiso   1.00
C1452  C     0.14140   0.83405   0.84951   0.00000  Uiso   1.00
C1453  C     0.17885   0.68947   0.79195   0.00000  Uiso   1.00
C1454  C     0.16593   0.70983   0.75291   0.00000  Uiso   1.00
C1455  C     0.15073   0.68777   0.71572   0.00000  Uiso   1.00
C1456  C     0.14625   0.97819   0.71752   0.00000  Uiso   1.00
C1457  C     0.16515   0.95732   0.75212   0.00000  Uiso   1.00
C1458  C     0.30434   0.86648   0.76966   0.00000  Uiso   1.00
C1459  C     0.01903   0.86416   0.77460   0.00000  Uiso   1.00
C1460  C     0.03036   0.80288   0.72527   0.00000  Uiso   1.00
C1461  C     0.31363   0.80031   0.73064   0.00000  Uiso   1.00
C1462  C     0.16635   0.75439   0.75130   0.00000  Uiso   1.00
C1463  C     0.19162   0.83077   0.65058   0.00000  Uiso   1.00
C1464  C     0.24927   0.78978   0.51511   0.00000  Uiso   1.00
C1465  C     0.20243   0.82286   0.59473   0.00000  Uiso   1.00
C1466  C     0.07942   0.82338   0.92993   0.00000  Uiso   1.00
C1467  C     0.06181   0.82893   0.98241   0.00000  Uiso   1.00
C1468  C     0.09389   0.82448   0.51158   0.00000  Uiso   1.00
Cu1469 Cu    0.11978   0.83333   0.75000   0.00000  Uiso   1.00
Cu1470 Cu    0.21355   0.83334   0.75000   0.00000  Uiso   1.00
H1471  H     0.14253   0.70390   0.68511   0.00000  Uiso   1.00
H1472  H     0.19304   0.96267   0.81728   0.00000  Uiso   1.00
N1473  N     0.04931   0.83332   0.74999   0.00000  Uiso   1.00
N1474  N     0.28402   0.83335   0.75000   0.00000  Uiso   1.00
O1475  O     0.12708   0.89345   0.75001   0.00000  Uiso   1.00
O1476  O     0.20627   0.89346   0.75001   0.00000  Uiso   1.00
O1477  O     0.10775   0.83332   0.82549   0.00000  Uiso   1.00
O1478  O     0.18694   0.83333   0.82549   0.00000  Uiso   1.00
O1479  O     0.12706   0.77321   0.75000   0.00000  Uiso   1.00
O1480  O     0.20625   0.77322   0.75000   0.00000  Uiso   1.00
O1481  O     0.14640   0.83334   0.67451   0.00000  Uiso   1.00
O1482  O     0.22559   0.83335   0.67451   0.00000  Uiso   1.00
I1483  I     0.27984   0.75943   0.60528   0.00000  Uiso   1.00
O1484  O     0.19256   0.71289   0.82917   0.00000  Uiso   1.00
C1485  C     0.17066   0.69865   0.87837   0.00000  Uiso   1.00
H1486  H     0.17085   0.72422   0.90639   0.00000  Uiso   1.00
H1487  H     0.19135   0.67259   0.88747   0.00000  Uiso   1.00
H1488  H     0.13275   0.68965   0.88322   0.00000  Uiso   1.00
O1489  O     0.12653   0.95581   0.68403   0.00000  Uiso   1.00
C1490  C     0.08392   0.97464   0.67993   0.00000  Uiso   1.00
H1491  H     0.06334   0.99058   0.71592   0.00000  Uiso   1.00
H1492  H     0.06028   0.95038   0.67079   0.00000  Uiso   1.00
H1493  H     0.09208   0.99657   0.64818   0.00000  Uiso   1.00
O1494  O     0.27810   0.90220   0.78553   0.00000  Uiso   1.00
C1495  C     0.29763   0.93406   0.75176   0.00000  Uiso   1.00
H1496  H     0.30157   0.92439   0.71126   0.00000  Uiso   1.00
H1497  H     0.27342   0.96112   0.76044   0.00000  Uiso   1.00
H1498  H     0.33211   0.94502   0.75703   0.00000  Uiso   1.00
O1499  O     0.03700   0.89564   0.79929   0.00000  Uiso   1.00
C1500  C     0.01790   0.89260   0.85227   0.00000  Uiso   1.00
H1501  H     0.03903   0.91267   0.87164   0.00000  Uiso   1.00
H1502  H     0.02016   0.86056   0.86526   0.00000  Uiso   1.00
H1503  H     0.31395   0.90397   0.86430   0.00000  Uiso   1.00
I1504  I     0.07444   0.76229   0.67082   0.00000  Uiso   1.00
O1505  O     0.29569   0.76560   0.71190   0.00000  Uiso   1.00
C1506  C     0.29585   0.73210   0.74409   0.00000  Uiso   1.00
H1507  H     0.33226   0.72317   0.74527   0.00000  Uiso   1.00
H1508  H     0.28003   0.70478   0.72930   0.00000  Uiso   1.00
H1509  H     0.27392   0.73916   0.78336   0.00000  Uiso   1.00
O1510  O     0.28420   0.81167   0.90886   0.00000  Uiso   1.00
C1511  C     0.28346   0.78687   0.86547   0.00000  Uiso   1.00
H1512  H     0.31972   0.78571   0.83901   0.00000  Uiso   1.00
H1513  H     0.26007   0.79934   0.84338   0.00000  Uiso   1.00
H1514  H     0.27261   0.75473   0.87649   0.00000  Uiso   1.00
O1515  O     0.28543   0.76334   0.98928   0.00000  Uiso   1.00
C1516  C     0.26503   0.72488   0.98116   0.00000  Uiso   1.00
H1517  H     0.23814   0.72806   0.95924   0.00000  Uiso   1.00
H1518  H     0.24847   0.70983   0.51786   0.00000  Uiso   1.00
H1519  H     0.29371   0.70408   0.95863   0.00000  Uiso   1.00
I1520  I     0.11970   0.88603   0.59866   0.00000  Uiso   1.00
I1521  I     0.05295   0.76979   0.89971   0.00000  Uiso   1.00
O1522  O     0.07900   0.80278   0.55591   0.00000  Uiso   1.00
C1523  C     0.08590   0.75995   0.54290   0.00000  Uiso   1.00
H1524  H     0.12260   0.75051   0.54270   0.00000  Uiso   1.00
H1525  H     0.07925   0.75077   0.50568   0.00000  Uiso   1.00
H1526  H     0.06020   0.74182   0.57163   0.00000  Uiso   1.00
O1527  O     0.01370   0.82633   0.50538   0.00000  Uiso   1.00
C1528  C     0.32753   0.86616   0.50452   0.00000  Uiso   1.00
H1529  H     0.32787   0.87418   0.96505   0.00000  Uiso   1.00
H1530  H     0.01308   0.89032   0.52164   0.00000  Uiso   1.00
H1531  H     0.28993   0.86655   0.52771   0.00000  Uiso   1.00
O1532  O     0.22839   0.87296   0.88030   0.00000  Uiso   1.00
C1533  C     0.21041   0.91280   0.89801   0.00000  Uiso   1.00
H1534  H     0.21088   0.91926   0.93825   0.00000  Uiso   1.00
H1535  H     0.17379   0.91682   0.89380   0.00000  Uiso   1.00
H1536  H     0.23363   0.93624   0.87472   0.00000  Uiso   1.00
C1537  C     0.49968   0.91246   0.75092   0.00000  Uiso   1.00
C1538  C     0.47602   0.83237   0.98960   0.00000  Uiso   1.00
C1539  C     0.49192   0.83996   0.93690   0.00000  Uiso   1.00
C1540  C     0.51066   0.82674   0.51651   0.00000  Uiso   1.00
C1541  C     0.55536   0.81129   0.98883   0.00000  Uiso   1.00
C1542  C     0.57119   0.81978   0.93657   0.00000  Uiso   1.00
C1543  C     0.54146   0.84430   0.91644   0.00000  Uiso   1.00
C1544  C     0.50353   0.83754   0.56821   0.00000  Uiso   1.00
C1545  C     0.57269   0.79539   0.56834   0.00000  Uiso   1.00
C1546  C     0.45982   0.83477   0.90602   0.00000  Uiso   1.00
C1547  C     0.51383   0.97936   0.78970   0.00000  Uiso   1.00
C1548  C     0.47473   0.83405   0.84951   0.00000  Uiso   1.00
C1549  C     0.51218   0.68947   0.79195   0.00000  Uiso   1.00
C1550  C     0.49927   0.70983   0.75291   0.00000  Uiso   1.00
C1551  C     0.48406   0.68777   0.71572   0.00000  Uiso   1.00
C1552  C     0.47958   0.97819   0.71752   0.00000  Uiso   1.00
C1553  C     0.49848   0.95732   0.75212   0.00000  Uiso   1.00
C1554  C     0.63767   0.86648   0.76966   0.00000  Uiso   1.00
C1555  C     0.35236   0.86416   0.77460   0.00000  Uiso   1.00
C1556  C     0.36370   0.80288   0.72527   0.00000  Uiso   1.00
C1557  C     0.64697   0.80031   0.73064   0.00000  Uiso   1.00
C1558  C     0.49968   0.75439   0.75130   0.00000  Uiso   1.00
C1559  C     0.52495   0.83077   0.65058   0.00000  Uiso   1.00
C1560  C     0.58260   0.78978   0.51511   0.00000  Uiso   1.00
C1561  C     0.53576   0.82286   0.59473   0.00000  Uiso   1.00
C1562  C     0.41275   0.82338   0.92993   0.00000  Uiso   1.00
C1563  C     0.39515   0.82893   0.98241   0.00000  Uiso   1.00
C1564  C     0.42723   0.82448   0.51158   0.00000  Uiso   1.00
Cu1565 Cu    0.45311   0.83333   0.75000   0.00000  Uiso   1.00
Cu1566 Cu    0.54689   0.83334   0.75000   0.00000  Uiso   1.00
H1567  H     0.47586   0.70390   0.68511   0.00000  Uiso   1.00
H1568  H     0.52638   0.96267   0.81728   0.00000  Uiso   1.00
N1569  N     0.38265   0.83332   0.74999   0.00000  Uiso   1.00
N1570  N     0.61735   0.83335   0.75000   0.00000  Uiso   1.00
O1571  O     0.46042   0.89345   0.75001   0.00000  Uiso   1.00
O1572  O     0.53961   0.89346   0.75001   0.00000  Uiso   1.00
O1573  O     0.44108   0.83332   0.82549   0.00000  Uiso   1.00
O1574  O     0.52027   0.83333   0.82549   0.00000  Uiso   1.00
O1575  O     0.46039   0.77321   0.75000   0.00000  Uiso   1.00
O1576  O     0.53958   0.77322   0.75000   0.00000  Uiso   1.00
O1577  O     0.47973   0.83334   0.67451   0.00000  Uiso   1.00
O1578  O     0.55892   0.83335   0.67451   0.00000  Uiso   1.00
I1579  I     0.61317   0.75943   0.60528   0.00000  Uiso   1.00
O1580  O     0.52590   0.71289   0.82917   0.00000  Uiso   1.00
C1581  C     0.50399   0.69865   0.87837   0.00000  Uiso   1.00
H1582  H     0.50419   0.72422   0.90639   0.00000  Uiso   1.00
H1583  H     0.52469   0.67259   0.88747   0.00000  Uiso   1.00
H1584  H     0.46608   0.68965   0.88322   0.00000  Uiso   1.00
O1585  O     0.45986   0.95581   0.68403   0.00000  Uiso   1.00
C1586  C     0.41726   0.97464   0.67993   0.00000  Uiso   1.00
H1587  H     0.39667   0.99058   0.71592   0.00000  Uiso   1.00
H1588  H     0.39362   0.95038   0.67079   0.00000  Uiso   1.00
H1589  H     0.42541   0.99657   0.64818   0.00000  Uiso   1.00
O1590  O     0.61144   0.90220   0.78553   0.00000  Uiso   1.00
C1591  C     0.63096   0.93406   0.75176   0.00000  Uiso   1.00
H1592  H     0.63490   0.92439   0.71126   0.00000  Uiso   1.00
H1593  H     0.60675   0.96112   0.76044   0.00000  Uiso   1.00
H1594  H     0.66544   0.94502   0.75703   0.00000  Uiso   1.00
O1595  O     0.37034   0.89564   0.79929   0.00000  Uiso   1.00
C1596  C     0.35123   0.89260   0.85227   0.00000  Uiso   1.00
H1597  H     0.37236   0.91267   0.87164   0.00000  Uiso   1.00
H1598  H     0.35349   0.86056   0.86526   0.00000  Uiso   1.00
H1599  H     0.64728   0.90397   0.86430   0.00000  Uiso   1.00
I1600  I     0.40778   0.76229   0.67082   0.00000  Uiso   1.00
O1601  O     0.62903   0.76560   0.71190   0.00000  Uiso   1.00
C1602  C     0.62919   0.73210   0.74409   0.00000  Uiso   1.00
H1603  H     0.66559   0.72317   0.74527   0.00000  Uiso   1.00
H1604  H     0.61337   0.70478   0.72930   0.00000  Uiso   1.00
H1605  H     0.60725   0.73916   0.78336   0.00000  Uiso   1.00
O1606  O     0.61754   0.81167   0.90886   0.00000  Uiso   1.00
C1607  C     0.61679   0.78687   0.86547   0.00000  Uiso   1.00
H1608  H     0.65305   0.78571   0.83901   0.00000  Uiso   1.00
H1609  H     0.59341   0.79934   0.84338   0.00000  Uiso   1.00
H1610  H     0.60594   0.75473   0.87649   0.00000  Uiso   1.00
O1611  O     0.61876   0.76334   0.98928   0.00000  Uiso   1.00
C1612  C     0.59837   0.72488   0.98116   0.00000  Uiso   1.00
H1613  H     0.57147   0.72806   0.95924   0.00000  Uiso   1.00
H1614  H     0.58180   0.70983   0.51786   0.00000  Uiso   1.00
H1615  H     0.62704   0.70408   0.95863   0.00000  Uiso   1.00
I1616  I     0.45303   0.88603   0.59866   0.00000  Uiso   1.00
I1617  I     0.38628   0.76979   0.89971   0.00000  Uiso   1.00
O1618  O     0.41233   0.80278   0.55591   0.00000  Uiso   1.00
C1619  C     0.41923   0.75995   0.54290   0.00000  Uiso   1.00
H1620  H     0.45593   0.75051   0.54270   0.00000  Uiso   1.00
H1621  H     0.41259   0.75077   0.50568   0.00000  Uiso   1.00
H1622  H     0.39353   0.74182   0.57163   0.00000  Uiso   1.00
O1623  O     0.34704   0.82633   0.50538   0.00000  Uiso   1.00
C1624  C     0.66086   0.86616   0.50452   0.00000  Uiso   1.00
H1625  H     0.66120   0.87418   0.96505   0.00000  Uiso   1.00
H1626  H     0.34641   0.89032   0.52164   0.00000  Uiso   1.00
H1627  H     0.62326   0.86655   0.52771   0.00000  Uiso   1.00
O1628  O     0.56172   0.87296   0.88030   0.00000  Uiso   1.00
C1629  C     0.54374   0.91280   0.89801   0.00000  Uiso   1.00
H1630  H     0.54422   0.91926   0.93825   0.00000  Uiso   1.00
H1631  H     0.50713   0.91682   0.89380   0.00000  Uiso   1.00
H1632  H     0.56697   0.93624   0.87472   0.00000  Uiso   1.00
C1633  C     0.83301   0.91246   0.75092   0.00000  Uiso   1.00
C1634  C     0.80936   0.83237   0.98960   0.00000  Uiso   1.00
C1635  C     0.82525   0.83996   0.93690   0.00000  Uiso   1.00
C1636  C     0.84399   0.82674   0.51651   0.00000  Uiso   1.00
C1637  C     0.88870   0.81129   0.98883   0.00000  Uiso   1.00
C1638  C     0.90453   0.81978   0.93657   0.00000  Uiso   1.00
C1639  C     0.87479   0.84430   0.91644   0.00000  Uiso   1.00
C1640  C     0.83686   0.83754   0.56821   0.00000  Uiso   1.00
C1641  C     0.90602   0.79539   0.56834   0.00000  Uiso   1.00
C1642  C     0.79315   0.83477   0.90602   0.00000  Uiso   1.00
C1643  C     0.84716   0.97936   0.78970   0.00000  Uiso   1.00
C1644  C     0.80806   0.83405   0.84951   0.00000  Uiso   1.00
C1645  C     0.84552   0.68947   0.79195   0.00000  Uiso   1.00
C1646  C     0.83260   0.70983   0.75291   0.00000  Uiso   1.00
C1647  C     0.81740   0.68777   0.71572   0.00000  Uiso   1.00
C1648  C     0.81292   0.97819   0.71752   0.00000  Uiso   1.00
C1649  C     0.83182   0.95732   0.75212   0.00000  Uiso   1.00
C1650  C     0.97101   0.86648   0.76966   0.00000  Uiso   1.00
C1651  C     0.68570   0.86416   0.77460   0.00000  Uiso   1.00
C1652  C     0.69703   0.80288   0.72527   0.00000  Uiso   1.00
C1653  C     0.98030   0.80031   0.73064   0.00000  Uiso   1.00
C1654  C     0.83301   0.75439   0.75130   0.00000  Uiso   1.00
C1655  C     0.85829   0.83077   0.65058   0.00000  Uiso   1.00
C1656  C     0.91593   0.78978   0.51511   0.00000  Uiso   1.00
C1657  C     0.86910   0.82286   0.59473   0.00000  Uiso   1.00
C1658  C     0.74608   0.82338   0.92993   0.00000  Uiso   1.00
C1659  C     0.72848   0.82893   0.98241   0.00000  Uiso   1.00
C1660  C     0.76056   0.82448   0.51158   0.00000  Uiso   1.00
Cu1661 Cu    0.78645   0.83333   0.75000   0.00000  Uiso   1.00
Cu1662 Cu    0.88022   0.83334   0.75000   0.00000  Uiso   1.00
H1663  H     0.80919   0.70390   0.68511   0.00000  Uiso   1.00
H1664  H     0.85971   0.96267   0.81728   0.00000  Uiso   1.00
N1665  N     0.71598   0.83332   0.74999   0.00000  Uiso   1.00
N1666  N     0.95069   0.83335   0.75000   0.00000  Uiso   1.00
O1667  O     0.79375   0.89345   0.75001   0.00000  Uiso   1.00
O1668  O     0.87294   0.89346   0.75001   0.00000  Uiso   1.00
O1669  O     0.77441   0.83332   0.82549   0.00000  Uiso   1.00
O1670  O     0.85360   0.83333   0.82549   0.00000  Uiso   1.00
O1671  O     0.79373   0.77321   0.75000   0.00000  Uiso   1.00
O1672  O     0.87292   0.77322   0.75000   0.00000  Uiso   1.00
O1673  O     0.81306   0.83334   0.67451   0.00000  Uiso   1.00
O1674  O     0.89225   0.83335   0.67451   0.00000  Uiso   1.00
I1675  I     0.94651   0.75943   0.60528   0.00000  Uiso   1.00
O1676  O     0.85923   0.71289   0.82917   0.00000  Uiso   1.00
C1677  C     0.83733   0.69865   0.87837   0.00000  Uiso   1.00
H1678  H     0.83752   0.72422   0.90639   0.00000  Uiso   1.00
H1679  H     0.85802   0.67259   0.88747   0.00000  Uiso   1.00
H1680  H     0.79941   0.68965   0.88322   0.00000  Uiso   1.00
O1681  O     0.79319   0.95581   0.68403   0.00000  Uiso   1.00
C1682  C     0.75059   0.97464   0.67993   0.00000  Uiso   1.00
H1683  H     0.73000   0.99058   0.71592   0.00000  Uiso   1.00
H1684  H     0.72695   0.95038   0.67079   0.00000  Uiso   1.00
H1685  H     0.75875   0.99657   0.64818   0.00000  Uiso   1.00
O1686  O     0.94477   0.90220   0.78553   0.00000  Uiso   1.00
C1687  C     0.96429   0.93406   0.75176   0.00000  Uiso   1.00
H1688  H     0.96823   0.92439   0.71126   0.00000  Uiso   1.00
H1689  H     0.94009   0.96112   0.76044   0.00000  Uiso   1.00
H1690  H     0.99877   0.94502   0.75703   0.00000  Uiso   1.00
O1691  O     0.70367   0.89564   0.79929   0.00000  Uiso   1.00
C1692  C     0.68457   0.89260   0.85227   0.00000  Uiso   1.00
H1693  H     0.70569   0.91267   0.87164   0.00000  Uiso   1.00
H1694  H     0.68682   0.86056   0.86526   0.00000  Uiso   1.00
H1695  H     0.98062   0.90397   0.86430   0.00000  Uiso   1.00
I1696  I     0.74111   0.76229   0.67082   0.00000  Uiso   1.00
O1697  O     0.96236   0.76560   0.71190   0.00000  Uiso   1.00
C1698  C     0.96252   0.73210   0.74409   0.00000  Uiso   1.00
H1699  H     0.99893   0.72317   0.74527   0.00000  Uiso   1.00
H1700  H     0.94670   0.70478   0.72930   0.00000  Uiso   1.00
H1701  H     0.94058   0.73916   0.78336   0.00000  Uiso   1.00
O1702  O     0.95087   0.81167   0.90886   0.00000  Uiso   1.00
C1703  C     0.95013   0.78687   0.86547   0.00000  Uiso   1.00
H1704  H     0.98638   0.78571   0.83901   0.00000  Uiso   1.00
H1705  H     0.92674   0.79934   0.84338   0.00000  Uiso   1.00
H1706  H     0.93928   0.75473   0.87649   0.00000  Uiso   1.00
O1707  O     0.95209   0.76334   0.98928   0.00000  Uiso   1.00
C1708  C     0.93170   0.72488   0.98116   0.00000  Uiso   1.00
H1709  H     0.90481   0.72806   0.95924   0.00000  Uiso   1.00
H1710  H     0.91513   0.70983   0.51786   0.00000  Uiso   1.00
H1711  H     0.96037   0.70408   0.95863   0.00000  Uiso   1.00
I1712  I     0.78637   0.88603   0.59866   0.00000  Uiso   1.00
I1713  I     0.71962   0.76979   0.89971   0.00000  Uiso   1.00
O1714  O     0.74566   0.80278   0.55591   0.00000  Uiso   1.00
C1715  C     0.75256   0.75995   0.54290   0.00000  Uiso   1.00
H1716  H     0.78926   0.75051   0.54270   0.00000  Uiso   1.00
H1717  H     0.74592   0.75077   0.50568   0.00000  Uiso   1.00
H1718  H     0.72687   0.74182   0.57163   0.00000  Uiso   1.00
O1719  O     0.68037   0.82633   0.50538   0.00000  Uiso   1.00
C1720  C     0.99420   0.86616   0.50452   0.00000  Uiso   1.00
H1721  H     0.99453   0.87418   0.96505   0.00000  Uiso   1.00
H1722  H     0.67974   0.89032   0.52164   0.00000  Uiso   1.00
H1723  H     0.95660   0.86655   0.52771   0.00000  Uiso   1.00
O1724  O     0.89506   0.87296   0.88030   0.00000  Uiso   1.00
C1725  C     0.87708   0.91280   0.89801   0.00000  Uiso   1.00
H1726  H     0.87755   0.91926   0.93825   0.00000  Uiso   1.00
H1727  H     0.84046   0.91682   0.89380   0.00000  Uiso   1.00
H1728  H     0.90030   0.93624   0.87472   0.00000  Uiso   1.00
loop_
_geom_bond_atom_site_label_1
_geom_bond_atom_site_label_2
_geom_bond_distance
_geom_bond_site_symmetry_2
_ccdc_geom_bond_type
C1     O35     1.302   .     A
C1     C17     1.449   .     S
C1     O36     1.311   .     A
C2     C3      1.415   .     A
C2     C868    1.414   .     S
C2     C892    1.411   .     S
C3     C7      1.407   .     A
C3     C10     1.424   .     A
C4     C8      1.403   .     A
C4     C866    1.414   1_554 S
C4     C869    1.403   1_554 S
C5     C6      1.410   .     A
C5     C868    1.403   .     S
C5     C888    1.402   .     S
C6     O70     1.379   .     S
C6     C7      1.402   .     A
C7     O92     1.383   .     S
C8     C25     1.421   .     A
C8     I80     2.143   .     S
C9     C25     1.419   .     A
C9     I43     2.116   .     S
C9     C24     1.408   .     A
C10    C26     1.403   .     A
C10    C12     1.484   .     S
C11    H32     1.079   .     S
C11    C17     1.400   .     A
C11    C301    1.404   .     S
C12    O37     1.317   .     A
C12    O38     1.311   .     A
C13    C14     1.403   .     A
C13    O44     1.391   .     S
C13    C587    1.404   1_545 S
C14    C22     1.442   .     S
C14    C15     1.389   .     A
C15    H31     1.077   .     S
C15    C592    1.393   1_545 S
C16    C17     1.403   .     A
C16    O49     1.389   .     S
C16    C303    1.393   .     S
C18    N34     1.384   .     A
C18    O54     1.379   .     S
C18    C115    1.443   .     S
C19    N33     1.367   .     A
C19    O59     1.381   .     S
C19    C210    1.443   1_455 S
C20    I64     2.108   .     S
C20    N33     1.373   .     A
C20    C213    1.428   1_455 S
C21    O65     1.377   .     S
C21    N34     1.375   .     A
C21    C116    1.428   .     S
C22    O39     1.307   .     A
C22    O40     1.302   .     A
C23    O42     1.325   .     A
C23    O41     1.304   .     A
C23    C25     1.485   .     S
C24    C869    1.402   1_554 S
C24    O939    1.381   1_554 S
C26    C27     1.391   .     A
C26    I81     2.126   .     S
C27    C892    1.391   .     S
C27    O951    1.375   .     S
C28    O82     1.381   .     S
C28    C866    1.411   1_554 S
C28    C891    1.391   1_554 S
Cu29   N33     2.052   .     S
Cu29   Cu30    2.731   .     S
Cu29   O39     1.955   .     S
Cu29   O41     1.995   .     S
Cu29   O35     1.953   .     S
Cu29   O37     1.994   .     S
Cu30   O38     1.995   .     S
Cu30   N34     2.052   .     S
Cu30   O40     1.953   .     S
Cu30   O36     1.955   .     S
Cu30   O42     1.994   .     S
O44    C45     1.411   .     S
C45    H46     1.110   .     S
C45    H47     1.110   .     S
C45    H48     1.115   .     S
O49    C50     1.417   .     S
C50    H52     1.108   .     S
C50    H53     1.110   .     S
C50    H51     1.115   .     S
O54    C55     1.414   .     S
C55    H56     1.115   .     S
C55    H57     1.105   .     S
C55    H58     1.107   .     S
O59    C60     1.408   .     S
C60    H62     1.111   .     S
C60    H61     1.109   .     S
C60    H255    1.107   1_455 S
H63    C156    1.107   .     S
O65    C66     1.414   .     S
C66    H68     1.109   .     S
C66    H69     1.107   .     S
C66    H67     1.109   .     S
O70    C71     1.415   .     S
C71    H73     1.108   .     S
C71    H74     1.110   .     S
C71    H72     1.107   .     S
O75    C76     1.412   .     S
O75    C888    1.381   .     S
C76    H79     1.109   .     S
C76    H77     1.113   .     S
C76    H942    1.112   .     S
H78    C940    1.112   1_554 S
O82    C83     1.420   .     S
C83    H84     1.111   .     S
C83    H85     1.115   .     S
C83    H86     1.106   .     S
O87    C891    1.375   1_554 S
O87    C280    1.412   1_455 S
C88    H91     1.107   .     S
C88    O183    1.412   .     S
C88    H953    1.112   1_554 S
C88    H186    1.115   .     S
H89    C952    1.112   .     S
H90    C280    1.115   1_455 S
O92    C93     1.413   .     S
C93    H94     1.115   .     S
C93    H95     1.111   .     S
C93    H96     1.108   .     S
C97    O131    1.302   .     A
C97    C113    1.449   .     S
C97    O132    1.311   .     A
C98    C99     1.415   .     A
C98    C964    1.414   .     S
C98    C988    1.411   .     S
C99    C103    1.407   .     A
C99    C106    1.424   .     A
C100   C104    1.403   .     A
C100   C962    1.414   1_554 S
C100   C965    1.403   1_554 S
C101   C102    1.410   .     A
C101   C964    1.403   .     S
C101   C984    1.402   .     S
C102   O166    1.379   .     S
C102   C103    1.402   .     A
C103   O188    1.383   .     S
C104   C121    1.421   .     A
C104   I176    2.143   .     S
C105   C121    1.419   .     A
C105   I139    2.116   .     S
C105   C120    1.408   .     A
C106   C122    1.403   .     A
C106   C108    1.484   .     S
C107   H128    1.079   .     S
C107   C113    1.400   .     A
C107   C397    1.404   .     S
C108   O133    1.317   .     A
C108   O134    1.311   .     A
C109   C110    1.403   .     A
C109   O140    1.391   .     S
C109   C683    1.404   1_545 S
C110   C118    1.442   .     S
C110   C111    1.389   .     A
C111   H127    1.077   .     S
C111   C688    1.393   1_545 S
C112   C113    1.403   .     A
C112   O145    1.389   .     S
C112   C399    1.393   .     S
C114   N130    1.384   .     A
C114   O150    1.379   .     S
C114   C211    1.443   .     S
C115   N129    1.367   .     A
C115   O155    1.381   .     S
C116   I160    2.108   .     S
C116   N129    1.373   .     A
C117   O161    1.377   .     S
C117   N130    1.375   .     A
C117   C212    1.428   .     S
C118   O135    1.307   .     A
C118   O136    1.302   .     A
C119   O138    1.325   .     A
C119   O137    1.304   .     A
C119   C121    1.485   .     S
C120   C965    1.402   1_554 S
C120   O1035   1.381   1_554 S
C122   C123    1.391   .     A
C122   I177    2.126   .     S
C123   C988    1.391   .     S
C123   O1047   1.375   .     S
C124   O178    1.381   .     S
C124   C962    1.411   1_554 S
C124   C987    1.391   1_554 S
Cu125  N129    2.052   .     S
Cu125  Cu126   2.731   .     S
Cu125  O135    1.955   .     S
Cu125  O137    1.995   .     S
Cu125  O131    1.953   .     S
Cu125  O133    1.994   .     S
Cu126  O134    1.995   .     S
Cu126  N130    2.052   .     S
Cu126  O136    1.953   .     S
Cu126  O132    1.955   .     S
Cu126  O138    1.994   .     S
O140   C141    1.411   .     S
C141   H142    1.110   .     S
C141   H143    1.110   .     S
C141   H144    1.115   .     S
O145   C146    1.417   .     S
C146   H148    1.108   .     S
C146   H149    1.110   .     S
C146   H147    1.115   .     S
O150   C151    1.414   .     S
C151   H152    1.115   .     S
C151   H153    1.105   .     S
C151   H154    1.107   .     S
O155   C156    1.408   .     S
C156   H158    1.111   .     S
C156   H157    1.109   .     S
H159   C252    1.107   .     S
O161   C162    1.414   .     S
C162   H164    1.109   .     S
C162   H165    1.107   .     S
C162   H163    1.109   .     S
O166   C167    1.415   .     S
C167   H169    1.108   .     S
C167   H170    1.110   .     S
C167   H168    1.107   .     S
O171   C172    1.412   .     S
O171   C984    1.381   .     S
C172   H175    1.109   .     S
C172   H173    1.113   .     S
C172   H1038   1.112   .     S
H174   C1036   1.112   1_554 S
O178   C179    1.420   .     S
C179   H180    1.111   .     S
C179   H181    1.115   .     S
C179   H182    1.106   .     S
O183   C987    1.375   1_554 S
C184   H187    1.107   .     S
C184   O279    1.412   .     S
C184   H1049   1.112   1_554 S
C184   H282    1.115   .     S
H185   C1048   1.112   .     S
O188   C189    1.413   .     S
C189   H190    1.115   .     S
C189   H191    1.111   .     S
C189   H192    1.108   .     S
C193   O227    1.302   .     A
C193   C209    1.449   .     S
C193   O228    1.311   .     A
C194   C195    1.415   .     A
C194   C1060   1.414   .     S
C194   C1084   1.411   .     S
C195   C199    1.407   .     A
C195   C202    1.424   .     A
C196   C200    1.403   .     A
C196   C1058   1.414   1_554 S
C196   C1061   1.403   1_554 S
C197   C198    1.410   .     A
C197   C1060   1.403   .     S
C197   C1080   1.402   .     S
C198   O262    1.379   .     S
C198   C199    1.402   .     A
C199   O284    1.383   .     S
C200   C217    1.421   .     A
C200   I272    2.143   .     S
C201   C217    1.419   .     A
C201   I235    2.116   .     S
C201   C216    1.408   .     A
C202   C218    1.403   .     A
C202   C204    1.484   .     S
C203   H224    1.079   .     S
C203   C209    1.400   .     A
C203   C493    1.404   .     S
C204   O229    1.317   .     A
C204   O230    1.311   .     A
C205   C206    1.403   .     A
C205   O236    1.391   .     S
C205   C779    1.404   1_545 S
C206   C214    1.442   .     S
C206   C207    1.389   .     A
C207   H223    1.077   .     S
C207   C784    1.393   1_545 S
C208   C209    1.403   .     A
C208   O241    1.389   .     S
C208   C495    1.393   .     S
C210   N226    1.384   .     A
C210   O246    1.379   .     S
C210   C19     1.443   1_655 S
C211   N225    1.367   .     A
C211   O251    1.381   .     S
C212   I256    2.108   .     S
C212   N225    1.373   .     A
C213   O257    1.377   .     S
C213   N226    1.375   .     A
C213   C20     1.428   1_655 S
C214   O231    1.307   .     A
C214   O232    1.302   .     A
C215   O234    1.325   .     A
C215   O233    1.304   .     A
C215   C217    1.485   .     S
C216   C1061   1.402   1_554 S
C216   O1131   1.381   1_554 S
C218   C219    1.391   .     A
C218   I273    2.126   .     S
C219   C1084   1.391   .     S
C219   O1143   1.375   .     S
C220   O274    1.381   .     S
C220   C1058   1.411   1_554 S
C220   C1083   1.391   1_554 S
Cu221  N225    2.052   .     S
Cu221  Cu222   2.731   .     S
Cu221  O231    1.955   .     S
Cu221  O233    1.995   .     S
Cu221  O227    1.953   .     S
Cu221  O229    1.994   .     S
Cu222  O230    1.995   .     S
Cu222  N226    2.052   .     S
Cu222  O232    1.953   .     S
Cu222  O228    1.955   .     S
Cu222  O234    1.994   .     S
O236   C237    1.411   .     S
C237   H238    1.110   .     S
C237   H239    1.110   .     S
C237   H240    1.115   .     S
O241   C242    1.417   .     S
C242   H244    1.108   .     S
C242   H245    1.110   .     S
C242   H243    1.115   .     S
O246   C247    1.414   .     S
C247   H248    1.115   .     S
C247   H249    1.105   .     S
C247   H250    1.107   .     S
O251   C252    1.408   .     S
C252   H254    1.111   .     S
C252   H253    1.109   .     S
H255   C60     1.107   1_655 S
O257   C258    1.414   .     S
C258   H260    1.109   .     S
C258   H261    1.107   .     S
C258   H259    1.109   .     S
O262   C263    1.415   .     S
C263   H265    1.108   .     S
C263   H266    1.110   .     S
C263   H264    1.107   .     S
O267   C268    1.412   .     S
O267   C1080   1.381   .     S
C268   H271    1.109   .     S
C268   H269    1.113   .     S
C268   H1134   1.112   .     S
H270   C1132   1.112   1_554 S
O274   C275    1.420   .     S
C275   H276    1.111   .     S
C275   H277    1.115   .     S
C275   H278    1.106   .     S
O279   C1083   1.375   1_554 S
C280   H283    1.107   .     S
C280   O87     1.412   1_655 S
C280   H1145   1.112   1_554 S
C280   H90     1.115   1_655 S
H281   C1144   1.112   .     S
O284   C285    1.413   .     S
C285   H286    1.115   .     S
C285   H287    1.111   .     S
C285   H288    1.108   .     S
C289   O323    1.302   .     A
C289   C305    1.449   .     S
C289   O324    1.311   .     A
C290   C291    1.415   .     A
C290   C1156   1.414   .     S
C290   C1180   1.411   .     S
C291   C295    1.407   .     A
C291   C298    1.424   .     A
C292   C296    1.403   .     A
C292   C1154   1.414   1_554 S
C292   C1157   1.403   1_554 S
C293   C294    1.410   .     A
C293   C1156   1.403   .     S
C293   C1176   1.402   .     S
C294   O358    1.379   .     S
C294   C295    1.402   .     A
C295   O380    1.383   .     S
C296   C313    1.421   .     A
C296   I368    2.143   .     S
C297   C313    1.419   .     A
C297   I331    2.116   .     S
C297   C312    1.408   .     A
C298   C314    1.403   .     A
C298   C300    1.484   .     S
C299   H320    1.079   .     S
C299   C305    1.400   .     A
C299   C589    1.404   .     S
C300   O325    1.317   .     A
C300   O326    1.311   .     A
C301   C302    1.403   .     A
C301   O332    1.391   .     S
C302   C310    1.442   .     S
C302   C303    1.389   .     A
C303   H319    1.077   .     S
C304   C305    1.403   .     A
C304   O337    1.389   .     S
C304   C591    1.393   .     S
C306   N322    1.384   .     A
C306   O342    1.379   .     S
C306   C403    1.443   .     S
C307   N321    1.367   .     A
C307   O347    1.381   .     S
C307   C498    1.443   1_455 S
C308   I352    2.108   .     S
C308   N321    1.373   .     A
C308   C501    1.428   1_455 S
C309   O353    1.377   .     S
C309   N322    1.375   .     A
C309   C404    1.428   .     S
C310   O327    1.307   .     A
C310   O328    1.302   .     A
C311   O330    1.325   .     A
C311   O329    1.304   .     A
C311   C313    1.485   .     S
C312   C1157   1.402   1_554 S
C312   O1227   1.381   1_554 S
C314   C315    1.391   .     A
C314   I369    2.126   .     S
C315   C1180   1.391   .     S
C315   O1239   1.375   .     S
C316   O370    1.381   .     S
C316   C1154   1.411   1_554 S
C316   C1179   1.391   1_554 S
Cu317  N321    2.052   .     S
Cu317  Cu318   2.731   .     S
Cu317  O327    1.955   .     S
Cu317  O329    1.995   .     S
Cu317  O323    1.953   .     S
Cu317  O325    1.994   .     S
Cu318  O326    1.995   .     S
Cu318  N322    2.052   .     S
Cu318  O328    1.953   .     S
Cu318  O324    1.955   .     S
Cu318  O330    1.994   .     S
O332   C333    1.411   .     S
C333   H334    1.110   .     S
C333   H335    1.110   .     S
C333   H336    1.115   .     S
O337   C338    1.417   .     S
C338   H340    1.108   .     S
C338   H341    1.110   .     S
C338   H339    1.115   .     S
O342   C343    1.414   .     S
C343   H344    1.115   .     S
C343   H345    1.105   .     S
C343   H346    1.107   .     S
O347   C348    1.408   .     S
C348   H350    1.111   .     S
C348   H349    1.109   .     S
C348   H543    1.107   1_455 S
H351   C444    1.107   .     S
O353   C354    1.414   .     S
C354   H356    1.109   .     S
C354   H357    1.107   .     S
C354   H355    1.109   .     S
O358   C359    1.415   .     S
C359   H361    1.108   .     S
C359   H362    1.110   .     S
C359   H360    1.107   .     S
O363   C364    1.412   .     S
O363   C1176   1.381   .     S
C364   H367    1.109   .     S
C364   H365    1.113   .     S
C364   H1230   1.112   .     S
H366   C1228   1.112   1_554 S
O370   C371    1.420   .     S
C371   H372    1.111   .     S
C371   H373    1.115   .     S
C371   H374    1.106   .     S
O375   C1179   1.375   1_554 S
O375   C568    1.412   1_455 S
C376   H379    1.107   .     S
C376   O471    1.412   .     S
C376   H1241   1.112   1_554 S
C376   H474    1.115   .     S
H377   C1240   1.112   .     S
H378   C568    1.115   1_455 S
O380   C381    1.413   .     S
C381   H382    1.115   .     S
C381   H383    1.111   .     S
C381   H384    1.108   .     S
C385   O419    1.302   .     A
C385   C401    1.449   .     S
C385   O420    1.311   .     A
C386   C387    1.415   .     A
C386   C1252   1.414   .     S
C386   C1276   1.411   .     S
C387   C391    1.407   .     A
C387   C394    1.424   .     A
C388   C392    1.403   .     A
C388   C1250   1.414   1_554 S
C388   C1253   1.403   1_554 S
C389   C390    1.410   .     A
C389   C1252   1.403   .     S
C389   C1272   1.402   .     S
C390   O454    1.379   .     S
C390   C391    1.402   .     A
C391   O476    1.383   .     S
C392   C409    1.421   .     A
C392   I464    2.143   .     S
C393   C409    1.419   .     A
C393   I427    2.116   .     S
C393   C408    1.408   .     A
C394   C410    1.403   .     A
C394   C396    1.484   .     S
C395   H416    1.079   .     S
C395   C401    1.400   .     A
C395   C685    1.404   .     S
C396   O421    1.317   .     A
C396   O422    1.311   .     A
C397   C398    1.403   .     A
C397   O428    1.391   .     S
C398   C406    1.442   .     S
C398   C399    1.389   .     A
C399   H415    1.077   .     S
C400   C401    1.403   .     A
C400   O433    1.389   .     S
C400   C687    1.393   .     S
C402   N418    1.384   .     A
C402   O438    1.379   .     S
C402   C499    1.443   .     S
C403   N417    1.367   .     A
C403   O443    1.381   .     S
C404   I448    2.108   .     S
C404   N417    1.373   .     A
C405   O449    1.377   .     S
C405   N418    1.375   .     A
C405   C500    1.428   .     S
C406   O423    1.307   .     A
C406   O424    1.302   .     A
C407   O426    1.325   .     A
C407   O425    1.304   .     A
C407   C409    1.485   .     S
C408   C1253   1.402   1_554 S
C408   O1323   1.381   1_554 S
C410   C411    1.391   .     A
C410   I465    2.126   .     S
C411   C1276   1.391   .     S
C411   O1335   1.375   .     S
C412   O466    1.381   .     S
C412   C1250   1.411   1_554 S
C412   C1275   1.391   1_554 S
Cu413  N417    2.052   .     S
Cu413  Cu414   2.731   .     S
Cu413  O423    1.955   .     S
Cu413  O425    1.995   .     S
Cu413  O419    1.953   .     S
Cu413  O421    1.994   .     S
Cu414  O422    1.995   .     S
Cu414  N418    2.052   .     S
Cu414  O424    1.953   .     S
Cu414  O420    1.955   .     S
Cu414  O426    1.994   .     S
O428   C429    1.411   .     S
C429   H430    1.110   .     S
C429   H431    1.110   .     S
C429   H432    1.115   .     S
O433   C434    1.417   .     S
C434   H436    1.108   .     S
C434   H437    1.110   .     S
C434   H435    1.115   .     S
O438   C439    1.414   .     S
C439   H440    1.115   .     S
C439   H441    1.105   .     S
C439   H442    1.107   .     S
O443   C444    1.408   .     S
C444   H446    1.111   .     S
C444   H445    1.109   .     S
H447   C540    1.107   .     S
O449   C450    1.414   .     S
C450   H452    1.109   .     S
C450   H453    1.107   .     S
C450   H451    1.109   .     S
O454   C455    1.415   .     S
C455   H457    1.108   .     S
C455   H458    1.110   .     S
C455   H456    1.107   .     S
O459   C460    1.412   .     S
O459   C1272   1.381   .     S
C460   H463    1.109   .     S
C460   H461    1.113   .     S
C460   H1326   1.112   .     S
H462   C1324   1.112   1_554 S
O466   C467    1.420   .     S
C467   H468    1.111   .     S
C467   H469    1.115   .     S
C467   H470    1.106   .     S
O471   C1275   1.375   1_554 S
C472   H475    1.107   .     S
C472   O567    1.412   .     S
C472   H1337   1.112   1_554 S
C472   H570    1.115   .     S
H473   C1336   1.112   .     S
O476   C477    1.413   .     S
C477   H478    1.115   .     S
C477   H479    1.111   .     S
C477   H480    1.108   .     S
C481   O515    1.302   .     A
C481   C497    1.449   .     S
C481   O516    1.311   .     A
C482   C483    1.415   .     A
C482   C1348   1.414   .     S
C482   C1372   1.411   .     S
C483   C487    1.407   .     A
C483   C490    1.424   .     A
C484   C488    1.403   .     A
C484   C1346   1.414   1_554 S
C484   C1349   1.403   1_554 S
C485   C486    1.410   .     A
C485   C1348   1.403   .     S
C485   C1368   1.402   .     S
C486   O550    1.379   .     S
C486   C487    1.402   .     A
C487   O572    1.383   .     S
C488   C505    1.421   .     A
C488   I560    2.143   .     S
C489   C505    1.419   .     A
C489   I523    2.116   .     S
C489   C504    1.408   .     A
C490   C506    1.403   .     A
C490   C492    1.484   .     S
C491   H512    1.079   .     S
C491   C497    1.400   .     A
C491   C781    1.404   .     S
C492   O517    1.317   .     A
C492   O518    1.311   .     A
C493   C494    1.403   .     A
C493   O524    1.391   .     S
C494   C502    1.442   .     S
C494   C495    1.389   .     A
C495   H511    1.077   .     S
C496   C497    1.403   .     A
C496   O529    1.389   .     S
C496   C783    1.393   .     S
C498   N514    1.384   .     A
C498   O534    1.379   .     S
C498   C307    1.443   1_655 S
C499   N513    1.367   .     A
C499   O539    1.381   .     S
C500   I544    2.108   .     S
C500   N513    1.373   .     A
C501   O545    1.377   .     S
C501   N514    1.375   .     A
C501   C308    1.428   1_655 S
C502   O519    1.307   .     A
C502   O520    1.302   .     A
C503   O522    1.325   .     A
C503   O521    1.304   .     A
C503   C505    1.485   .     S
C504   C1349   1.402   1_554 S
C504   O1419   1.381   1_554 S
C506   C507    1.391   .     A
C506   I561    2.126   .     S
C507   C1372   1.391   .     S
C507   O1431   1.375   .     S
C508   O562    1.381   .     S
C508   C1346   1.411   1_554 S
C508   C1371   1.391   1_554 S
Cu509  N513    2.052   .     S
Cu509  Cu510   2.731   .     S
Cu509  O519    1.955   .     S
Cu509  O521    1.995   .     S
Cu509  O515    1.953   .     S
Cu509  O517    1.994   .     S
Cu510  O518    1.995   .     S
Cu510  N514    2.052   .     S
Cu510  O520    1.953   .     S
Cu510  O516    1.955   .     S
Cu510  O522    1.994   .     S
O524   C525    1.411   .     S
C525   H526    1.110   .     S
C525   H527    1.110   .     S
C525   H528    1.115   .     S
O529   C530    1.417   .     S
C530   H532    1.108   .     S
C530   H533    1.110   .     S
C530   H531    1.115   .     S
O534   C535    1.414   .     S
C535   H536    1.115   .     S
C535   H537    1.105   .     S
C535   H538    1.107   .     S
O539   C540    1.408   .     S
C540   H542    1.111   .     S
C540   H541    1.109   .     S
H543   C348    1.107   1_655 S
O545   C546    1.414   .     S
C546   H548    1.109   .     S
C546   H549    1.107   .     S
C546   H547    1.109   .     S
O550   C551    1.415   .     S
C551   H553    1.108   .     S
C551   H554    1.110   .     S
C551   H552    1.107   .     S
O555   C556    1.412   .     S
O555   C1368   1.381   .     S
C556   H559    1.109   .     S
C556   H557    1.113   .     S
C556   H1422   1.112   .     S
H558   C1420   1.112   1_554 S
O562   C563    1.420   .     S
C563   H564    1.111   .     S
C563   H565    1.115   .     S
C563   H566    1.106   .     S
O567   C1371   1.375   1_554 S
C568   H571    1.107   .     S
C568   O375    1.412   1_655 S
C568   H1433   1.112   1_554 S
C568   H378    1.115   1_655 S
H569   C1432   1.112   .     S
O572   C573    1.413   .     S
C573   H574    1.115   .     S
C573   H575    1.111   .     S
C573   H576    1.108   .     S
C577   O611    1.302   .     A
C577   C593    1.449   .     S
C577   O612    1.311   .     A
C578   C579    1.415   .     A
C578   C1444   1.414   .     S
C578   C1468   1.411   .     S
C579   C583    1.407   .     A
C579   C586    1.424   .     A
C580   C584    1.403   .     A
C580   C1442   1.414   1_554 S
C580   C1445   1.403   1_554 S
C581   C582    1.410   .     A
C581   C1444   1.403   .     S
C581   C1464   1.402   .     S
C582   O646    1.379   .     S
C582   C583    1.402   .     A
C583   O668    1.383   .     S
C584   C601    1.421   .     A
C584   I656    2.143   .     S
C585   C601    1.419   .     A
C585   I619    2.116   .     S
C585   C600    1.408   .     A
C586   C602    1.403   .     A
C586   C588    1.484   .     S
C587   H608    1.079   .     S
C587   C593    1.400   .     A
C587   C13     1.404   1_565 S
C588   O613    1.317   .     A
C588   O614    1.311   .     A
C589   C590    1.403   .     A
C589   O620    1.391   .     S
C590   C598    1.442   .     S
C590   C591    1.389   .     A
C591   H607    1.077   .     S
C592   C593    1.403   .     A
C592   O625    1.389   .     S
C592   C15     1.393   1_565 S
C594   N610    1.384   .     A
C594   O630    1.379   .     S
C594   C691    1.443   .     S
C595   N609    1.367   .     A
C595   O635    1.381   .     S
C595   C786    1.443   1_455 S
C596   I640    2.108   .     S
C596   N609    1.373   .     A
C596   C789    1.428   1_455 S
C597   O641    1.377   .     S
C597   N610    1.375   .     A
C597   C692    1.428   .     S
C598   O615    1.307   .     A
C598   O616    1.302   .     A
C599   O618    1.325   .     A
C599   O617    1.304   .     A
C599   C601    1.485   .     S
C600   C1445   1.402   1_554 S
C600   O1515   1.381   1_554 S
C602   C603    1.391   .     A
C602   I657    2.126   .     S
C603   C1468   1.391   .     S
C603   O1527   1.375   .     S
C604   O658    1.381   .     S
C604   C1442   1.411   1_554 S
C604   C1467   1.391   1_554 S
Cu605  N609    2.052   .     S
Cu605  Cu606   2.731   .     S
Cu605  O615    1.955   .     S
Cu605  O617    1.995   .     S
Cu605  O611    1.953   .     S
Cu605  O613    1.994   .     S
Cu606  O614    1.995   .     S
Cu606  N610    2.052   .     S
Cu606  O616    1.953   .     S
Cu606  O612    1.955   .     S
Cu606  O618    1.994   .     S
O620   C621    1.411   .     S
C621   H622    1.110   .     S
C621   H623    1.110   .     S
C621   H624    1.115   .     S
O625   C626    1.417   .     S
C626   H628    1.108   .     S
C626   H629    1.110   .     S
C626   H627    1.115   .     S
O630   C631    1.414   .     S
C631   H632    1.115   .     S
C631   H633    1.105   .     S
C631   H634    1.107   .     S
O635   C636    1.408   .     S
C636   H638    1.111   .     S
C636   H637    1.109   .     S
C636   H831    1.107   1_455 S
H639   C732    1.107   .     S
O641   C642    1.414   .     S
C642   H644    1.109   .     S
C642   H645    1.107   .     S
C642   H643    1.109   .     S
O646   C647    1.415   .     S
C647   H649    1.108   .     S
C647   H650    1.110   .     S
C647   H648    1.107   .     S
O651   C652    1.412   .     S
O651   C1464   1.381   .     S
C652   H655    1.109   .     S
C652   H653    1.113   .     S
C652   H1518   1.112   .     S
H654   C1516   1.112   1_554 S
O658   C659    1.420   .     S
C659   H660    1.111   .     S
C659   H661    1.115   .     S
C659   H662    1.106   .     S
O663   C1467   1.375   1_554 S
O663   C856    1.412   1_455 S
C664   H667    1.107   .     S
C664   O759    1.412   .     S
C664   H1529   1.112   1_554 S
C664   H762    1.115   .     S
H665   C1528   1.112   .     S
H666   C856    1.115   1_455 S
O668   C669    1.413   .     S
C669   H670    1.115   .     S
C669   H671    1.111   .     S
C669   H672    1.108   .     S
C673   O707    1.302   .     A
C673   C689    1.449   .     S
C673   O708    1.311   .     A
C674   C675    1.415   .     A
C674   C1540   1.414   .     S
C674   C1564   1.411   .     S
C675   C679    1.407   .     A
C675   C682    1.424   .     A
C676   C680    1.403   .     A
C676   C1538   1.414   1_554 S
C676   C1541   1.403   1_554 S
C677   C678    1.410   .     A
C677   C1540   1.403   .     S
C677   C1560   1.402   .     S
C678   O742    1.379   .     S
C678   C679    1.402   .     A
C679   O764    1.383   .     S
C680   C697    1.421   .     A
C680   I752    2.143   .     S
C681   C697    1.419   .     A
C681   I715    2.116   .     S
C681   C696    1.408   .     A
C682   C698    1.403   .     A
C682   C684    1.484   .     S
C683   H704    1.079   .     S
C683   C689    1.400   .     A
C683   C109    1.404   1_565 S
C684   O709    1.317   .     A
C684   O710    1.311   .     A
C685   C686    1.403   .     A
C685   O716    1.391   .     S
C686   C694    1.442   .     S
C686   C687    1.389   .     A
C687   H703    1.077   .     S
C688   C689    1.403   .     A
C688   O721    1.389   .     S
C688   C111    1.393   1_565 S
C690   N706    1.384   .     A
C690   O726    1.379   .     S
C690   C787    1.443   .     S
C691   N705    1.367   .     A
C691   O731    1.381   .     S
C692   I736    2.108   .     S
C692   N705    1.373   .     A
C693   O737    1.377   .     S
C693   N706    1.375   .     A
C693   C788    1.428   .     S
C694   O711    1.307   .     A
C694   O712    1.302   .     A
C695   O714    1.325   .     A
C695   O713    1.304   .     A
C695   C697    1.485   .     S
C696   C1541   1.402   1_554 S
C696   O1611   1.381   1_554 S
C698   C699    1.391   .     A
C698   I753    2.126   .     S
C699   C1564   1.391   .     S
C699   O1623   1.375   .     S
C700   O754    1.381   .     S
C700   C1538   1.411   1_554 S
C700   C1563   1.391   1_554 S
Cu701  N705    2.052   .     S
Cu701  Cu702   2.731   .     S
Cu701  O711    1.955   .     S
Cu701  O713    1.995   .     S
Cu701  O707    1.953   .     S
Cu701  O709    1.994   .     S
Cu702  O710    1.995   .     S
Cu702  N706    2.052   .     S
Cu702  O712    1.953   .     S
Cu702  O708    1.955   .     S
Cu702  O714    1.994   .     S
O716   C717    1.411   .     S
C717   H718    1.110   .     S
C717   H719    1.110   .     S
C717   H720    1.115   .     S
O721   C722    1.417   .     S
C722   H724    1.108   .     S
C722   H725    1.110   .     S
C722   H723    1.115   .     S
O726   C727    1.414   .     S
C727   H728    1.115   .     S
C727   H729    1.105   .     S
C727   H730    1.107   .     S
O731   C732    1.408   .     S
C732   H734    1.111   .     S
C732   H733    1.109   .     S
H735   C828    1.107   .     S
O737   C738    1.414   .     S
C738   H740    1.109   .     S
C738   H741    1.107   .     S
C738   H739    1.109   .     S
O742   C743    1.415   .     S
C743   H745    1.108   .     S
C743   H746    1.110   .     S
C743   H744    1.107   .     S
O747   C748    1.412   .     S
O747   C1560   1.381   .     S
C748   H751    1.109   .     S
C748   H749    1.113   .     S
C748   H1614   1.112   .     S
H750   C1612   1.112   1_554 S
O754   C755    1.420   .     S
C755   H756    1.111   .     S
C755   H757    1.115   .     S
C755   H758    1.106   .     S
O759   C1563   1.375   1_554 S
C760   H763    1.107   .     S
C760   O855    1.412   .     S
C760   H1625   1.112   1_554 S
C760   H858    1.115   .     S
H761   C1624   1.112   .     S
O764   C765    1.413   .     S
C765   H766    1.115   .     S
C765   H767    1.111   .     S
C765   H768    1.108   .     S
C769   O803    1.302   .     A
C769   C785    1.449   .     S
C769   O804    1.311   .     A
C770   C771    1.415   .     A
C770   C1636   1.414   .     S
C770   C1660   1.411   .     S
C771   C775    1.407   .     A
C771   C778    1.424   .     A
C772   C776    1.403   .     A
C772   C1634   1.414   1_554 S
C772   C1637   1.403   1_554 S
C773   C774    1.410   .     A
C773   C1636   1.403   .     S
C773   C1656   1.402   .     S
C774   O838    1.379   .     S
C774   C775    1.402   .     A
C775   O860    1.383   .     S
C776   C793    1.421   .     A
C776   I848    2.143   .     S
C777   C793    1.419   .     A
C777   I811    2.116   .     S
C777   C792    1.408   .     A
C778   C794    1.403   .     A
C778   C780    1.484   .     S
C779   H800    1.079   .     S
C779   C785    1.400   .     A
C779   C205    1.404   1_565 S
C780   O805    1.317   .     A
C780   O806    1.311   .     A
C781   C782    1.403   .     A
C781   O812    1.391   .     S
C782   C790    1.442   .     S
C782   C783    1.389   .     A
C783   H799    1.077   .     S
C784   C785    1.403   .     A
C784   O817    1.389   .     S
C784   C207    1.393   1_565 S
C786   N802    1.384   .     A
C786   O822    1.379   .     S
C786   C595    1.443   1_655 S
C787   N801    1.367   .     A
C787   O827    1.381   .     S
C788   I832    2.108   .     S
C788   N801    1.373   .     A
C789   O833    1.377   .     S
C789   N802    1.375   .     A
C789   C596    1.428   1_655 S
C790   O807    1.307   .     A
C790   O808    1.302   .     A
C791   O810    1.325   .     A
C791   O809    1.304   .     A
C791   C793    1.485   .     S
C792   C1637   1.402   1_554 S
C792   O1707   1.381   1_554 S
C794   C795    1.391   .     A
C794   I849    2.126   .     S
C795   C1660   1.391   .     S
C795   O1719   1.375   .     S
C796   O850    1.381   .     S
C796   C1634   1.411   1_554 S
C796   C1659   1.391   1_554 S
Cu797  N801    2.052   .     S
Cu797  Cu798   2.731   .     S
Cu797  O807    1.955   .     S
Cu797  O809    1.995   .     S
Cu797  O803    1.953   .     S
Cu797  O805    1.994   .     S
Cu798  O806    1.995   .     S
Cu798  N802    2.052   .     S
Cu798  O808    1.953   .     S
Cu798  O804    1.955   .     S
Cu798  O810    1.994   .     S
O812   C813    1.411   .     S
C813   H814    1.110   .     S
C813   H815    1.110   .     S
C813   H816    1.115   .     S
O817   C818    1.417   .     S
C818   H820    1.108   .     S
C818   H821    1.110   .     S
C818   H819    1.115   .     S
O822   C823    1.414   .     S
C823   H824    1.115   .     S
C823   H825    1.105   .     S
C823   H826    1.107   .     S
O827   C828    1.408   .     S
C828   H830    1.111   .     S
C828   H829    1.109   .     S
H831   C636    1.107   1_655 S
O833   C834    1.414   .     S
C834   H836    1.109   .     S
C834   H837    1.107   .     S
C834   H835    1.109   .     S
O838   C839    1.415   .     S
C839   H841    1.108   .     S
C839   H842    1.110   .     S
C839   H840    1.107   .     S
O843   C844    1.412   .     S
O843   C1656   1.381   .     S
C844   H847    1.109   .     S
C844   H845    1.113   .     S
C844   H1710   1.112   .     S
H846   C1708   1.112   1_554 S
O850   C851    1.420   .     S
C851   H852    1.111   .     S
C851   H853    1.115   .     S
C851   H854    1.106   .     S
O855   C1659   1.375   1_554 S
C856   H859    1.107   .     S
C856   O663    1.412   1_655 S
C856   H1721   1.112   1_554 S
C856   H666    1.115   1_655 S
H857   C1720   1.112   .     S
O860   C861    1.413   .     S
C861   H862    1.115   .     S
C861   H863    1.111   .     S
C861   H864    1.108   .     S
C865   O899    1.302   .     A
C865   C881    1.449   .     S
C865   O900    1.311   .     A
C866   C867    1.415   .     A
C866   C4      1.414   1_556 S
C866   C28     1.411   1_556 S
C867   C871    1.407   .     A
C867   C874    1.424   .     A
C868   C872    1.403   .     A
C869   C870    1.410   .     A
C869   C4      1.403   1_556 S
C869   C24     1.402   1_556 S
C870   O934    1.379   .     S
C870   C871    1.402   .     A
C871   O956    1.383   .     S
C872   C889    1.421   .     A
C872   I944    2.143   .     S
C873   C889    1.419   .     A
C873   I907    2.116   .     S
C873   C888    1.408   .     A
C874   C890    1.403   .     A
C874   C876    1.484   .     S
C875   H896    1.079   .     S
C875   C881    1.400   .     A
C875   C1165   1.404   .     S
C876   O901    1.317   .     A
C876   O902    1.311   .     A
C877   C878    1.403   .     A
C877   O908    1.391   .     S
C877   C1451   1.404   1_545 S
C878   C886    1.442   .     S
C878   C879    1.389   .     A
C879   H895    1.077   .     S
C879   C1456   1.393   1_545 S
C880   C881    1.403   .     A
C880   O913    1.389   .     S
C880   C1167   1.393   .     S
C882   N898    1.384   .     A
C882   O918    1.379   .     S
C882   C979    1.443   .     S
C883   N897    1.367   .     A
C883   O923    1.381   .     S
C883   C1074   1.443   1_455 S
C884   I928    2.108   .     S
C884   N897    1.373   .     A
C884   C1077   1.428   1_455 S
C885   O929    1.377   .     S
C885   N898    1.375   .     A
C885   C980    1.428   .     S
C886   O903    1.307   .     A
C886   O904    1.302   .     A
C887   O906    1.325   .     A
C887   O905    1.304   .     A
C887   C889    1.485   .     S
C890   C891    1.391   .     A
C890   I945    2.126   .     S
C891   C28     1.391   1_556 S
C891   O87     1.375   1_556 S
C892   O946    1.381   .     S
Cu893  N897    2.052   .     S
Cu893  Cu894   2.731   .     S
Cu893  O903    1.955   .     S
Cu893  O905    1.995   .     S
Cu893  O899    1.953   .     S
Cu893  O901    1.994   .     S
Cu894  O902    1.995   .     S
Cu894  N898    2.052   .     S
Cu894  O904    1.953   .     S
Cu894  O900    1.955   .     S
Cu894  O906    1.994   .     S
O908   C909    1.411   .     S
C909   H910    1.110   .     S
C909   H911    1.110   .     S
C909   H912    1.115   .     S
O913   C914    1.417   .     S
C914   H916    1.108   .     S
C914   H917    1.110   .     S
C914   H915    1.115   .     S
O918   C919    1.414   .     S
C919   H920    1.115   .     S
C919   H921    1.105   .     S
C919   H922    1.107   .     S
O923   C924    1.408   .     S
C924   H926    1.111   .     S
C924   H925    1.109   .     S
C924   H1119   1.107   1_455 S
H927   C1020   1.107   .     S
O929   C930    1.414   .     S
C930   H932    1.109   .     S
C930   H933    1.107   .     S
C930   H931    1.109   .     S
O934   C935    1.415   .     S
C935   H937    1.108   .     S
C935   H938    1.110   .     S
C935   H936    1.107   .     S
O939   C940    1.412   .     S
O939   C24     1.381   1_556 S
C940   H943    1.109   .     S
C940   H941    1.113   .     S
C940   H78     1.112   1_556 S
O946   C947    1.420   .     S
C947   H948    1.111   .     S
C947   H949    1.115   .     S
C947   H950    1.106   .     S
O951   C1144   1.412   1_455 S
C952   H955    1.107   .     S
C952   O1047   1.412   .     S
C952   H1050   1.115   .     S
H953   C88     1.112   1_556 S
H954   C1144   1.115   1_455 S
O956   C957    1.413   .     S
C957   H958    1.115   .     S
C957   H959    1.111   .     S
C957   H960    1.108   .     S
C961   O995    1.302   .     A
C961   C977    1.449   .     S
C961   O996    1.311   .     A
C962   C963    1.415   .     A
C962   C100    1.414   1_556 S
C962   C124    1.411   1_556 S
C963   C967    1.407   .     A
C963   C970    1.424   .     A
C964   C968    1.403   .     A
C965   C966    1.410   .     A
C965   C100    1.403   1_556 S
C965   C120    1.402   1_556 S
C966   O1030   1.379   .     S
C966   C967    1.402   .     A
C967   O1052   1.383   .     S
C968   C985    1.421   .     A
C968   I1040   2.143   .     S
C969   C985    1.419   .     A
C969   I1003   2.116   .     S
C969   C984    1.408   .     A
C970   C986    1.403   .     A
C970   C972    1.484   .     S
C971   H992    1.079   .     S
C971   C977    1.400   .     A
C971   C1261   1.404   .     S
C972   O997    1.317   .     A
C972   O998    1.311   .     A
C973   C974    1.403   .     A
C973   O1004   1.391   .     S
C973   C1547   1.404   1_545 S
C974   C982    1.442   .     S
C974   C975    1.389   .     A
C975   H991    1.077   .     S
C975   C1552   1.393   1_545 S
C976   C977    1.403   .     A
C976   O1009   1.389   .     S
C976   C1263   1.393   .     S
C978   N994    1.384   .     A
C978   O1014   1.379   .     S
C978   C1075   1.443   .     S
C979   N993    1.367   .     A
C979   O1019   1.381   .     S
C980   I1024   2.108   .     S
C980   N993    1.373   .     A
C981   O1025   1.377   .     S
C981   N994    1.375   .     A
C981   C1076   1.428   .     S
C982   O999    1.307   .     A
C982   O1000   1.302   .     A
C983   O1002   1.325   .     A
C983   O1001   1.304   .     A
C983   C985    1.485   .     S
C986   C987    1.391   .     A
C986   I1041   2.126   .     S
C987   C124    1.391   1_556 S
C987   O183    1.375   1_556 S
C988   O1042   1.381   .     S
Cu989  N993    2.052   .     S
Cu989  Cu990   2.731   .     S
Cu989  O999    1.955   .     S
Cu989  O1001   1.995   .     S
Cu989  O995    1.953   .     S
Cu989  O997    1.994   .     S
Cu990  O998    1.995   .     S
Cu990  N994    2.052   .     S
Cu990  O1000   1.953   .     S
Cu990  O996    1.955   .     S
Cu990  O1002   1.994   .     S
O1004  C1005   1.411   .     S
C1005  H1006   1.110   .     S
C1005  H1007   1.110   .     S
C1005  H1008   1.115   .     S
O1009  C1010   1.417   .     S
C1010  H1012   1.108   .     S
C1010  H1013   1.110   .     S
C1010  H1011   1.115   .     S
O1014  C1015   1.414   .     S
C1015  H1016   1.115   .     S
C1015  H1017   1.105   .     S
C1015  H1018   1.107   .     S
O1019  C1020   1.408   .     S
C1020  H1022   1.111   .     S
C1020  H1021   1.109   .     S
H1023  C1116   1.107   .     S
O1025  C1026   1.414   .     S
C1026  H1028   1.109   .     S
C1026  H1029   1.107   .     S
C1026  H1027   1.109   .     S
O1030  C1031   1.415   .     S
C1031  H1033   1.108   .     S
C1031  H1034   1.110   .     S
C1031  H1032   1.107   .     S
O1035  C1036   1.412   .     S
O1035  C120    1.381   1_556 S
C1036  H1039   1.109   .     S
C1036  H1037   1.113   .     S
C1036  H174    1.112   1_556 S
O1042  C1043   1.420   .     S
C1043  H1044   1.111   .     S
C1043  H1045   1.115   .     S
C1043  H1046   1.106   .     S
C1048  H1051   1.107   .     S
C1048  O1143   1.412   .     S
C1048  H1146   1.115   .     S
H1049  C184    1.112   1_556 S
O1052  C1053   1.413   .     S
C1053  H1054   1.115   .     S
C1053  H1055   1.111   .     S
C1053  H1056   1.108   .     S
C1057  O1091   1.302   .     A
C1057  C1073   1.449   .     S
C1057  O1092   1.311   .     A
C1058  C1059   1.415   .     A
C1058  C196    1.414   1_556 S
C1058  C220    1.411   1_556 S
C1059  C1063   1.407   .     A
C1059  C1066   1.424   .     A
C1060  C1064   1.403   .     A
C1061  C1062   1.410   .     A
C1061  C196    1.403   1_556 S
C1061  C216    1.402   1_556 S
C1062  O1126   1.379   .     S
C1062  C1063   1.402   .     A
C1063  O1148   1.383   .     S
C1064  C1081   1.421   .     A
C1064  I1136   2.143   .     S
C1065  C1081   1.419   .     A
C1065  I1099   2.116   .     S
C1065  C1080   1.408   .     A
C1066  C1082   1.403   .     A
C1066  C1068   1.484   .     S
C1067  H1088   1.079   .     S
C1067  C1073   1.400   .     A
C1067  C1357   1.404   .     S
C1068  O1093   1.317   .     A
C1068  O1094   1.311   .     A
C1069  C1070   1.403   .     A
C1069  O1100   1.391   .     S
C1069  C1643   1.404   1_545 S
C1070  C1078   1.442   .     S
C1070  C1071   1.389   .     A
C1071  H1087   1.077   .     S
C1071  C1648   1.393   1_545 S
C1072  C1073   1.403   .     A
C1072  O1105   1.389   .     S
C1072  C1359   1.393   .     S
C1074  N1090   1.384   .     A
C1074  O1110   1.379   .     S
C1074  C883    1.443   1_655 S
C1075  N1089   1.367   .     A
C1075  O1115   1.381   .     S
C1076  I1120   2.108   .     S
C1076  N1089   1.373   .     A
C1077  O1121   1.377   .     S
C1077  N1090   1.375   .     A
C1077  C884    1.428   1_655 S
C1078  O1095   1.307   .     A
C1078  O1096   1.302   .     A
C1079  O1098   1.325   .     A
C1079  O1097   1.304   .     A
C1079  C1081   1.485   .     S
C1082  C1083   1.391   .     A
C1082  I1137   2.126   .     S
C1083  C220    1.391   1_556 S
C1083  O279    1.375   1_556 S
C1084  O1138   1.381   .     S
Cu1085 N1089   2.052   .     S
Cu1085 Cu1086  2.731   .     S
Cu1085 O1095   1.955   .     S
Cu1085 O1097   1.995   .     S
Cu1085 O1091   1.953   .     S
Cu1085 O1093   1.994   .     S
Cu1086 O1094   1.995   .     S
Cu1086 N1090   2.052   .     S
Cu1086 O1096   1.953   .     S
Cu1086 O1092   1.955   .     S
Cu1086 O1098   1.994   .     S
O1100  C1101   1.411   .     S
C1101  H1102   1.110   .     S
C1101  H1103   1.110   .     S
C1101  H1104   1.115   .     S
O1105  C1106   1.417   .     S
C1106  H1108   1.108   .     S
C1106  H1109   1.110   .     S
C1106  H1107   1.115   .     S
O1110  C1111   1.414   .     S
C1111  H1112   1.115   .     S
C1111  H1113   1.105   .     S
C1111  H1114   1.107   .     S
O1115  C1116   1.408   .     S
C1116  H1118   1.111   .     S
C1116  H1117   1.109   .     S
H1119  C924    1.107   1_655 S
O1121  C1122   1.414   .     S
C1122  H1124   1.109   .     S
C1122  H1125   1.107   .     S
C1122  H1123   1.109   .     S
O1126  C1127   1.415   .     S
C1127  H1129   1.108   .     S
C1127  H1130   1.110   .     S
C1127  H1128   1.107   .     S
O1131  C1132   1.412   .     S
O1131  C216    1.381   1_556 S
C1132  H1135   1.109   .     S
C1132  H1133   1.113   .     S
C1132  H270    1.112   1_556 S
O1138  C1139   1.420   .     S
C1139  H1140   1.111   .     S
C1139  H1141   1.115   .     S
C1139  H1142   1.106   .     S
C1144  H1147   1.107   .     S
C1144  O951    1.412   1_655 S
C1144  H954    1.115   1_655 S
H1145  C280    1.112   1_556 S
O1148  C1149   1.413   .     S
C1149  H1150   1.115   .     S
C1149  H1151   1.111   .     S
C1149  H1152   1.108   .     S
C1153  O1187   1.302   .     A
C1153  C1169   1.449   .     S
C1153  O1188   1.311   .     A
C1154  C1155   1.415   .     A
C1154  C292    1.414   1_556 S
C1154  C316    1.411   1_556 S
C1155  C1159   1.407   .     A
C1155  C1162   1.424   .     A
C1156  C1160   1.403   .     A
C1157  C1158   1.410   .     A
C1157  C292    1.403   1_556 S
C1157  C312    1.402   1_556 S
C1158  O1222   1.379   .     S
C1158  C1159   1.402   .     A
C1159  O1244   1.383   .     S
C1160  C1177   1.421   .     A
C1160  I1232   2.143   .     S
C1161  C1177   1.419   .     A
C1161  I1195   2.116   .     S
C1161  C1176   1.408   .     A
C1162  C1178   1.403   .     A
C1162  C1164   1.484   .     S
C1163  H1184   1.079   .     S
C1163  C1169   1.400   .     A
C1163  C1453   1.404   .     S
C1164  O1189   1.317   .     A
C1164  O1190   1.311   .     A
C1165  C1166   1.403   .     A
C1165  O1196   1.391   .     S
C1166  C1174   1.442   .     S
C1166  C1167   1.389   .     A
C1167  H1183   1.077   .     S
C1168  C1169   1.403   .     A
C1168  O1201   1.389   .     S
C1168  C1455   1.393   .     S
C1170  N1186   1.384   .     A
C1170  O1206   1.379   .     S
C1170  C1267   1.443   .     S
C1171  N1185   1.367   .     A
C1171  O1211   1.381   .     S
C1171  C1362   1.443   1_455 S
C1172  I1216   2.108   .     S
C1172  N1185   1.373   .     A
C1172  C1365   1.428   1_455 S
C1173  O1217   1.377   .     S
C1173  N1186   1.375   .     A
C1173  C1268   1.428   .     S
C1174  O1191   1.307   .     A
C1174  O1192   1.302   .     A
C1175  O1194   1.325   .     A
C1175  O1193   1.304   .     A
C1175  C1177   1.485   .     S
C1178  C1179   1.391   .     A
C1178  I1233   2.126   .     S
C1179  C316    1.391   1_556 S
C1179  O375    1.375   1_556 S
C1180  O1234   1.381   .     S
Cu1181 N1185   2.052   .     S
Cu1181 Cu1182  2.731   .     S
Cu1181 O1191   1.955   .     S
Cu1181 O1193   1.995   .     S
Cu1181 O1187   1.953   .     S
Cu1181 O1189   1.994   .     S
Cu1182 O1190   1.995   .     S
Cu1182 N1186   2.052   .     S
Cu1182 O1192   1.953   .     S
Cu1182 O1188   1.955   .     S
Cu1182 O1194   1.994   .     S
O1196  C1197   1.411   .     S
C1197  H1198   1.110   .     S
C1197  H1199   1.110   .     S
C1197  H1200   1.115   .     S
O1201  C1202   1.417   .     S
C1202  H1204   1.108   .     S
C1202  H1205   1.110   .     S
C1202  H1203   1.115   .     S
O1206  C1207   1.414   .     S
C1207  H1208   1.115   .     S
C1207  H1209   1.105   .     S
C1207  H1210   1.107   .     S
O1211  C1212   1.408   .     S
C1212  H1214   1.111   .     S
C1212  H1213   1.109   .     S
C1212  H1407   1.107   1_455 S
H1215  C1308   1.107   .     S
O1217  C1218   1.414   .     S
C1218  H1220   1.109   .     S
C1218  H1221   1.107   .     S
C1218  H1219   1.109   .     S
O1222  C1223   1.415   .     S
C1223  H1225   1.108   .     S
C1223  H1226   1.110   .     S
C1223  H1224   1.107   .     S
O1227  C1228   1.412   .     S
O1227  C312    1.381   1_556 S
C1228  H1231   1.109   .     S
C1228  H1229   1.113   .     S
C1228  H366    1.112   1_556 S
O1234  C1235   1.420   .     S
C1235  H1236   1.111   .     S
C1235  H1237   1.115   .     S
C1235  H1238   1.106   .     S
O1239  C1432   1.412   1_455 S
C1240  H1243   1.107   .     S
C1240  O1335   1.412   .     S
C1240  H1338   1.115   .     S
H1241  C376    1.112   1_556 S
H1242  C1432   1.115   1_455 S
O1244  C1245   1.413   .     S
C1245  H1246   1.115   .     S
C1245  H1247   1.111   .     S
C1245  H1248   1.108   .     S
C1249  O1283   1.302   .     A
C1249  C1265   1.449   .     S
C1249  O1284   1.311   .     A
C1250  C1251   1.415   .     A
C1250  C388    1.414   1_556 S
C1250  C412    1.411   1_556 S
C1251  C1255   1.407   .     A
C1251  C1258   1.424   .     A
C1252  C1256   1.403   .     A
C1253  C1254   1.410   .     A
C1253  C388    1.403   1_556 S
C1253  C408    1.402   1_556 S
C1254  O1318   1.379   .     S
C1254  C1255   1.402   .     A
C1255  O1340   1.383   .     S
C1256  C1273   1.421   .     A
C1256  I1328   2.143   .     S
C1257  C1273   1.419   .     A
C1257  I1291   2.116   .     S
C1257  C1272   1.408   .     A
C1258  C1274   1.403   .     A
C1258  C1260   1.484   .     S
C1259  H1280   1.079   .     S
C1259  C1265   1.400   .     A
C1259  C1549   1.404   .     S
C1260  O1285   1.317   .     A
C1260  O1286   1.311   .     A
C1261  C1262   1.403   .     A
C1261  O1292   1.391   .     S
C1262  C1270   1.442   .     S
C1262  C1263   1.389   .     A
C1263  H1279   1.077   .     S
C1264  C1265   1.403   .     A
C1264  O1297   1.389   .     S
C1264  C1551   1.393   .     S
C1266  N1282   1.384   .     A
C1266  O1302   1.379   .     S
C1266  C1363   1.443   .     S
C1267  N1281   1.367   .     A
C1267  O1307   1.381   .     S
C1268  I1312   2.108   .     S
C1268  N1281   1.373   .     A
C1269  O1313   1.377   .     S
C1269  N1282   1.375   .     A
C1269  C1364   1.428   .     S
C1270  O1287   1.307   .     A
C1270  O1288   1.302   .     A
C1271  O1290   1.325   .     A
C1271  O1289   1.304   .     A
C1271  C1273   1.485   .     S
C1274  C1275   1.391   .     A
C1274  I1329   2.126   .     S
C1275  C412    1.391   1_556 S
C1275  O471    1.375   1_556 S
C1276  O1330   1.381   .     S
Cu1277 N1281   2.052   .     S
Cu1277 Cu1278  2.731   .     S
Cu1277 O1287   1.955   .     S
Cu1277 O1289   1.995   .     S
Cu1277 O1283   1.953   .     S
Cu1277 O1285   1.994   .     S
Cu1278 O1286   1.995   .     S
Cu1278 N1282   2.052   .     S
Cu1278 O1288   1.953   .     S
Cu1278 O1284   1.955   .     S
Cu1278 O1290   1.994   .     S
O1292  C1293   1.411   .     S
C1293  H1294   1.110   .     S
C1293  H1295   1.110   .     S
C1293  H1296   1.115   .     S
O1297  C1298   1.417   .     S
C1298  H1300   1.108   .     S
C1298  H1301   1.110   .     S
C1298  H1299   1.115   .     S
O1302  C1303   1.414   .     S
C1303  H1304   1.115   .     S
C1303  H1305   1.105   .     S
C1303  H1306   1.107   .     S
O1307  C1308   1.408   .     S
C1308  H1310   1.111   .     S
C1308  H1309   1.109   .     S
H1311  C1404   1.107   .     S
O1313  C1314   1.414   .     S
C1314  H1316   1.109   .     S
C1314  H1317   1.107   .     S
C1314  H1315   1.109   .     S
O1318  C1319   1.415   .     S
C1319  H1321   1.108   .     S
C1319  H1322   1.110   .     S
C1319  H1320   1.107   .     S
O1323  C1324   1.412   .     S
O1323  C408    1.381   1_556 S
C1324  H1327   1.109   .     S
C1324  H1325   1.113   .     S
C1324  H462    1.112   1_556 S
O1330  C1331   1.420   .     S
C1331  H1332   1.111   .     S
C1331  H1333   1.115   .     S
C1331  H1334   1.106   .     S
C1336  H1339   1.107   .     S
C1336  O1431   1.412   .     S
C1336  H1434   1.115   .     S
H1337  C472    1.112   1_556 S
O1340  C1341   1.413   .     S
C1341  H1342   1.115   .     S
C1341  H1343   1.111   .     S
C1341  H1344   1.108   .     S
C1345  O1379   1.302   .     A
C1345  C1361   1.449   .     S
C1345  O1380   1.311   .     A
C1346  C1347   1.415   .     A
C1346  C484    1.414   1_556 S
C1346  C508    1.411   1_556 S
C1347  C1351   1.407   .     A
C1347  C1354   1.424   .     A
C1348  C1352   1.403   .     A
C1349  C1350   1.410   .     A
C1349  C484    1.403   1_556 S
C1349  C504    1.402   1_556 S
C1350  O1414   1.379   .     S
C1350  C1351   1.402   .     A
C1351  O1436   1.383   .     S
C1352  C1369   1.421   .     A
C1352  I1424   2.143   .     S
C1353  C1369   1.419   .     A
C1353  I1387   2.116   .     S
C1353  C1368   1.408   .     A
C1354  C1370   1.403   .     A
C1354  C1356   1.484   .     S
C1355  H1376   1.079   .     S
C1355  C1361   1.400   .     A
C1355  C1645   1.404   .     S
C1356  O1381   1.317   .     A
C1356  O1382   1.311   .     A
C1357  C1358   1.403   .     A
C1357  O1388   1.391   .     S
C1358  C1366   1.442   .     S
C1358  C1359   1.389   .     A
C1359  H1375   1.077   .     S
C1360  C1361   1.403   .     A
C1360  O1393   1.389   .     S
C1360  C1647   1.393   .     S
C1362  N1378   1.384   .     A
C1362  O1398   1.379   .     S
C1362  C1171   1.443   1_655 S
C1363  N1377   1.367   .     A
C1363  O1403   1.381   .     S
C1364  I1408   2.108   .     S
C1364  N1377   1.373   .     A
C1365  O1409   1.377   .     S
C1365  N1378   1.375   .     A
C1365  C1172   1.428   1_655 S
C1366  O1383   1.307   .     A
C1366  O1384   1.302   .     A
C1367  O1386   1.325   .     A
C1367  O1385   1.304   .     A
C1367  C1369   1.485   .     S
C1370  C1371   1.391   .     A
C1370  I1425   2.126   .     S
C1371  C508    1.391   1_556 S
C1371  O567    1.375   1_556 S
C1372  O1426   1.381   .     S
Cu1373 N1377   2.052   .     S
Cu1373 Cu1374  2.731   .     S
Cu1373 O1383   1.955   .     S
Cu1373 O1385   1.995   .     S
Cu1373 O1379   1.953   .     S
Cu1373 O1381   1.994   .     S
Cu1374 O1382   1.995   .     S
Cu1374 N1378   2.052   .     S
Cu1374 O1384   1.953   .     S
Cu1374 O1380   1.955   .     S
Cu1374 O1386   1.994   .     S
O1388  C1389   1.411   .     S
C1389  H1390   1.110   .     S
C1389  H1391   1.110   .     S
C1389  H1392   1.115   .     S
O1393  C1394   1.417   .     S
C1394  H1396   1.108   .     S
C1394  H1397   1.110   .     S
C1394  H1395   1.115   .     S
O1398  C1399   1.414   .     S
C1399  H1400   1.115   .     S
C1399  H1401   1.105   .     S
C1399  H1402   1.107   .     S
O1403  C1404   1.408   .     S
C1404  H1406   1.111   .     S
C1404  H1405   1.109   .     S
H1407  C1212   1.107   1_655 S
O1409  C1410   1.414   .     S
C1410  H1412   1.109   .     S
C1410  H1413   1.107   .     S
C1410  H1411   1.109   .     S
O1414  C1415   1.415   .     S
C1415  H1417   1.108   .     S
C1415  H1418   1.110   .     S
C1415  H1416   1.107   .     S
O1419  C1420   1.412   .     S
O1419  C504    1.381   1_556 S
C1420  H1423   1.109   .     S
C1420  H1421   1.113   .     S
C1420  H558    1.112   1_556 S
O1426  C1427   1.420   .     S
C1427  H1428   1.111   .     S
C1427  H1429   1.115   .     S
C1427  H1430   1.106   .     S
C1432  H1435   1.107   .     S
C1432  O1239   1.412   1_655 S
C1432  H1242   1.115   1_655 S
H1433  C568    1.112   1_556 S
O1436  C1437   1.413   .     S
C1437  H1438   1.115   .     S
C1437  H1439   1.111   .     S
C1437  H1440   1.108   .     S
C1441  O1475   1.302   .     A
C1441  C1457   1.449   .     S
C1441  O1476   1.311   .     A
C1442  C1443   1.415   .     A
C1442  C580    1.414   1_556 S
C1442  C604    1.411   1_556 S
C1443  C1447   1.407   .     A
C1443  C1450   1.424   .     A
C1444  C1448   1.403   .     A
C1445  C1446   1.410   .     A
C1445  C580    1.403   1_556 S
C1445  C600    1.402   1_556 S
C1446  O1510   1.379   .     S
C1446  C1447   1.402   .     A
C1447  O1532   1.383   .     S
C1448  C1465   1.421   .     A
C1448  I1520   2.143   .     S
C1449  C1465   1.419   .     A
C1449  I1483   2.116   .     S
C1449  C1464   1.408   .     A
C1450  C1466   1.403   .     A
C1450  C1452   1.484   .     S
C1451  H1472   1.079   .     S
C1451  C1457   1.400   .     A
C1451  C877    1.404   1_565 S
C1452  O1477   1.317   .     A
C1452  O1478   1.311   .     A
C1453  C1454   1.403   .     A
C1453  O1484   1.391   .     S
C1454  C1462   1.442   .     S
C1454  C1455   1.389   .     A
C1455  H1471   1.077   .     S
C1456  C1457   1.403   .     A
C1456  O1489   1.389   .     S
C1456  C879    1.393   1_565 S
C1458  N1474   1.384   .     A
C1458  O1494   1.379   .     S
C1458  C1555   1.443   .     S
C1459  N1473   1.367   .     A
C1459  O1499   1.381   .     S
C1459  C1650   1.443   1_455 S
C1460  I1504   2.108   .     S
C1460  N1473   1.373   .     A
C1460  C1653   1.428   1_455 S
C1461  O1505   1.377   .     S
C1461  N1474   1.375   .     A
C1461  C1556   1.428   .     S
C1462  O1479   1.307   .     A
C1462  O1480   1.302   .     A
C1463  O1482   1.325   .     A
C1463  O1481   1.304   .     A
C1463  C1465   1.485   .     S
C1466  C1467   1.391   .     A
C1466  I1521   2.126   .     S
C1467  C604    1.391   1_556 S
C1467  O663    1.375   1_556 S
C1468  O1522   1.381   .     S
Cu1469 N1473   2.052   .     S
Cu1469 Cu1470  2.731   .     S
Cu1469 O1479   1.955   .     S
Cu1469 O1481   1.995   .     S
Cu1469 O1475   1.953   .     S
Cu1469 O1477   1.994   .     S
Cu1470 O1478   1.995   .     S
Cu1470 N1474   2.052   .     S
Cu1470 O1480   1.953   .     S
Cu1470 O1476   1.955   .     S
Cu1470 O1482   1.994   .     S
O1484  C1485   1.411   .     S
C1485  H1486   1.110   .     S
C1485  H1487   1.110   .     S
C1485  H1488   1.115   .     S
O1489  C1490   1.417   .     S
C1490  H1492   1.108   .     S
C1490  H1493   1.110   .     S
C1490  H1491   1.115   .     S
O1494  C1495   1.414   .     S
C1495  H1496   1.115   .     S
C1495  H1497   1.105   .     S
C1495  H1498   1.107   .     S
O1499  C1500   1.408   .     S
C1500  H1502   1.111   .     S
C1500  H1501   1.109   .     S
C1500  H1695   1.107   1_455 S
H1503  C1596   1.107   .     S
O1505  C1506   1.414   .     S
C1506  H1508   1.109   .     S
C1506  H1509   1.107   .     S
C1506  H1507   1.109   .     S
O1510  C1511   1.415   .     S
C1511  H1513   1.108   .     S
C1511  H1514   1.110   .     S
C1511  H1512   1.107   .     S
O1515  C1516   1.412   .     S
O1515  C600    1.381   1_556 S
C1516  H1519   1.109   .     S
C1516  H1517   1.113   .     S
C1516  H654    1.112   1_556 S
O1522  C1523   1.420   .     S
C1523  H1524   1.111   .     S
C1523  H1525   1.115   .     S
C1523  H1526   1.106   .     S
O1527  C1720   1.412   1_455 S
C1528  H1531   1.107   .     S
C1528  O1623   1.412   .     S
C1528  H1626   1.115   .     S
H1529  C664    1.112   1_556 S
H1530  C1720   1.115   1_455 S
O1532  C1533   1.413   .     S
C1533  H1534   1.115   .     S
C1533  H1535   1.111   .     S
C1533  H1536   1.108   .     S
C1537  O1571   1.302   .     A
C1537  C1553   1.449   .     S
C1537  O1572   1.311   .     A
C1538  C1539   1.415   .     A
C1538  C676    1.414   1_556 S
C1538  C700    1.411   1_556 S
C1539  C1543   1.407   .     A
C1539  C1546   1.424   .     A
C1540  C1544   1.403   .     A
C1541  C1542   1.410   .     A
C1541  C676    1.403   1_556 S
C1541  C696    1.402   1_556 S
C1542  O1606   1.379   .     S
C1542  C1543   1.402   .     A
C1543  O1628   1.383   .     S
C1544  C1561   1.421   .     A
C1544  I1616   2.143   .     S
C1545  C1561   1.419   .     A
C1545  I1579   2.116   .     S
C1545  C1560   1.408   .     A
C1546  C1562   1.403   .     A
C1546  C1548   1.484   .     S
C1547  H1568   1.079   .     S
C1547  C1553   1.400   .     A
C1547  C973    1.404   1_565 S
C1548  O1573   1.317   .     A
C1548  O1574   1.311   .     A
C1549  C1550   1.403   .     A
C1549  O1580   1.391   .     S
C1550  C1558   1.442   .     S
C1550  C1551   1.389   .     A
C1551  H1567   1.077   .     S
C1552  C1553   1.403   .     A
C1552  O1585   1.389   .     S
C1552  C975    1.393   1_565 S
C1554  N1570   1.384   .     A
C1554  O1590   1.379   .     S
C1554  C1651   1.443   .     S
C1555  N1569   1.367   .     A
C1555  O1595   1.381   .     S
C1556  I1600   2.108   .     S
C1556  N1569   1.373   .     A
C1557  O1601   1.377   .     S
C1557  N1570   1.375   .     A
C1557  C1652   1.428   .     S
C1558  O1575   1.307   .     A
C1558  O1576   1.302   .     A
C1559  O1578   1.325   .     A
C1559  O1577   1.304   .     A
C1559  C1561   1.485   .     S
C1562  C1563   1.391   .     A
C1562  I1617   2.126   .     S
C1563  C700    1.391   1_556 S
C1563  O759    1.375   1_556 S
C1564  O1618   1.381   .     S
Cu1565 N1569   2.052   .     S
Cu1565 Cu1566  2.731   .     S
Cu1565 O1575   1.955   .     S
Cu1565 O1577   1.995   .     S
Cu1565 O1571   1.953   .     S
Cu1565 O1573   1.994   .     S
Cu1566 O1574   1.995   .     S
Cu1566 N1570   2.052   .     S
Cu1566 O1576   1.953   .     S
Cu1566 O1572   1.955   .     S
Cu1566 O1578   1.994   .     S
O1580  C1581   1.411   .     S
C1581  H1582   1.110   .     S
C1581  H1583   1.110   .     S
C1581  H1584   1.115   .     S
O1585  C1586   1.417   .     S
C1586  H1588   1.108   .     S
C1586  H1589   1.110   .     S
C1586  H1587   1.115   .     S
O1590  C1591   1.414   .     S
C1591  H1592   1.115   .     S
C1591  H1593   1.105   .     S
C1591  H1594   1.107   .     S
O1595  C1596   1.408   .     S
C1596  H1598   1.111   .     S
C1596  H1597   1.109   .     S
H1599  C1692   1.107   .     S
O1601  C1602   1.414   .     S
C1602  H1604   1.109   .     S
C1602  H1605   1.107   .     S
C1602  H1603   1.109   .     S
O1606  C1607   1.415   .     S
C1607  H1609   1.108   .     S
C1607  H1610   1.110   .     S
C1607  H1608   1.107   .     S
O1611  C1612   1.412   .     S
O1611  C696    1.381   1_556 S
C1612  H1615   1.109   .     S
C1612  H1613   1.113   .     S
C1612  H750    1.112   1_556 S
O1618  C1619   1.420   .     S
C1619  H1620   1.111   .     S
C1619  H1621   1.115   .     S
C1619  H1622   1.106   .     S
C1624  H1627   1.107   .     S
C1624  O1719   1.412   .     S
C1624  H1722   1.115   .     S
H1625  C760    1.112   1_556 S
O1628  C1629   1.413   .     S
C1629  H1630   1.115   .     S
C1629  H1631   1.111   .     S
C1629  H1632   1.108   .     S
C1633  O1667   1.302   .     A
C1633  C1649   1.449   .     S
C1633  O1668   1.311   .     A
C1634  C1635   1.415   .     A
C1634  C772    1.414   1_556 S
C1634  C796    1.411   1_556 S
C1635  C1639   1.407   .     A
C1635  C1642   1.424   .     A
C1636  C1640   1.403   .     A
C1637  C1638   1.410   .     A
C1637  C772    1.403   1_556 S
C1637  C792    1.402   1_556 S
C1638  O1702   1.379   .     S
C1638  C1639   1.402   .     A
C1639  O1724   1.383   .     S
C1640  C1657   1.421   .     A
C1640  I1712   2.143   .     S
C1641  C1657   1.419   .     A
C1641  I1675   2.116   .     S
C1641  C1656   1.408   .     A
C1642  C1658   1.403   .     A
C1642  C1644   1.484   .     S
C1643  H1664   1.079   .     S
C1643  C1649   1.400   .     A
C1643  C1069   1.404   1_565 S
C1644  O1669   1.317   .     A
C1644  O1670   1.311   .     A
C1645  C1646   1.403   .     A
C1645  O1676   1.391   .     S
C1646  C1654   1.442   .     S
C1646  C1647   1.389   .     A
C1647  H1663   1.077   .     S
C1648  C1649   1.403   .     A
C1648  O1681   1.389   .     S
C1648  C1071   1.393   1_565 S
C1650  N1666   1.384   .     A
C1650  O1686   1.379   .     S
C1650  C1459   1.443   1_655 S
C1651  N1665   1.367   .     A
C1651  O1691   1.381   .     S
C1652  I1696   2.108   .     S
C1652  N1665   1.373   .     A
C1653  O1697   1.377   .     S
C1653  N1666   1.375   .     A
C1653  C1460   1.428   1_655 S
C1654  O1671   1.307   .     A
C1654  O1672   1.302   .     A
C1655  O1674   1.325   .     A
C1655  O1673   1.304   .     A
C1655  C1657   1.485   .     S
C1658  C1659   1.391   .     A
C1658  I1713   2.126   .     S
C1659  C796    1.391   1_556 S
C1659  O855    1.375   1_556 S
C1660  O1714   1.381   .     S
Cu1661 N1665   2.052   .     S
Cu1661 Cu1662  2.731   .     S
Cu1661 O1671   1.955   .     S
Cu1661 O1673   1.995   .     S
Cu1661 O1667   1.953   .     S
Cu1661 O1669   1.994   .     S
Cu1662 O1670   1.995   .     S
Cu1662 N1666   2.052   .     S
Cu1662 O1672   1.953   .     S
Cu1662 O1668   1.955   .     S
Cu1662 O1674   1.994   .     S
O1676  C1677   1.411   .     S
C1677  H1678   1.110   .     S
C1677  H1679   1.110   .     S
C1677  H1680   1.115   .     S
O1681  C1682   1.417   .     S
C1682  H1684   1.108   .     S
C1682  H1685   1.110   .     S
C1682  H1683   1.115   .     S
O1686  C1687   1.414   .     S
C1687  H1688   1.115   .     S
C1687  H1689   1.105   .     S
C1687  H1690   1.107   .     S
O1691  C1692   1.408   .     S
C1692  H1694   1.111   .     S
C1692  H1693   1.109   .     S
H1695  C1500   1.107   1_655 S
O1697  C1698   1.414   .     S
C1698  H1700   1.109   .     S
C1698  H1701   1.107   .     S
C1698  H1699   1.109   .     S
O1702  C1703   1.415   .     S
C1703  H1705   1.108   .     S
C1703  H1706   1.110   .     S
C1703  H1704   1.107   .     S
O1707  C1708   1.412   .     S
O1707  C792    1.381   1_556 S
C1708  H1711   1.109   .     S
C1708  H1709   1.113   .     S
C1708  H846    1.112   1_556 S
O1714  C1715   1.420   .     S
C1715  H1716   1.111   .     S
C1715  H1717   1.115   .     S
C1715  H1718   1.106   .     S
C1720  H1723   1.107   .     S
C1720  O1527   1.412   1_655 S
C1720  H1530   1.115   1_655 S
H1721  C856    1.112   1_556 S
O1724  C1725   1.413   .     S
C1725  H1726   1.115   .     S
C1725  H1727   1.111   .     S
C1725  H1728   1.108   .     S
