data_str_m2_o1_o16_pcu_sym.48
_audit_creation_date              2020-01-03
_audit_creation_method            'Materials Studio'
_symmetry_space_group_name_H-M    'P1'
_symmetry_Int_Tables_number       1
_symmetry_cell_setting            triclinic
loop_
_symmetry_equiv_pos_as_xyz
  x,y,z
_cell_length_a                    28.5355
_cell_length_b                    32.5011
_cell_length_c                    26.8834
_cell_angle_alpha                 90.1803
_cell_angle_beta                  71.9132
_cell_angle_gamma                 90.0216
loop_
_atom_site_label
_atom_site_type_symbol
_atom_site_fract_x
_atom_site_fract_y
_atom_site_fract_z
_atom_site_U_iso_or_equiv
_atom_site_adp_type
_atom_site_occupancy
C1     C     0.16665   0.24598   0.25012   0.00000  Uiso   1.00
C2     C     0.12255   0.16411   0.40882   0.00000  Uiso   1.00
C3     C     0.20909   0.31207   0.25057   0.00000  Uiso   1.00
C4     C     0.13987   0.16485   0.35050   0.00000  Uiso   1.00
C5     C     0.20910   0.02131   0.25052   0.00000  Uiso   1.00
C6     C     0.16661   0.04274   0.25017   0.00000  Uiso   1.00
C7     C     0.12409   0.02127   0.24996   0.00000  Uiso   1.00
C8     C     0.12408   0.31203   0.25002   0.00000  Uiso   1.00
C9     C     0.16660   0.29060   0.25025   0.00000  Uiso   1.00
C10    C     0.29991   0.19440   0.27958   0.00000  Uiso   1.00
C11    C     0.01625   0.19450   0.27938   0.00000  Uiso   1.00
C12    C     0.14550   0.16529   0.48982   0.00000  Uiso   1.00
C13    C     0.03347   0.13903   0.22026   0.00000  Uiso   1.00
C14    C     0.31719   0.13908   0.22021   0.00000  Uiso   1.00
C15    C     0.16664   0.08735   0.25003   0.00000  Uiso   1.00
C16    C     0.19319   0.16620   0.14985   0.00000  Uiso   1.00
C17    C     0.26117   0.12914   0.01415   0.00000  Uiso   1.00
C18    C     0.20867   0.16122   0.09294   0.00000  Uiso   1.00
C19    C     0.07483   0.17903   0.43743   0.00000  Uiso   1.00
C20    C     0.06408   0.18830   0.49037   0.00000  Uiso   1.00
C21    C     0.09893   0.18274   0.01585   0.00000  Uiso   1.00
C22    C     0.03410   0.18392   0.41476   0.00000  Uiso   1.00
C23    C     0.15572   0.15312   0.43671   0.00000  Uiso   1.00
C24    C     0.18168   0.15841   0.01536   0.00000  Uiso   1.00
C25    C     0.22550   0.13660   0.48913   0.00000  Uiso   1.00
C26    C     0.23240   0.12112   0.43902   0.00000  Uiso   1.00
C27    C     0.19799   0.12889   0.41338   0.00000  Uiso   1.00
C28    C     0.17517   0.17175   0.06678   0.00000  Uiso   1.00
C29    C     0.25260   0.14110   0.06606   0.00000  Uiso   1.00
Cu30   Cu    0.11978   0.16666   0.25000   0.00000  Uiso   1.00
Cu31   Cu    0.21355   0.16667   0.25000   0.00000  Uiso   1.00
H32    H     0.27904   0.13284   0.08582   0.00000  Uiso   1.00
H33    H     0.29479   0.11263   0.49422   0.00000  Uiso   1.00
H34    H     0.14361   0.18958   0.08835   0.00000  Uiso   1.00
H35    H     0.08695   0.19066   0.05676   0.00000  Uiso   1.00
H36    H     0.02794   0.19984   0.01253   0.00000  Uiso   1.00
H37    H     0.20414   0.11417   0.37580   0.00000  Uiso   1.00
H38    H     0.24232   0.29608   0.25082   0.00000  Uiso   1.00
H39    H     0.32376   0.15722   0.37782   0.00000  Uiso   1.00
H40    H     0.24233   0.03734   0.25073   0.00000  Uiso   1.00
H41    H     0.09086   0.03726   0.24971   0.00000  Uiso   1.00
H42    H     0.09084   0.29601   0.24983   0.00000  Uiso   1.00
H43    H     0.27427   0.21653   0.30344   0.00000  Uiso   1.00
H44    H     0.02806   0.21672   0.30304   0.00000  Uiso   1.00
H45    H     0.05911   0.11690   0.19642   0.00000  Uiso   1.00
H46    H     0.30544   0.11702   0.19631   0.00000  Uiso   1.00
H47    H     0.26435   0.10242   0.41968   0.00000  Uiso   1.00
N48    N     0.04931   0.16666   0.24998   0.00000  Uiso   1.00
N49    N     0.28402   0.16669   0.24999   0.00000  Uiso   1.00
O50    O     0.12708   0.22678   0.25000   0.00000  Uiso   1.00
O51    O     0.01937   0.15038   0.39056   0.00000  Uiso   1.00
O52    O     0.20627   0.22679   0.25000   0.00000  Uiso   1.00
O53    O     0.10775   0.16665   0.32549   0.00000  Uiso   1.00
O54    O     0.18694   0.16666   0.32549   0.00000  Uiso   1.00
O55    O     0.12706   0.10654   0.24999   0.00000  Uiso   1.00
O56    O     0.20625   0.10655   0.24999   0.00000  Uiso   1.00
O57    O     0.14640   0.16667   0.17451   0.00000  Uiso   1.00
O58    O     0.22559   0.16668   0.17451   0.00000  Uiso   1.00
O59    O     0.01177   0.21655   0.41967   0.00000  Uiso   1.00
C60    C     0.49998   0.24598   0.25012   0.00000  Uiso   1.00
C61    C     0.45588   0.16411   0.40882   0.00000  Uiso   1.00
C62    C     0.54243   0.31207   0.25057   0.00000  Uiso   1.00
C63    C     0.47320   0.16485   0.35050   0.00000  Uiso   1.00
C64    C     0.54243   0.02131   0.25052   0.00000  Uiso   1.00
C65    C     0.49994   0.04274   0.25017   0.00000  Uiso   1.00
C66    C     0.45742   0.02127   0.24996   0.00000  Uiso   1.00
C67    C     0.45741   0.31203   0.25002   0.00000  Uiso   1.00
C68    C     0.49994   0.29060   0.25025   0.00000  Uiso   1.00
C69    C     0.63324   0.19440   0.27958   0.00000  Uiso   1.00
C70    C     0.34958   0.19450   0.27938   0.00000  Uiso   1.00
C71    C     0.47883   0.16529   0.48982   0.00000  Uiso   1.00
C72    C     0.36680   0.13903   0.22026   0.00000  Uiso   1.00
C73    C     0.65052   0.13908   0.22021   0.00000  Uiso   1.00
C74    C     0.49998   0.08735   0.25003   0.00000  Uiso   1.00
C75    C     0.52652   0.16620   0.14985   0.00000  Uiso   1.00
C76    C     0.59450   0.12914   0.01415   0.00000  Uiso   1.00
C77    C     0.54200   0.16122   0.09294   0.00000  Uiso   1.00
C78    C     0.40816   0.17903   0.43743   0.00000  Uiso   1.00
C79    C     0.39741   0.18830   0.49037   0.00000  Uiso   1.00
C80    C     0.43227   0.18274   0.01585   0.00000  Uiso   1.00
C81    C     0.36744   0.18392   0.41476   0.00000  Uiso   1.00
C82    C     0.48906   0.15312   0.43671   0.00000  Uiso   1.00
C83    C     0.51501   0.15841   0.01536   0.00000  Uiso   1.00
C84    C     0.55884   0.13660   0.48913   0.00000  Uiso   1.00
C85    C     0.56573   0.12112   0.43902   0.00000  Uiso   1.00
C86    C     0.53132   0.12889   0.41338   0.00000  Uiso   1.00
C87    C     0.50850   0.17175   0.06678   0.00000  Uiso   1.00
C88    C     0.58594   0.14110   0.06606   0.00000  Uiso   1.00
Cu89   Cu    0.45311   0.16666   0.25000   0.00000  Uiso   1.00
Cu90   Cu    0.54689   0.16667   0.25000   0.00000  Uiso   1.00
H91    H     0.61238   0.13284   0.08582   0.00000  Uiso   1.00
H92    H     0.62812   0.11263   0.49422   0.00000  Uiso   1.00
H93    H     0.47694   0.18958   0.08835   0.00000  Uiso   1.00
H94    H     0.42028   0.19066   0.05676   0.00000  Uiso   1.00
H95    H     0.36127   0.19984   0.01253   0.00000  Uiso   1.00
H96    H     0.53747   0.11417   0.37580   0.00000  Uiso   1.00
H97    H     0.57565   0.29608   0.25082   0.00000  Uiso   1.00
H98    H     0.65709   0.15722   0.37782   0.00000  Uiso   1.00
H99    H     0.57566   0.03734   0.25073   0.00000  Uiso   1.00
H100   H     0.42419   0.03726   0.24971   0.00000  Uiso   1.00
H101   H     0.42417   0.29601   0.24983   0.00000  Uiso   1.00
H102   H     0.60760   0.21653   0.30344   0.00000  Uiso   1.00
H103   H     0.36140   0.21672   0.30304   0.00000  Uiso   1.00
H104   H     0.39244   0.11690   0.19642   0.00000  Uiso   1.00
H105   H     0.63877   0.11702   0.19631   0.00000  Uiso   1.00
H106   H     0.59768   0.10242   0.41968   0.00000  Uiso   1.00
N107   N     0.38265   0.16666   0.24998   0.00000  Uiso   1.00
N108   N     0.61735   0.16669   0.24999   0.00000  Uiso   1.00
O109   O     0.46042   0.22678   0.25000   0.00000  Uiso   1.00
O110   O     0.35270   0.15038   0.39056   0.00000  Uiso   1.00
O111   O     0.53961   0.22679   0.25000   0.00000  Uiso   1.00
O112   O     0.44108   0.16665   0.32549   0.00000  Uiso   1.00
O113   O     0.52027   0.16666   0.32549   0.00000  Uiso   1.00
O114   O     0.46039   0.10654   0.24999   0.00000  Uiso   1.00
O115   O     0.53958   0.10655   0.24999   0.00000  Uiso   1.00
O116   O     0.47973   0.16667   0.17451   0.00000  Uiso   1.00
O117   O     0.55892   0.16668   0.17451   0.00000  Uiso   1.00
O118   O     0.34511   0.21655   0.41967   0.00000  Uiso   1.00
C119   C     0.83331   0.24598   0.25012   0.00000  Uiso   1.00
C120   C     0.78921   0.16411   0.40882   0.00000  Uiso   1.00
C121   C     0.87576   0.31207   0.25057   0.00000  Uiso   1.00
C122   C     0.80653   0.16485   0.35050   0.00000  Uiso   1.00
C123   C     0.87577   0.02131   0.25052   0.00000  Uiso   1.00
C124   C     0.83328   0.04274   0.25017   0.00000  Uiso   1.00
C125   C     0.79075   0.02127   0.24996   0.00000  Uiso   1.00
C126   C     0.79074   0.31203   0.25002   0.00000  Uiso   1.00
C127   C     0.83327   0.29060   0.25025   0.00000  Uiso   1.00
C128   C     0.96657   0.19440   0.27958   0.00000  Uiso   1.00
C129   C     0.68291   0.19450   0.27938   0.00000  Uiso   1.00
C130   C     0.81217   0.16529   0.48982   0.00000  Uiso   1.00
C131   C     0.70013   0.13903   0.22026   0.00000  Uiso   1.00
C132   C     0.98386   0.13908   0.22021   0.00000  Uiso   1.00
C133   C     0.83331   0.08735   0.25003   0.00000  Uiso   1.00
C134   C     0.85986   0.16620   0.14985   0.00000  Uiso   1.00
C135   C     0.92783   0.12914   0.01415   0.00000  Uiso   1.00
C136   C     0.87533   0.16122   0.09294   0.00000  Uiso   1.00
C137   C     0.74149   0.17903   0.43743   0.00000  Uiso   1.00
C138   C     0.73074   0.18830   0.49037   0.00000  Uiso   1.00
C139   C     0.76560   0.18274   0.01585   0.00000  Uiso   1.00
C140   C     0.70077   0.18392   0.41476   0.00000  Uiso   1.00
C141   C     0.82239   0.15312   0.43671   0.00000  Uiso   1.00
C142   C     0.84834   0.15841   0.01536   0.00000  Uiso   1.00
C143   C     0.89217   0.13660   0.48913   0.00000  Uiso   1.00
C144   C     0.89907   0.12112   0.43902   0.00000  Uiso   1.00
C145   C     0.86465   0.12889   0.41338   0.00000  Uiso   1.00
C146   C     0.84183   0.17175   0.06678   0.00000  Uiso   1.00
C147   C     0.91927   0.14110   0.06606   0.00000  Uiso   1.00
Cu148  Cu    0.78645   0.16666   0.25000   0.00000  Uiso   1.00
Cu149  Cu    0.88022   0.16667   0.25000   0.00000  Uiso   1.00
H150   H     0.94571   0.13284   0.08582   0.00000  Uiso   1.00
H151   H     0.96146   0.11263   0.49422   0.00000  Uiso   1.00
H152   H     0.81028   0.18958   0.08835   0.00000  Uiso   1.00
H153   H     0.75362   0.19066   0.05676   0.00000  Uiso   1.00
H154   H     0.69460   0.19984   0.01253   0.00000  Uiso   1.00
H155   H     0.87080   0.11417   0.37580   0.00000  Uiso   1.00
H156   H     0.90898   0.29608   0.25082   0.00000  Uiso   1.00
H157   H     0.99043   0.15722   0.37782   0.00000  Uiso   1.00
H158   H     0.90900   0.03734   0.25073   0.00000  Uiso   1.00
H159   H     0.75753   0.03726   0.24971   0.00000  Uiso   1.00
H160   H     0.75751   0.29601   0.24983   0.00000  Uiso   1.00
H161   H     0.94094   0.21653   0.30344   0.00000  Uiso   1.00
H162   H     0.69473   0.21672   0.30304   0.00000  Uiso   1.00
H163   H     0.72578   0.11690   0.19642   0.00000  Uiso   1.00
H164   H     0.97210   0.11702   0.19631   0.00000  Uiso   1.00
H165   H     0.93101   0.10242   0.41968   0.00000  Uiso   1.00
N166   N     0.71598   0.16666   0.24998   0.00000  Uiso   1.00
N167   N     0.95069   0.16669   0.24999   0.00000  Uiso   1.00
O168   O     0.79375   0.22678   0.25000   0.00000  Uiso   1.00
O169   O     0.68604   0.15038   0.39056   0.00000  Uiso   1.00
O170   O     0.87294   0.22679   0.25000   0.00000  Uiso   1.00
O171   O     0.77441   0.16665   0.32549   0.00000  Uiso   1.00
O172   O     0.85360   0.16666   0.32549   0.00000  Uiso   1.00
O173   O     0.79373   0.10654   0.24999   0.00000  Uiso   1.00
O174   O     0.87292   0.10655   0.24999   0.00000  Uiso   1.00
O175   O     0.81306   0.16667   0.17451   0.00000  Uiso   1.00
O176   O     0.89225   0.16668   0.17451   0.00000  Uiso   1.00
O177   O     0.67844   0.21655   0.41967   0.00000  Uiso   1.00
C178   C     0.16665   0.57932   0.25012   0.00000  Uiso   1.00
C179   C     0.12255   0.49744   0.40882   0.00000  Uiso   1.00
C180   C     0.20909   0.64541   0.25057   0.00000  Uiso   1.00
C181   C     0.13987   0.49818   0.35050   0.00000  Uiso   1.00
C182   C     0.20910   0.35464   0.25052   0.00000  Uiso   1.00
C183   C     0.16661   0.37607   0.25017   0.00000  Uiso   1.00
C184   C     0.12409   0.35460   0.24996   0.00000  Uiso   1.00
C185   C     0.12408   0.64537   0.25002   0.00000  Uiso   1.00
C186   C     0.16660   0.62393   0.25025   0.00000  Uiso   1.00
C187   C     0.29991   0.52774   0.27958   0.00000  Uiso   1.00
C188   C     0.01625   0.52784   0.27938   0.00000  Uiso   1.00
C189   C     0.14550   0.49863   0.48982   0.00000  Uiso   1.00
C190   C     0.03347   0.47236   0.22026   0.00000  Uiso   1.00
C191   C     0.31719   0.47241   0.22021   0.00000  Uiso   1.00
C192   C     0.16664   0.42068   0.25003   0.00000  Uiso   1.00
C193   C     0.19319   0.49953   0.14985   0.00000  Uiso   1.00
C194   C     0.26117   0.46247   0.01415   0.00000  Uiso   1.00
C195   C     0.20867   0.49455   0.09294   0.00000  Uiso   1.00
C196   C     0.07483   0.51236   0.43743   0.00000  Uiso   1.00
C197   C     0.06408   0.52163   0.49037   0.00000  Uiso   1.00
C198   C     0.09893   0.51608   0.01585   0.00000  Uiso   1.00
C199   C     0.03410   0.51725   0.41476   0.00000  Uiso   1.00
C200   C     0.15572   0.48645   0.43671   0.00000  Uiso   1.00
C201   C     0.18168   0.49175   0.01536   0.00000  Uiso   1.00
C202   C     0.22550   0.46994   0.48913   0.00000  Uiso   1.00
C203   C     0.23240   0.45445   0.43902   0.00000  Uiso   1.00
C204   C     0.19799   0.46222   0.41338   0.00000  Uiso   1.00
C205   C     0.17517   0.50508   0.06678   0.00000  Uiso   1.00
C206   C     0.25260   0.47443   0.06606   0.00000  Uiso   1.00
Cu207  Cu    0.11978   0.49999   0.25000   0.00000  Uiso   1.00
Cu208  Cu    0.21355   0.50001   0.25000   0.00000  Uiso   1.00
H209   H     0.27904   0.46618   0.08582   0.00000  Uiso   1.00
H210   H     0.29479   0.44596   0.49422   0.00000  Uiso   1.00
H211   H     0.14361   0.52292   0.08835   0.00000  Uiso   1.00
H212   H     0.08695   0.52400   0.05676   0.00000  Uiso   1.00
H213   H     0.02794   0.53317   0.01253   0.00000  Uiso   1.00
H214   H     0.20414   0.44751   0.37580   0.00000  Uiso   1.00
H215   H     0.24232   0.62941   0.25082   0.00000  Uiso   1.00
H216   H     0.32376   0.49055   0.37782   0.00000  Uiso   1.00
H217   H     0.24233   0.37067   0.25073   0.00000  Uiso   1.00
H218   H     0.09086   0.37060   0.24971   0.00000  Uiso   1.00
H219   H     0.09084   0.62934   0.24983   0.00000  Uiso   1.00
H220   H     0.27427   0.54986   0.30344   0.00000  Uiso   1.00
H221   H     0.02806   0.55005   0.30304   0.00000  Uiso   1.00
H222   H     0.05911   0.45023   0.19642   0.00000  Uiso   1.00
H223   H     0.30544   0.45036   0.19631   0.00000  Uiso   1.00
H224   H     0.26435   0.43576   0.41968   0.00000  Uiso   1.00
N225   N     0.04931   0.49999   0.24998   0.00000  Uiso   1.00
N226   N     0.28402   0.50002   0.24999   0.00000  Uiso   1.00
O227   O     0.12708   0.56011   0.25000   0.00000  Uiso   1.00
O228   O     0.01937   0.48372   0.39056   0.00000  Uiso   1.00
O229   O     0.20627   0.56012   0.25000   0.00000  Uiso   1.00
O230   O     0.10775   0.49998   0.32549   0.00000  Uiso   1.00
O231   O     0.18694   0.49999   0.32549   0.00000  Uiso   1.00
O232   O     0.12706   0.43988   0.24999   0.00000  Uiso   1.00
O233   O     0.20625   0.43989   0.24999   0.00000  Uiso   1.00
O234   O     0.14640   0.50001   0.17451   0.00000  Uiso   1.00
O235   O     0.22559   0.50002   0.17451   0.00000  Uiso   1.00
O236   O     0.01177   0.54988   0.41967   0.00000  Uiso   1.00
C237   C     0.49998   0.57932   0.25012   0.00000  Uiso   1.00
C238   C     0.45588   0.49744   0.40882   0.00000  Uiso   1.00
C239   C     0.54243   0.64541   0.25057   0.00000  Uiso   1.00
C240   C     0.47320   0.49818   0.35050   0.00000  Uiso   1.00
C241   C     0.54243   0.35464   0.25052   0.00000  Uiso   1.00
C242   C     0.49994   0.37607   0.25017   0.00000  Uiso   1.00
C243   C     0.45742   0.35460   0.24996   0.00000  Uiso   1.00
C244   C     0.45741   0.64537   0.25002   0.00000  Uiso   1.00
C245   C     0.49994   0.62393   0.25025   0.00000  Uiso   1.00
C246   C     0.63324   0.52774   0.27958   0.00000  Uiso   1.00
C247   C     0.34958   0.52784   0.27938   0.00000  Uiso   1.00
C248   C     0.47883   0.49863   0.48982   0.00000  Uiso   1.00
C249   C     0.36680   0.47236   0.22026   0.00000  Uiso   1.00
C250   C     0.65052   0.47241   0.22021   0.00000  Uiso   1.00
C251   C     0.49998   0.42068   0.25003   0.00000  Uiso   1.00
C252   C     0.52652   0.49953   0.14985   0.00000  Uiso   1.00
C253   C     0.59450   0.46247   0.01415   0.00000  Uiso   1.00
C254   C     0.54200   0.49455   0.09294   0.00000  Uiso   1.00
C255   C     0.40816   0.51236   0.43743   0.00000  Uiso   1.00
C256   C     0.39741   0.52163   0.49037   0.00000  Uiso   1.00
C257   C     0.43227   0.51608   0.01585   0.00000  Uiso   1.00
C258   C     0.36744   0.51725   0.41476   0.00000  Uiso   1.00
C259   C     0.48906   0.48645   0.43671   0.00000  Uiso   1.00
C260   C     0.51501   0.49175   0.01536   0.00000  Uiso   1.00
C261   C     0.55884   0.46994   0.48913   0.00000  Uiso   1.00
C262   C     0.56573   0.45445   0.43902   0.00000  Uiso   1.00
C263   C     0.53132   0.46222   0.41338   0.00000  Uiso   1.00
C264   C     0.50850   0.50508   0.06678   0.00000  Uiso   1.00
C265   C     0.58594   0.47443   0.06606   0.00000  Uiso   1.00
Cu266  Cu    0.45311   0.49999   0.25000   0.00000  Uiso   1.00
Cu267  Cu    0.54689   0.50001   0.25000   0.00000  Uiso   1.00
H268   H     0.61238   0.46618   0.08582   0.00000  Uiso   1.00
H269   H     0.62812   0.44596   0.49422   0.00000  Uiso   1.00
H270   H     0.47694   0.52292   0.08835   0.00000  Uiso   1.00
H271   H     0.42028   0.52400   0.05676   0.00000  Uiso   1.00
H272   H     0.36127   0.53317   0.01253   0.00000  Uiso   1.00
H273   H     0.53747   0.44751   0.37580   0.00000  Uiso   1.00
H274   H     0.57565   0.62941   0.25082   0.00000  Uiso   1.00
H275   H     0.65709   0.49055   0.37782   0.00000  Uiso   1.00
H276   H     0.57566   0.37067   0.25073   0.00000  Uiso   1.00
H277   H     0.42419   0.37060   0.24971   0.00000  Uiso   1.00
H278   H     0.42417   0.62934   0.24983   0.00000  Uiso   1.00
H279   H     0.60760   0.54986   0.30344   0.00000  Uiso   1.00
H280   H     0.36140   0.55005   0.30304   0.00000  Uiso   1.00
H281   H     0.39244   0.45023   0.19642   0.00000  Uiso   1.00
H282   H     0.63877   0.45036   0.19631   0.00000  Uiso   1.00
H283   H     0.59768   0.43576   0.41968   0.00000  Uiso   1.00
N284   N     0.38265   0.49999   0.24998   0.00000  Uiso   1.00
N285   N     0.61735   0.50002   0.24999   0.00000  Uiso   1.00
O286   O     0.46042   0.56011   0.25000   0.00000  Uiso   1.00
O287   O     0.35270   0.48372   0.39056   0.00000  Uiso   1.00
O288   O     0.53961   0.56012   0.25000   0.00000  Uiso   1.00
O289   O     0.44108   0.49998   0.32549   0.00000  Uiso   1.00
O290   O     0.52027   0.49999   0.32549   0.00000  Uiso   1.00
O291   O     0.46039   0.43988   0.24999   0.00000  Uiso   1.00
O292   O     0.53958   0.43989   0.24999   0.00000  Uiso   1.00
O293   O     0.47973   0.50001   0.17451   0.00000  Uiso   1.00
O294   O     0.55892   0.50002   0.17451   0.00000  Uiso   1.00
O295   O     0.34511   0.54988   0.41967   0.00000  Uiso   1.00
C296   C     0.83331   0.57932   0.25012   0.00000  Uiso   1.00
C297   C     0.78921   0.49744   0.40882   0.00000  Uiso   1.00
C298   C     0.87576   0.64541   0.25057   0.00000  Uiso   1.00
C299   C     0.80653   0.49818   0.35050   0.00000  Uiso   1.00
C300   C     0.87577   0.35464   0.25052   0.00000  Uiso   1.00
C301   C     0.83328   0.37607   0.25017   0.00000  Uiso   1.00
C302   C     0.79075   0.35460   0.24996   0.00000  Uiso   1.00
C303   C     0.79074   0.64537   0.25002   0.00000  Uiso   1.00
C304   C     0.83327   0.62393   0.25025   0.00000  Uiso   1.00
C305   C     0.96657   0.52774   0.27958   0.00000  Uiso   1.00
C306   C     0.68291   0.52784   0.27938   0.00000  Uiso   1.00
C307   C     0.81217   0.49863   0.48982   0.00000  Uiso   1.00
C308   C     0.70013   0.47236   0.22026   0.00000  Uiso   1.00
C309   C     0.98386   0.47241   0.22021   0.00000  Uiso   1.00
C310   C     0.83331   0.42068   0.25003   0.00000  Uiso   1.00
C311   C     0.85986   0.49953   0.14985   0.00000  Uiso   1.00
C312   C     0.92783   0.46247   0.01415   0.00000  Uiso   1.00
C313   C     0.87533   0.49455   0.09294   0.00000  Uiso   1.00
C314   C     0.74149   0.51236   0.43743   0.00000  Uiso   1.00
C315   C     0.73074   0.52163   0.49037   0.00000  Uiso   1.00
C316   C     0.76560   0.51608   0.01585   0.00000  Uiso   1.00
C317   C     0.70077   0.51725   0.41476   0.00000  Uiso   1.00
C318   C     0.82239   0.48645   0.43671   0.00000  Uiso   1.00
C319   C     0.84834   0.49175   0.01536   0.00000  Uiso   1.00
C320   C     0.89217   0.46994   0.48913   0.00000  Uiso   1.00
C321   C     0.89907   0.45445   0.43902   0.00000  Uiso   1.00
C322   C     0.86465   0.46222   0.41338   0.00000  Uiso   1.00
C323   C     0.84183   0.50508   0.06678   0.00000  Uiso   1.00
C324   C     0.91927   0.47443   0.06606   0.00000  Uiso   1.00
Cu325  Cu    0.78645   0.49999   0.25000   0.00000  Uiso   1.00
Cu326  Cu    0.88022   0.50001   0.25000   0.00000  Uiso   1.00
H327   H     0.94571   0.46618   0.08582   0.00000  Uiso   1.00
H328   H     0.96146   0.44596   0.49422   0.00000  Uiso   1.00
H329   H     0.81028   0.52292   0.08835   0.00000  Uiso   1.00
H330   H     0.75362   0.52400   0.05676   0.00000  Uiso   1.00
H331   H     0.69460   0.53317   0.01253   0.00000  Uiso   1.00
H332   H     0.87080   0.44751   0.37580   0.00000  Uiso   1.00
H333   H     0.90898   0.62941   0.25082   0.00000  Uiso   1.00
H334   H     0.99043   0.49055   0.37782   0.00000  Uiso   1.00
H335   H     0.90900   0.37067   0.25073   0.00000  Uiso   1.00
H336   H     0.75753   0.37060   0.24971   0.00000  Uiso   1.00
H337   H     0.75751   0.62934   0.24983   0.00000  Uiso   1.00
H338   H     0.94094   0.54986   0.30344   0.00000  Uiso   1.00
H339   H     0.69473   0.55005   0.30304   0.00000  Uiso   1.00
H340   H     0.72578   0.45023   0.19642   0.00000  Uiso   1.00
H341   H     0.97210   0.45036   0.19631   0.00000  Uiso   1.00
H342   H     0.93101   0.43576   0.41968   0.00000  Uiso   1.00
N343   N     0.71598   0.49999   0.24998   0.00000  Uiso   1.00
N344   N     0.95069   0.50002   0.24999   0.00000  Uiso   1.00
O345   O     0.79375   0.56011   0.25000   0.00000  Uiso   1.00
O346   O     0.68604   0.48372   0.39056   0.00000  Uiso   1.00
O347   O     0.87294   0.56012   0.25000   0.00000  Uiso   1.00
O348   O     0.77441   0.49998   0.32549   0.00000  Uiso   1.00
O349   O     0.85360   0.49999   0.32549   0.00000  Uiso   1.00
O350   O     0.79373   0.43988   0.24999   0.00000  Uiso   1.00
O351   O     0.87292   0.43989   0.24999   0.00000  Uiso   1.00
O352   O     0.81306   0.50001   0.17451   0.00000  Uiso   1.00
O353   O     0.89225   0.50002   0.17451   0.00000  Uiso   1.00
O354   O     0.67844   0.54988   0.41967   0.00000  Uiso   1.00
C355   C     0.16665   0.91265   0.25012   0.00000  Uiso   1.00
C356   C     0.12255   0.83078   0.40882   0.00000  Uiso   1.00
C357   C     0.20909   0.97874   0.25057   0.00000  Uiso   1.00
C358   C     0.13987   0.83151   0.35050   0.00000  Uiso   1.00
C359   C     0.20910   0.68798   0.25052   0.00000  Uiso   1.00
C360   C     0.16661   0.70941   0.25017   0.00000  Uiso   1.00
C361   C     0.12409   0.68793   0.24996   0.00000  Uiso   1.00
C362   C     0.12408   0.97870   0.25002   0.00000  Uiso   1.00
C363   C     0.16660   0.95727   0.25025   0.00000  Uiso   1.00
C364   C     0.29991   0.86107   0.27958   0.00000  Uiso   1.00
C365   C     0.01625   0.86117   0.27938   0.00000  Uiso   1.00
C366   C     0.14550   0.83196   0.48982   0.00000  Uiso   1.00
C367   C     0.03347   0.80570   0.22026   0.00000  Uiso   1.00
C368   C     0.31719   0.80575   0.22021   0.00000  Uiso   1.00
C369   C     0.16664   0.75402   0.25003   0.00000  Uiso   1.00
C370   C     0.19319   0.83287   0.14985   0.00000  Uiso   1.00
C371   C     0.26117   0.79580   0.01415   0.00000  Uiso   1.00
C372   C     0.20867   0.82789   0.09294   0.00000  Uiso   1.00
C373   C     0.07483   0.84570   0.43743   0.00000  Uiso   1.00
C374   C     0.06408   0.85497   0.49037   0.00000  Uiso   1.00
C375   C     0.09893   0.84941   0.01585   0.00000  Uiso   1.00
C376   C     0.03410   0.85058   0.41476   0.00000  Uiso   1.00
C377   C     0.15572   0.81978   0.43671   0.00000  Uiso   1.00
C378   C     0.18168   0.82508   0.01536   0.00000  Uiso   1.00
C379   C     0.22550   0.80327   0.48913   0.00000  Uiso   1.00
C380   C     0.23240   0.78778   0.43902   0.00000  Uiso   1.00
C381   C     0.19799   0.79556   0.41338   0.00000  Uiso   1.00
C382   C     0.17517   0.83841   0.06678   0.00000  Uiso   1.00
C383   C     0.25260   0.80776   0.06606   0.00000  Uiso   1.00
Cu384  Cu    0.11978   0.83333   0.25000   0.00000  Uiso   1.00
Cu385  Cu    0.21355   0.83334   0.25000   0.00000  Uiso   1.00
H386   H     0.27904   0.79951   0.08582   0.00000  Uiso   1.00
H387   H     0.29479   0.77930   0.49422   0.00000  Uiso   1.00
H388   H     0.14361   0.85625   0.08835   0.00000  Uiso   1.00
H389   H     0.08695   0.85733   0.05676   0.00000  Uiso   1.00
H390   H     0.02794   0.86651   0.01253   0.00000  Uiso   1.00
H391   H     0.20414   0.78084   0.37580   0.00000  Uiso   1.00
H392   H     0.24232   0.96275   0.25082   0.00000  Uiso   1.00
H393   H     0.32376   0.82389   0.37782   0.00000  Uiso   1.00
H394   H     0.24233   0.70401   0.25073   0.00000  Uiso   1.00
H395   H     0.09086   0.70393   0.24971   0.00000  Uiso   1.00
H396   H     0.09084   0.96267   0.24983   0.00000  Uiso   1.00
H397   H     0.27427   0.88319   0.30344   0.00000  Uiso   1.00
H398   H     0.02806   0.88339   0.30304   0.00000  Uiso   1.00
H399   H     0.05911   0.78356   0.19642   0.00000  Uiso   1.00
H400   H     0.30544   0.78369   0.19631   0.00000  Uiso   1.00
H401   H     0.26435   0.76909   0.41968   0.00000  Uiso   1.00
N402   N     0.04931   0.83332   0.24998   0.00000  Uiso   1.00
N403   N     0.28402   0.83335   0.24999   0.00000  Uiso   1.00
O404   O     0.12708   0.89345   0.25000   0.00000  Uiso   1.00
O405   O     0.01937   0.81705   0.39056   0.00000  Uiso   1.00
O406   O     0.20627   0.89346   0.25000   0.00000  Uiso   1.00
O407   O     0.10775   0.83332   0.32549   0.00000  Uiso   1.00
O408   O     0.18694   0.83333   0.32549   0.00000  Uiso   1.00
O409   O     0.12706   0.77321   0.24999   0.00000  Uiso   1.00
O410   O     0.20625   0.77322   0.24999   0.00000  Uiso   1.00
O411   O     0.14640   0.83334   0.17451   0.00000  Uiso   1.00
O412   O     0.22559   0.83335   0.17451   0.00000  Uiso   1.00
O413   O     0.01177   0.88322   0.41967   0.00000  Uiso   1.00
C414   C     0.49998   0.91265   0.25012   0.00000  Uiso   1.00
C415   C     0.45588   0.83078   0.40882   0.00000  Uiso   1.00
C416   C     0.54243   0.97874   0.25057   0.00000  Uiso   1.00
C417   C     0.47320   0.83151   0.35050   0.00000  Uiso   1.00
C418   C     0.54243   0.68798   0.25052   0.00000  Uiso   1.00
C419   C     0.49994   0.70941   0.25017   0.00000  Uiso   1.00
C420   C     0.45742   0.68793   0.24996   0.00000  Uiso   1.00
C421   C     0.45741   0.97870   0.25002   0.00000  Uiso   1.00
C422   C     0.49994   0.95727   0.25025   0.00000  Uiso   1.00
C423   C     0.63324   0.86107   0.27958   0.00000  Uiso   1.00
C424   C     0.34958   0.86117   0.27938   0.00000  Uiso   1.00
C425   C     0.47883   0.83196   0.48982   0.00000  Uiso   1.00
C426   C     0.36680   0.80570   0.22026   0.00000  Uiso   1.00
C427   C     0.65052   0.80575   0.22021   0.00000  Uiso   1.00
C428   C     0.49998   0.75402   0.25003   0.00000  Uiso   1.00
C429   C     0.52652   0.83287   0.14985   0.00000  Uiso   1.00
C430   C     0.59450   0.79580   0.01415   0.00000  Uiso   1.00
C431   C     0.54200   0.82789   0.09294   0.00000  Uiso   1.00
C432   C     0.40816   0.84570   0.43743   0.00000  Uiso   1.00
C433   C     0.39741   0.85497   0.49037   0.00000  Uiso   1.00
C434   C     0.43227   0.84941   0.01585   0.00000  Uiso   1.00
C435   C     0.36744   0.85058   0.41476   0.00000  Uiso   1.00
C436   C     0.48906   0.81978   0.43671   0.00000  Uiso   1.00
C437   C     0.51501   0.82508   0.01536   0.00000  Uiso   1.00
C438   C     0.55884   0.80327   0.48913   0.00000  Uiso   1.00
C439   C     0.56573   0.78778   0.43902   0.00000  Uiso   1.00
C440   C     0.53132   0.79556   0.41338   0.00000  Uiso   1.00
C441   C     0.50850   0.83841   0.06678   0.00000  Uiso   1.00
C442   C     0.58594   0.80776   0.06606   0.00000  Uiso   1.00
Cu443  Cu    0.45311   0.83333   0.25000   0.00000  Uiso   1.00
Cu444  Cu    0.54689   0.83334   0.25000   0.00000  Uiso   1.00
H445   H     0.61238   0.79951   0.08582   0.00000  Uiso   1.00
H446   H     0.62812   0.77930   0.49422   0.00000  Uiso   1.00
H447   H     0.47694   0.85625   0.08835   0.00000  Uiso   1.00
H448   H     0.42028   0.85733   0.05676   0.00000  Uiso   1.00
H449   H     0.36127   0.86651   0.01253   0.00000  Uiso   1.00
H450   H     0.53747   0.78084   0.37580   0.00000  Uiso   1.00
H451   H     0.57565   0.96275   0.25082   0.00000  Uiso   1.00
H452   H     0.65709   0.82389   0.37782   0.00000  Uiso   1.00
H453   H     0.57566   0.70401   0.25073   0.00000  Uiso   1.00
H454   H     0.42419   0.70393   0.24971   0.00000  Uiso   1.00
H455   H     0.42417   0.96267   0.24983   0.00000  Uiso   1.00
H456   H     0.60760   0.88319   0.30344   0.00000  Uiso   1.00
H457   H     0.36140   0.88339   0.30304   0.00000  Uiso   1.00
H458   H     0.39244   0.78356   0.19642   0.00000  Uiso   1.00
H459   H     0.63877   0.78369   0.19631   0.00000  Uiso   1.00
H460   H     0.59768   0.76909   0.41968   0.00000  Uiso   1.00
N461   N     0.38265   0.83332   0.24998   0.00000  Uiso   1.00
N462   N     0.61735   0.83335   0.24999   0.00000  Uiso   1.00
O463   O     0.46042   0.89345   0.25000   0.00000  Uiso   1.00
O464   O     0.35270   0.81705   0.39056   0.00000  Uiso   1.00
O465   O     0.53961   0.89346   0.25000   0.00000  Uiso   1.00
O466   O     0.44108   0.83332   0.32549   0.00000  Uiso   1.00
O467   O     0.52027   0.83333   0.32549   0.00000  Uiso   1.00
O468   O     0.46039   0.77321   0.24999   0.00000  Uiso   1.00
O469   O     0.53958   0.77322   0.24999   0.00000  Uiso   1.00
O470   O     0.47973   0.83334   0.17451   0.00000  Uiso   1.00
O471   O     0.55892   0.83335   0.17451   0.00000  Uiso   1.00
O472   O     0.34511   0.88322   0.41967   0.00000  Uiso   1.00
C473   C     0.83331   0.91265   0.25012   0.00000  Uiso   1.00
C474   C     0.78921   0.83078   0.40882   0.00000  Uiso   1.00
C475   C     0.87576   0.97874   0.25057   0.00000  Uiso   1.00
C476   C     0.80653   0.83151   0.35050   0.00000  Uiso   1.00
C477   C     0.87577   0.68798   0.25052   0.00000  Uiso   1.00
C478   C     0.83328   0.70941   0.25017   0.00000  Uiso   1.00
C479   C     0.79075   0.68793   0.24996   0.00000  Uiso   1.00
C480   C     0.79074   0.97870   0.25002   0.00000  Uiso   1.00
C481   C     0.83327   0.95727   0.25025   0.00000  Uiso   1.00
C482   C     0.96657   0.86107   0.27958   0.00000  Uiso   1.00
C483   C     0.68291   0.86117   0.27938   0.00000  Uiso   1.00
C484   C     0.81217   0.83196   0.48982   0.00000  Uiso   1.00
C485   C     0.70013   0.80570   0.22026   0.00000  Uiso   1.00
C486   C     0.98386   0.80575   0.22021   0.00000  Uiso   1.00
C487   C     0.83331   0.75402   0.25003   0.00000  Uiso   1.00
C488   C     0.85986   0.83287   0.14985   0.00000  Uiso   1.00
C489   C     0.92783   0.79580   0.01415   0.00000  Uiso   1.00
C490   C     0.87533   0.82789   0.09294   0.00000  Uiso   1.00
C491   C     0.74149   0.84570   0.43743   0.00000  Uiso   1.00
C492   C     0.73074   0.85497   0.49037   0.00000  Uiso   1.00
C493   C     0.76560   0.84941   0.01585   0.00000  Uiso   1.00
C494   C     0.70077   0.85058   0.41476   0.00000  Uiso   1.00
C495   C     0.82239   0.81978   0.43671   0.00000  Uiso   1.00
C496   C     0.84834   0.82508   0.01536   0.00000  Uiso   1.00
C497   C     0.89217   0.80327   0.48913   0.00000  Uiso   1.00
C498   C     0.89907   0.78778   0.43902   0.00000  Uiso   1.00
C499   C     0.86465   0.79556   0.41338   0.00000  Uiso   1.00
C500   C     0.84183   0.83841   0.06678   0.00000  Uiso   1.00
C501   C     0.91927   0.80776   0.06606   0.00000  Uiso   1.00
Cu502  Cu    0.78645   0.83333   0.25000   0.00000  Uiso   1.00
Cu503  Cu    0.88022   0.83334   0.25000   0.00000  Uiso   1.00
H504   H     0.94571   0.79951   0.08582   0.00000  Uiso   1.00
H505   H     0.96146   0.77930   0.49422   0.00000  Uiso   1.00
H506   H     0.81028   0.85625   0.08835   0.00000  Uiso   1.00
H507   H     0.75362   0.85733   0.05676   0.00000  Uiso   1.00
H508   H     0.69460   0.86651   0.01253   0.00000  Uiso   1.00
H509   H     0.87080   0.78084   0.37580   0.00000  Uiso   1.00
H510   H     0.90898   0.96275   0.25082   0.00000  Uiso   1.00
H511   H     0.99043   0.82389   0.37782   0.00000  Uiso   1.00
H512   H     0.90900   0.70401   0.25073   0.00000  Uiso   1.00
H513   H     0.75753   0.70393   0.24971   0.00000  Uiso   1.00
H514   H     0.75751   0.96267   0.24983   0.00000  Uiso   1.00
H515   H     0.94094   0.88319   0.30344   0.00000  Uiso   1.00
H516   H     0.69473   0.88339   0.30304   0.00000  Uiso   1.00
H517   H     0.72578   0.78356   0.19642   0.00000  Uiso   1.00
H518   H     0.97210   0.78369   0.19631   0.00000  Uiso   1.00
H519   H     0.93101   0.76909   0.41968   0.00000  Uiso   1.00
N520   N     0.71598   0.83332   0.24998   0.00000  Uiso   1.00
N521   N     0.95069   0.83335   0.24999   0.00000  Uiso   1.00
O522   O     0.79375   0.89345   0.25000   0.00000  Uiso   1.00
O523   O     0.68604   0.81705   0.39056   0.00000  Uiso   1.00
O524   O     0.87294   0.89346   0.25000   0.00000  Uiso   1.00
O525   O     0.77441   0.83332   0.32549   0.00000  Uiso   1.00
O526   O     0.85360   0.83333   0.32549   0.00000  Uiso   1.00
O527   O     0.79373   0.77321   0.24999   0.00000  Uiso   1.00
O528   O     0.87292   0.77322   0.24999   0.00000  Uiso   1.00
O529   O     0.81306   0.83334   0.17451   0.00000  Uiso   1.00
O530   O     0.89225   0.83335   0.17451   0.00000  Uiso   1.00
O531   O     0.67844   0.88322   0.41967   0.00000  Uiso   1.00
C532   C     0.16665   0.24598   0.75012   0.00000  Uiso   1.00
C533   C     0.12255   0.16411   0.90882   0.00000  Uiso   1.00
C534   C     0.20909   0.31207   0.75057   0.00000  Uiso   1.00
C535   C     0.13987   0.16485   0.85050   0.00000  Uiso   1.00
C536   C     0.20910   0.02131   0.75052   0.00000  Uiso   1.00
C537   C     0.16661   0.04274   0.75017   0.00000  Uiso   1.00
C538   C     0.12409   0.02127   0.74996   0.00000  Uiso   1.00
C539   C     0.12408   0.31203   0.75002   0.00000  Uiso   1.00
C540   C     0.16660   0.29060   0.75025   0.00000  Uiso   1.00
C541   C     0.29991   0.19440   0.77958   0.00000  Uiso   1.00
C542   C     0.01625   0.19450   0.77938   0.00000  Uiso   1.00
C543   C     0.14550   0.16529   0.98982   0.00000  Uiso   1.00
C544   C     0.03347   0.13903   0.72026   0.00000  Uiso   1.00
C545   C     0.31719   0.13908   0.72021   0.00000  Uiso   1.00
C546   C     0.16664   0.08735   0.75003   0.00000  Uiso   1.00
C547   C     0.19319   0.16620   0.64985   0.00000  Uiso   1.00
C548   C     0.26117   0.12914   0.51415   0.00000  Uiso   1.00
C549   C     0.20867   0.16122   0.59294   0.00000  Uiso   1.00
C550   C     0.07483   0.17903   0.93743   0.00000  Uiso   1.00
C551   C     0.06408   0.18830   0.99037   0.00000  Uiso   1.00
C552   C     0.09893   0.18274   0.51585   0.00000  Uiso   1.00
C553   C     0.03410   0.18392   0.91476   0.00000  Uiso   1.00
C554   C     0.15572   0.15312   0.93671   0.00000  Uiso   1.00
C555   C     0.18168   0.15841   0.51536   0.00000  Uiso   1.00
C556   C     0.22550   0.13660   0.98913   0.00000  Uiso   1.00
C557   C     0.23240   0.12112   0.93902   0.00000  Uiso   1.00
C558   C     0.19799   0.12889   0.91338   0.00000  Uiso   1.00
C559   C     0.17517   0.17175   0.56678   0.00000  Uiso   1.00
C560   C     0.25260   0.14110   0.56606   0.00000  Uiso   1.00
Cu561  Cu    0.11978   0.16666   0.75000   0.00000  Uiso   1.00
Cu562  Cu    0.21355   0.16667   0.75000   0.00000  Uiso   1.00
H563   H     0.27904   0.13284   0.58582   0.00000  Uiso   1.00
H564   H     0.29479   0.11263   0.99422   0.00000  Uiso   1.00
H565   H     0.14361   0.18958   0.58835   0.00000  Uiso   1.00
H566   H     0.08695   0.19066   0.55676   0.00000  Uiso   1.00
H567   H     0.02794   0.19984   0.51253   0.00000  Uiso   1.00
H568   H     0.20414   0.11417   0.87580   0.00000  Uiso   1.00
H569   H     0.24232   0.29608   0.75082   0.00000  Uiso   1.00
H570   H     0.32376   0.15722   0.87782   0.00000  Uiso   1.00
H571   H     0.24233   0.03734   0.75073   0.00000  Uiso   1.00
H572   H     0.09086   0.03726   0.74971   0.00000  Uiso   1.00
H573   H     0.09084   0.29601   0.74983   0.00000  Uiso   1.00
H574   H     0.27427   0.21653   0.80344   0.00000  Uiso   1.00
H575   H     0.02806   0.21672   0.80304   0.00000  Uiso   1.00
H576   H     0.05911   0.11690   0.69642   0.00000  Uiso   1.00
H577   H     0.30544   0.11702   0.69631   0.00000  Uiso   1.00
H578   H     0.26435   0.10242   0.91968   0.00000  Uiso   1.00
N579   N     0.04931   0.16666   0.74998   0.00000  Uiso   1.00
N580   N     0.28402   0.16669   0.74999   0.00000  Uiso   1.00
O581   O     0.12708   0.22678   0.75000   0.00000  Uiso   1.00
O582   O     0.01937   0.15038   0.89056   0.00000  Uiso   1.00
O583   O     0.20627   0.22679   0.75000   0.00000  Uiso   1.00
O584   O     0.10775   0.16665   0.82549   0.00000  Uiso   1.00
O585   O     0.18694   0.16666   0.82549   0.00000  Uiso   1.00
O586   O     0.12706   0.10654   0.74999   0.00000  Uiso   1.00
O587   O     0.20625   0.10655   0.74999   0.00000  Uiso   1.00
O588   O     0.14640   0.16667   0.67451   0.00000  Uiso   1.00
O589   O     0.22559   0.16668   0.67451   0.00000  Uiso   1.00
O590   O     0.01177   0.21655   0.91967   0.00000  Uiso   1.00
C591   C     0.49998   0.24598   0.75012   0.00000  Uiso   1.00
C592   C     0.45588   0.16411   0.90882   0.00000  Uiso   1.00
C593   C     0.54243   0.31207   0.75057   0.00000  Uiso   1.00
C594   C     0.47320   0.16485   0.85050   0.00000  Uiso   1.00
C595   C     0.54243   0.02131   0.75052   0.00000  Uiso   1.00
C596   C     0.49994   0.04274   0.75017   0.00000  Uiso   1.00
C597   C     0.45742   0.02127   0.74996   0.00000  Uiso   1.00
C598   C     0.45741   0.31203   0.75002   0.00000  Uiso   1.00
C599   C     0.49994   0.29060   0.75025   0.00000  Uiso   1.00
C600   C     0.63324   0.19440   0.77958   0.00000  Uiso   1.00
C601   C     0.34958   0.19450   0.77938   0.00000  Uiso   1.00
C602   C     0.47883   0.16529   0.98982   0.00000  Uiso   1.00
C603   C     0.36680   0.13903   0.72026   0.00000  Uiso   1.00
C604   C     0.65052   0.13908   0.72021   0.00000  Uiso   1.00
C605   C     0.49998   0.08735   0.75003   0.00000  Uiso   1.00
C606   C     0.52652   0.16620   0.64985   0.00000  Uiso   1.00
C607   C     0.59450   0.12914   0.51415   0.00000  Uiso   1.00
C608   C     0.54200   0.16122   0.59294   0.00000  Uiso   1.00
C609   C     0.40816   0.17903   0.93743   0.00000  Uiso   1.00
C610   C     0.39741   0.18830   0.99037   0.00000  Uiso   1.00
C611   C     0.43227   0.18274   0.51585   0.00000  Uiso   1.00
C612   C     0.36744   0.18392   0.91476   0.00000  Uiso   1.00
C613   C     0.48906   0.15312   0.93671   0.00000  Uiso   1.00
C614   C     0.51501   0.15841   0.51536   0.00000  Uiso   1.00
C615   C     0.55884   0.13660   0.98913   0.00000  Uiso   1.00
C616   C     0.56573   0.12112   0.93902   0.00000  Uiso   1.00
C617   C     0.53132   0.12889   0.91338   0.00000  Uiso   1.00
C618   C     0.50850   0.17175   0.56678   0.00000  Uiso   1.00
C619   C     0.58594   0.14110   0.56606   0.00000  Uiso   1.00
Cu620  Cu    0.45311   0.16666   0.75000   0.00000  Uiso   1.00
Cu621  Cu    0.54689   0.16667   0.75000   0.00000  Uiso   1.00
H622   H     0.61238   0.13284   0.58582   0.00000  Uiso   1.00
H623   H     0.62812   0.11263   0.99422   0.00000  Uiso   1.00
H624   H     0.47694   0.18958   0.58835   0.00000  Uiso   1.00
H625   H     0.42028   0.19066   0.55676   0.00000  Uiso   1.00
H626   H     0.36127   0.19984   0.51253   0.00000  Uiso   1.00
H627   H     0.53747   0.11417   0.87580   0.00000  Uiso   1.00
H628   H     0.57565   0.29608   0.75082   0.00000  Uiso   1.00
H629   H     0.65709   0.15722   0.87782   0.00000  Uiso   1.00
H630   H     0.57566   0.03734   0.75073   0.00000  Uiso   1.00
H631   H     0.42419   0.03726   0.74971   0.00000  Uiso   1.00
H632   H     0.42417   0.29601   0.74983   0.00000  Uiso   1.00
H633   H     0.60760   0.21653   0.80344   0.00000  Uiso   1.00
H634   H     0.36140   0.21672   0.80304   0.00000  Uiso   1.00
H635   H     0.39244   0.11690   0.69642   0.00000  Uiso   1.00
H636   H     0.63877   0.11702   0.69631   0.00000  Uiso   1.00
H637   H     0.59768   0.10242   0.91968   0.00000  Uiso   1.00
N638   N     0.38265   0.16666   0.74998   0.00000  Uiso   1.00
N639   N     0.61735   0.16669   0.74999   0.00000  Uiso   1.00
O640   O     0.46042   0.22678   0.75000   0.00000  Uiso   1.00
O641   O     0.35270   0.15038   0.89056   0.00000  Uiso   1.00
O642   O     0.53961   0.22679   0.75000   0.00000  Uiso   1.00
O643   O     0.44108   0.16665   0.82549   0.00000  Uiso   1.00
O644   O     0.52027   0.16666   0.82549   0.00000  Uiso   1.00
O645   O     0.46039   0.10654   0.74999   0.00000  Uiso   1.00
O646   O     0.53958   0.10655   0.74999   0.00000  Uiso   1.00
O647   O     0.47973   0.16667   0.67451   0.00000  Uiso   1.00
O648   O     0.55892   0.16668   0.67451   0.00000  Uiso   1.00
O649   O     0.34511   0.21655   0.91967   0.00000  Uiso   1.00
C650   C     0.83331   0.24598   0.75012   0.00000  Uiso   1.00
C651   C     0.78921   0.16411   0.90882   0.00000  Uiso   1.00
C652   C     0.87576   0.31207   0.75057   0.00000  Uiso   1.00
C653   C     0.80653   0.16485   0.85050   0.00000  Uiso   1.00
C654   C     0.87577   0.02131   0.75052   0.00000  Uiso   1.00
C655   C     0.83328   0.04274   0.75017   0.00000  Uiso   1.00
C656   C     0.79075   0.02127   0.74996   0.00000  Uiso   1.00
C657   C     0.79074   0.31203   0.75002   0.00000  Uiso   1.00
C658   C     0.83327   0.29060   0.75025   0.00000  Uiso   1.00
C659   C     0.96657   0.19440   0.77958   0.00000  Uiso   1.00
C660   C     0.68291   0.19450   0.77938   0.00000  Uiso   1.00
C661   C     0.81217   0.16529   0.98982   0.00000  Uiso   1.00
C662   C     0.70013   0.13903   0.72026   0.00000  Uiso   1.00
C663   C     0.98386   0.13908   0.72021   0.00000  Uiso   1.00
C664   C     0.83331   0.08735   0.75003   0.00000  Uiso   1.00
C665   C     0.85986   0.16620   0.64985   0.00000  Uiso   1.00
C666   C     0.92783   0.12914   0.51415   0.00000  Uiso   1.00
C667   C     0.87533   0.16122   0.59294   0.00000  Uiso   1.00
C668   C     0.74149   0.17903   0.93743   0.00000  Uiso   1.00
C669   C     0.73074   0.18830   0.99037   0.00000  Uiso   1.00
C670   C     0.76560   0.18274   0.51585   0.00000  Uiso   1.00
C671   C     0.70077   0.18392   0.91476   0.00000  Uiso   1.00
C672   C     0.82239   0.15312   0.93671   0.00000  Uiso   1.00
C673   C     0.84834   0.15841   0.51536   0.00000  Uiso   1.00
C674   C     0.89217   0.13660   0.98913   0.00000  Uiso   1.00
C675   C     0.89907   0.12112   0.93902   0.00000  Uiso   1.00
C676   C     0.86465   0.12889   0.91338   0.00000  Uiso   1.00
C677   C     0.84183   0.17175   0.56678   0.00000  Uiso   1.00
C678   C     0.91927   0.14110   0.56606   0.00000  Uiso   1.00
Cu679  Cu    0.78645   0.16666   0.75000   0.00000  Uiso   1.00
Cu680  Cu    0.88022   0.16667   0.75000   0.00000  Uiso   1.00
H681   H     0.94571   0.13284   0.58582   0.00000  Uiso   1.00
H682   H     0.96146   0.11263   0.99422   0.00000  Uiso   1.00
H683   H     0.81028   0.18958   0.58835   0.00000  Uiso   1.00
H684   H     0.75362   0.19066   0.55676   0.00000  Uiso   1.00
H685   H     0.69460   0.19984   0.51253   0.00000  Uiso   1.00
H686   H     0.87080   0.11417   0.87580   0.00000  Uiso   1.00
H687   H     0.90898   0.29608   0.75082   0.00000  Uiso   1.00
H688   H     0.99043   0.15722   0.87782   0.00000  Uiso   1.00
H689   H     0.90900   0.03734   0.75073   0.00000  Uiso   1.00
H690   H     0.75753   0.03726   0.74971   0.00000  Uiso   1.00
H691   H     0.75751   0.29601   0.74983   0.00000  Uiso   1.00
H692   H     0.94094   0.21653   0.80344   0.00000  Uiso   1.00
H693   H     0.69473   0.21672   0.80304   0.00000  Uiso   1.00
H694   H     0.72578   0.11690   0.69642   0.00000  Uiso   1.00
H695   H     0.97210   0.11702   0.69631   0.00000  Uiso   1.00
H696   H     0.93101   0.10242   0.91968   0.00000  Uiso   1.00
N697   N     0.71598   0.16666   0.74998   0.00000  Uiso   1.00
N698   N     0.95069   0.16669   0.74999   0.00000  Uiso   1.00
O699   O     0.79375   0.22678   0.75000   0.00000  Uiso   1.00
O700   O     0.68604   0.15038   0.89056   0.00000  Uiso   1.00
O701   O     0.87294   0.22679   0.75000   0.00000  Uiso   1.00
O702   O     0.77441   0.16665   0.82549   0.00000  Uiso   1.00
O703   O     0.85360   0.16666   0.82549   0.00000  Uiso   1.00
O704   O     0.79373   0.10654   0.74999   0.00000  Uiso   1.00
O705   O     0.87292   0.10655   0.74999   0.00000  Uiso   1.00
O706   O     0.81306   0.16667   0.67451   0.00000  Uiso   1.00
O707   O     0.89225   0.16668   0.67451   0.00000  Uiso   1.00
O708   O     0.67844   0.21655   0.91967   0.00000  Uiso   1.00
C709   C     0.16665   0.57932   0.75012   0.00000  Uiso   1.00
C710   C     0.12255   0.49744   0.90882   0.00000  Uiso   1.00
C711   C     0.20909   0.64541   0.75057   0.00000  Uiso   1.00
C712   C     0.13987   0.49818   0.85050   0.00000  Uiso   1.00
C713   C     0.20910   0.35464   0.75052   0.00000  Uiso   1.00
C714   C     0.16661   0.37607   0.75017   0.00000  Uiso   1.00
C715   C     0.12409   0.35460   0.74996   0.00000  Uiso   1.00
C716   C     0.12408   0.64537   0.75002   0.00000  Uiso   1.00
C717   C     0.16660   0.62393   0.75025   0.00000  Uiso   1.00
C718   C     0.29991   0.52774   0.77958   0.00000  Uiso   1.00
C719   C     0.01625   0.52784   0.77938   0.00000  Uiso   1.00
C720   C     0.14550   0.49863   0.98982   0.00000  Uiso   1.00
C721   C     0.03347   0.47236   0.72026   0.00000  Uiso   1.00
C722   C     0.31719   0.47241   0.72021   0.00000  Uiso   1.00
C723   C     0.16664   0.42068   0.75003   0.00000  Uiso   1.00
C724   C     0.19319   0.49953   0.64985   0.00000  Uiso   1.00
C725   C     0.26117   0.46247   0.51415   0.00000  Uiso   1.00
C726   C     0.20867   0.49455   0.59294   0.00000  Uiso   1.00
C727   C     0.07483   0.51236   0.93743   0.00000  Uiso   1.00
C728   C     0.06408   0.52163   0.99037   0.00000  Uiso   1.00
C729   C     0.09893   0.51608   0.51585   0.00000  Uiso   1.00
C730   C     0.03410   0.51725   0.91476   0.00000  Uiso   1.00
C731   C     0.15572   0.48645   0.93671   0.00000  Uiso   1.00
C732   C     0.18168   0.49175   0.51536   0.00000  Uiso   1.00
C733   C     0.22550   0.46994   0.98913   0.00000  Uiso   1.00
C734   C     0.23240   0.45445   0.93902   0.00000  Uiso   1.00
C735   C     0.19799   0.46222   0.91338   0.00000  Uiso   1.00
C736   C     0.17517   0.50508   0.56678   0.00000  Uiso   1.00
C737   C     0.25260   0.47443   0.56606   0.00000  Uiso   1.00
Cu738  Cu    0.11978   0.49999   0.75000   0.00000  Uiso   1.00
Cu739  Cu    0.21355   0.50001   0.75000   0.00000  Uiso   1.00
H740   H     0.27904   0.46618   0.58582   0.00000  Uiso   1.00
H741   H     0.29479   0.44596   0.99422   0.00000  Uiso   1.00
H742   H     0.14361   0.52292   0.58835   0.00000  Uiso   1.00
H743   H     0.08695   0.52400   0.55676   0.00000  Uiso   1.00
H744   H     0.02794   0.53317   0.51253   0.00000  Uiso   1.00
H745   H     0.20414   0.44751   0.87580   0.00000  Uiso   1.00
H746   H     0.24232   0.62941   0.75082   0.00000  Uiso   1.00
H747   H     0.32376   0.49055   0.87782   0.00000  Uiso   1.00
H748   H     0.24233   0.37067   0.75073   0.00000  Uiso   1.00
H749   H     0.09086   0.37060   0.74971   0.00000  Uiso   1.00
H750   H     0.09084   0.62934   0.74983   0.00000  Uiso   1.00
H751   H     0.27427   0.54986   0.80344   0.00000  Uiso   1.00
H752   H     0.02806   0.55005   0.80304   0.00000  Uiso   1.00
H753   H     0.05911   0.45023   0.69642   0.00000  Uiso   1.00
H754   H     0.30544   0.45036   0.69631   0.00000  Uiso   1.00
H755   H     0.26435   0.43576   0.91968   0.00000  Uiso   1.00
N756   N     0.04931   0.49999   0.74998   0.00000  Uiso   1.00
N757   N     0.28402   0.50002   0.74999   0.00000  Uiso   1.00
O758   O     0.12708   0.56011   0.75000   0.00000  Uiso   1.00
O759   O     0.01937   0.48372   0.89056   0.00000  Uiso   1.00
O760   O     0.20627   0.56012   0.75000   0.00000  Uiso   1.00
O761   O     0.10775   0.49998   0.82549   0.00000  Uiso   1.00
O762   O     0.18694   0.49999   0.82549   0.00000  Uiso   1.00
O763   O     0.12706   0.43988   0.74999   0.00000  Uiso   1.00
O764   O     0.20625   0.43989   0.74999   0.00000  Uiso   1.00
O765   O     0.14640   0.50001   0.67451   0.00000  Uiso   1.00
O766   O     0.22559   0.50002   0.67451   0.00000  Uiso   1.00
O767   O     0.01177   0.54988   0.91967   0.00000  Uiso   1.00
C768   C     0.49998   0.57932   0.75012   0.00000  Uiso   1.00
C769   C     0.45588   0.49744   0.90882   0.00000  Uiso   1.00
C770   C     0.54243   0.64541   0.75057   0.00000  Uiso   1.00
C771   C     0.47320   0.49818   0.85050   0.00000  Uiso   1.00
C772   C     0.54243   0.35464   0.75052   0.00000  Uiso   1.00
C773   C     0.49994   0.37607   0.75017   0.00000  Uiso   1.00
C774   C     0.45742   0.35460   0.74996   0.00000  Uiso   1.00
C775   C     0.45741   0.64537   0.75002   0.00000  Uiso   1.00
C776   C     0.49994   0.62393   0.75025   0.00000  Uiso   1.00
C777   C     0.63324   0.52774   0.77958   0.00000  Uiso   1.00
C778   C     0.34958   0.52784   0.77938   0.00000  Uiso   1.00
C779   C     0.47883   0.49863   0.98982   0.00000  Uiso   1.00
C780   C     0.36680   0.47236   0.72026   0.00000  Uiso   1.00
C781   C     0.65052   0.47241   0.72021   0.00000  Uiso   1.00
C782   C     0.49998   0.42068   0.75003   0.00000  Uiso   1.00
C783   C     0.52652   0.49953   0.64985   0.00000  Uiso   1.00
C784   C     0.59450   0.46247   0.51415   0.00000  Uiso   1.00
C785   C     0.54200   0.49455   0.59294   0.00000  Uiso   1.00
C786   C     0.40816   0.51236   0.93743   0.00000  Uiso   1.00
C787   C     0.39741   0.52163   0.99037   0.00000  Uiso   1.00
C788   C     0.43227   0.51608   0.51585   0.00000  Uiso   1.00
C789   C     0.36744   0.51725   0.91476   0.00000  Uiso   1.00
C790   C     0.48906   0.48645   0.93671   0.00000  Uiso   1.00
C791   C     0.51501   0.49175   0.51536   0.00000  Uiso   1.00
C792   C     0.55884   0.46994   0.98913   0.00000  Uiso   1.00
C793   C     0.56573   0.45445   0.93902   0.00000  Uiso   1.00
C794   C     0.53132   0.46222   0.91338   0.00000  Uiso   1.00
C795   C     0.50850   0.50508   0.56678   0.00000  Uiso   1.00
C796   C     0.58594   0.47443   0.56606   0.00000  Uiso   1.00
Cu797  Cu    0.45311   0.49999   0.75000   0.00000  Uiso   1.00
Cu798  Cu    0.54689   0.50001   0.75000   0.00000  Uiso   1.00
H799   H     0.61238   0.46618   0.58582   0.00000  Uiso   1.00
H800   H     0.62812   0.44596   0.99422   0.00000  Uiso   1.00
H801   H     0.47694   0.52292   0.58835   0.00000  Uiso   1.00
H802   H     0.42028   0.52400   0.55676   0.00000  Uiso   1.00
H803   H     0.36127   0.53317   0.51253   0.00000  Uiso   1.00
H804   H     0.53747   0.44751   0.87580   0.00000  Uiso   1.00
H805   H     0.57565   0.62941   0.75082   0.00000  Uiso   1.00
H806   H     0.65709   0.49055   0.87782   0.00000  Uiso   1.00
H807   H     0.57566   0.37067   0.75073   0.00000  Uiso   1.00
H808   H     0.42419   0.37060   0.74971   0.00000  Uiso   1.00
H809   H     0.42417   0.62934   0.74983   0.00000  Uiso   1.00
H810   H     0.60760   0.54986   0.80344   0.00000  Uiso   1.00
H811   H     0.36140   0.55005   0.80304   0.00000  Uiso   1.00
H812   H     0.39244   0.45023   0.69642   0.00000  Uiso   1.00
H813   H     0.63877   0.45036   0.69631   0.00000  Uiso   1.00
H814   H     0.59768   0.43576   0.91968   0.00000  Uiso   1.00
N815   N     0.38265   0.49999   0.74998   0.00000  Uiso   1.00
N816   N     0.61735   0.50002   0.74999   0.00000  Uiso   1.00
O817   O     0.46042   0.56011   0.75000   0.00000  Uiso   1.00
O818   O     0.35270   0.48372   0.89056   0.00000  Uiso   1.00
O819   O     0.53961   0.56012   0.75000   0.00000  Uiso   1.00
O820   O     0.44108   0.49998   0.82549   0.00000  Uiso   1.00
O821   O     0.52027   0.49999   0.82549   0.00000  Uiso   1.00
O822   O     0.46039   0.43988   0.74999   0.00000  Uiso   1.00
O823   O     0.53958   0.43989   0.74999   0.00000  Uiso   1.00
O824   O     0.47973   0.50001   0.67451   0.00000  Uiso   1.00
O825   O     0.55892   0.50002   0.67451   0.00000  Uiso   1.00
O826   O     0.34511   0.54988   0.91967   0.00000  Uiso   1.00
C827   C     0.83331   0.57932   0.75012   0.00000  Uiso   1.00
C828   C     0.78921   0.49744   0.90882   0.00000  Uiso   1.00
C829   C     0.87576   0.64541   0.75057   0.00000  Uiso   1.00
C830   C     0.80653   0.49818   0.85050   0.00000  Uiso   1.00
C831   C     0.87577   0.35464   0.75052   0.00000  Uiso   1.00
C832   C     0.83328   0.37607   0.75017   0.00000  Uiso   1.00
C833   C     0.79075   0.35460   0.74996   0.00000  Uiso   1.00
C834   C     0.79074   0.64537   0.75002   0.00000  Uiso   1.00
C835   C     0.83327   0.62393   0.75025   0.00000  Uiso   1.00
C836   C     0.96657   0.52774   0.77958   0.00000  Uiso   1.00
C837   C     0.68291   0.52784   0.77938   0.00000  Uiso   1.00
C838   C     0.81217   0.49863   0.98982   0.00000  Uiso   1.00
C839   C     0.70013   0.47236   0.72026   0.00000  Uiso   1.00
C840   C     0.98386   0.47241   0.72021   0.00000  Uiso   1.00
C841   C     0.83331   0.42068   0.75003   0.00000  Uiso   1.00
C842   C     0.85986   0.49953   0.64985   0.00000  Uiso   1.00
C843   C     0.92783   0.46247   0.51415   0.00000  Uiso   1.00
C844   C     0.87533   0.49455   0.59294   0.00000  Uiso   1.00
C845   C     0.74149   0.51236   0.93743   0.00000  Uiso   1.00
C846   C     0.73074   0.52163   0.99037   0.00000  Uiso   1.00
C847   C     0.76560   0.51608   0.51585   0.00000  Uiso   1.00
C848   C     0.70077   0.51725   0.91476   0.00000  Uiso   1.00
C849   C     0.82239   0.48645   0.93671   0.00000  Uiso   1.00
C850   C     0.84834   0.49175   0.51536   0.00000  Uiso   1.00
C851   C     0.89217   0.46994   0.98913   0.00000  Uiso   1.00
C852   C     0.89907   0.45445   0.93902   0.00000  Uiso   1.00
C853   C     0.86465   0.46222   0.91338   0.00000  Uiso   1.00
C854   C     0.84183   0.50508   0.56678   0.00000  Uiso   1.00
C855   C     0.91927   0.47443   0.56606   0.00000  Uiso   1.00
Cu856  Cu    0.78645   0.49999   0.75000   0.00000  Uiso   1.00
Cu857  Cu    0.88022   0.50001   0.75000   0.00000  Uiso   1.00
H858   H     0.94571   0.46618   0.58582   0.00000  Uiso   1.00
H859   H     0.96146   0.44596   0.99422   0.00000  Uiso   1.00
H860   H     0.81028   0.52292   0.58835   0.00000  Uiso   1.00
H861   H     0.75362   0.52400   0.55676   0.00000  Uiso   1.00
H862   H     0.69460   0.53317   0.51253   0.00000  Uiso   1.00
H863   H     0.87080   0.44751   0.87580   0.00000  Uiso   1.00
H864   H     0.90898   0.62941   0.75082   0.00000  Uiso   1.00
H865   H     0.99043   0.49055   0.87782   0.00000  Uiso   1.00
H866   H     0.90900   0.37067   0.75073   0.00000  Uiso   1.00
H867   H     0.75753   0.37060   0.74971   0.00000  Uiso   1.00
H868   H     0.75751   0.62934   0.74983   0.00000  Uiso   1.00
H869   H     0.94094   0.54986   0.80344   0.00000  Uiso   1.00
H870   H     0.69473   0.55005   0.80304   0.00000  Uiso   1.00
H871   H     0.72578   0.45023   0.69642   0.00000  Uiso   1.00
H872   H     0.97210   0.45036   0.69631   0.00000  Uiso   1.00
H873   H     0.93101   0.43576   0.91968   0.00000  Uiso   1.00
N874   N     0.71598   0.49999   0.74998   0.00000  Uiso   1.00
N875   N     0.95069   0.50002   0.74999   0.00000  Uiso   1.00
O876   O     0.79375   0.56011   0.75000   0.00000  Uiso   1.00
O877   O     0.68604   0.48372   0.89056   0.00000  Uiso   1.00
O878   O     0.87294   0.56012   0.75000   0.00000  Uiso   1.00
O879   O     0.77441   0.49998   0.82549   0.00000  Uiso   1.00
O880   O     0.85360   0.49999   0.82549   0.00000  Uiso   1.00
O881   O     0.79373   0.43988   0.74999   0.00000  Uiso   1.00
O882   O     0.87292   0.43989   0.74999   0.00000  Uiso   1.00
O883   O     0.81306   0.50001   0.67451   0.00000  Uiso   1.00
O884   O     0.89225   0.50002   0.67451   0.00000  Uiso   1.00
O885   O     0.67844   0.54988   0.91967   0.00000  Uiso   1.00
C886   C     0.16665   0.91265   0.75012   0.00000  Uiso   1.00
C887   C     0.12255   0.83078   0.90882   0.00000  Uiso   1.00
C888   C     0.20909   0.97874   0.75057   0.00000  Uiso   1.00
C889   C     0.13987   0.83151   0.85050   0.00000  Uiso   1.00
C890   C     0.20910   0.68798   0.75052   0.00000  Uiso   1.00
C891   C     0.16661   0.70941   0.75017   0.00000  Uiso   1.00
C892   C     0.12409   0.68793   0.74996   0.00000  Uiso   1.00
C893   C     0.12408   0.97870   0.75002   0.00000  Uiso   1.00
C894   C     0.16660   0.95727   0.75025   0.00000  Uiso   1.00
C895   C     0.29991   0.86107   0.77958   0.00000  Uiso   1.00
C896   C     0.01625   0.86117   0.77938   0.00000  Uiso   1.00
C897   C     0.14550   0.83196   0.98982   0.00000  Uiso   1.00
C898   C     0.03347   0.80570   0.72026   0.00000  Uiso   1.00
C899   C     0.31719   0.80575   0.72021   0.00000  Uiso   1.00
C900   C     0.16664   0.75402   0.75003   0.00000  Uiso   1.00
C901   C     0.19319   0.83287   0.64985   0.00000  Uiso   1.00
C902   C     0.26117   0.79580   0.51415   0.00000  Uiso   1.00
C903   C     0.20867   0.82789   0.59294   0.00000  Uiso   1.00
C904   C     0.07483   0.84570   0.93743   0.00000  Uiso   1.00
C905   C     0.06408   0.85497   0.99037   0.00000  Uiso   1.00
C906   C     0.09893   0.84941   0.51585   0.00000  Uiso   1.00
C907   C     0.03410   0.85058   0.91476   0.00000  Uiso   1.00
C908   C     0.15572   0.81978   0.93671   0.00000  Uiso   1.00
C909   C     0.18168   0.82508   0.51536   0.00000  Uiso   1.00
C910   C     0.22550   0.80327   0.98913   0.00000  Uiso   1.00
C911   C     0.23240   0.78778   0.93902   0.00000  Uiso   1.00
C912   C     0.19799   0.79556   0.91338   0.00000  Uiso   1.00
C913   C     0.17517   0.83841   0.56678   0.00000  Uiso   1.00
C914   C     0.25260   0.80776   0.56606   0.00000  Uiso   1.00
Cu915  Cu    0.11978   0.83333   0.75000   0.00000  Uiso   1.00
Cu916  Cu    0.21355   0.83334   0.75000   0.00000  Uiso   1.00
H917   H     0.27904   0.79951   0.58582   0.00000  Uiso   1.00
H918   H     0.29479   0.77930   0.99422   0.00000  Uiso   1.00
H919   H     0.14361   0.85625   0.58835   0.00000  Uiso   1.00
H920   H     0.08695   0.85733   0.55676   0.00000  Uiso   1.00
H921   H     0.02794   0.86651   0.51253   0.00000  Uiso   1.00
H922   H     0.20414   0.78084   0.87580   0.00000  Uiso   1.00
H923   H     0.24232   0.96275   0.75082   0.00000  Uiso   1.00
H924   H     0.32376   0.82389   0.87782   0.00000  Uiso   1.00
H925   H     0.24233   0.70401   0.75073   0.00000  Uiso   1.00
H926   H     0.09086   0.70393   0.74971   0.00000  Uiso   1.00
H927   H     0.09084   0.96267   0.74983   0.00000  Uiso   1.00
H928   H     0.27427   0.88319   0.80344   0.00000  Uiso   1.00
H929   H     0.02806   0.88339   0.80304   0.00000  Uiso   1.00
H930   H     0.05911   0.78356   0.69642   0.00000  Uiso   1.00
H931   H     0.30544   0.78369   0.69631   0.00000  Uiso   1.00
H932   H     0.26435   0.76909   0.91968   0.00000  Uiso   1.00
N933   N     0.04931   0.83332   0.74998   0.00000  Uiso   1.00
N934   N     0.28402   0.83335   0.74999   0.00000  Uiso   1.00
O935   O     0.12708   0.89345   0.75000   0.00000  Uiso   1.00
O936   O     0.01937   0.81705   0.89056   0.00000  Uiso   1.00
O937   O     0.20627   0.89346   0.75000   0.00000  Uiso   1.00
O938   O     0.10775   0.83332   0.82549   0.00000  Uiso   1.00
O939   O     0.18694   0.83333   0.82549   0.00000  Uiso   1.00
O940   O     0.12706   0.77321   0.74999   0.00000  Uiso   1.00
O941   O     0.20625   0.77322   0.74999   0.00000  Uiso   1.00
O942   O     0.14640   0.83334   0.67451   0.00000  Uiso   1.00
O943   O     0.22559   0.83335   0.67451   0.00000  Uiso   1.00
O944   O     0.01177   0.88322   0.91967   0.00000  Uiso   1.00
C945   C     0.49998   0.91265   0.75012   0.00000  Uiso   1.00
C946   C     0.45588   0.83078   0.90882   0.00000  Uiso   1.00
C947   C     0.54243   0.97874   0.75057   0.00000  Uiso   1.00
C948   C     0.47320   0.83151   0.85050   0.00000  Uiso   1.00
C949   C     0.54243   0.68798   0.75052   0.00000  Uiso   1.00
C950   C     0.49994   0.70941   0.75017   0.00000  Uiso   1.00
C951   C     0.45742   0.68793   0.74996   0.00000  Uiso   1.00
C952   C     0.45741   0.97870   0.75002   0.00000  Uiso   1.00
C953   C     0.49994   0.95727   0.75025   0.00000  Uiso   1.00
C954   C     0.63324   0.86107   0.77958   0.00000  Uiso   1.00
C955   C     0.34958   0.86117   0.77938   0.00000  Uiso   1.00
C956   C     0.47883   0.83196   0.98982   0.00000  Uiso   1.00
C957   C     0.36680   0.80570   0.72026   0.00000  Uiso   1.00
C958   C     0.65052   0.80575   0.72021   0.00000  Uiso   1.00
C959   C     0.49998   0.75402   0.75003   0.00000  Uiso   1.00
C960   C     0.52652   0.83287   0.64985   0.00000  Uiso   1.00
C961   C     0.59450   0.79580   0.51415   0.00000  Uiso   1.00
C962   C     0.54200   0.82789   0.59294   0.00000  Uiso   1.00
C963   C     0.40816   0.84570   0.93743   0.00000  Uiso   1.00
C964   C     0.39741   0.85497   0.99037   0.00000  Uiso   1.00
C965   C     0.43227   0.84941   0.51585   0.00000  Uiso   1.00
C966   C     0.36744   0.85058   0.91476   0.00000  Uiso   1.00
C967   C     0.48906   0.81978   0.93671   0.00000  Uiso   1.00
C968   C     0.51501   0.82508   0.51536   0.00000  Uiso   1.00
C969   C     0.55884   0.80327   0.98913   0.00000  Uiso   1.00
C970   C     0.56573   0.78778   0.93902   0.00000  Uiso   1.00
C971   C     0.53132   0.79556   0.91338   0.00000  Uiso   1.00
C972   C     0.50850   0.83841   0.56678   0.00000  Uiso   1.00
C973   C     0.58594   0.80776   0.56606   0.00000  Uiso   1.00
Cu974  Cu    0.45311   0.83333   0.75000   0.00000  Uiso   1.00
Cu975  Cu    0.54689   0.83334   0.75000   0.00000  Uiso   1.00
H976   H     0.61238   0.79951   0.58582   0.00000  Uiso   1.00
H977   H     0.62812   0.77930   0.99422   0.00000  Uiso   1.00
H978   H     0.47694   0.85625   0.58835   0.00000  Uiso   1.00
H979   H     0.42028   0.85733   0.55676   0.00000  Uiso   1.00
H980   H     0.36127   0.86651   0.51253   0.00000  Uiso   1.00
H981   H     0.53747   0.78084   0.87580   0.00000  Uiso   1.00
H982   H     0.57565   0.96275   0.75082   0.00000  Uiso   1.00
H983   H     0.65709   0.82389   0.87782   0.00000  Uiso   1.00
H984   H     0.57566   0.70401   0.75073   0.00000  Uiso   1.00
H985   H     0.42419   0.70393   0.74971   0.00000  Uiso   1.00
H986   H     0.42417   0.96267   0.74983   0.00000  Uiso   1.00
H987   H     0.60760   0.88319   0.80344   0.00000  Uiso   1.00
H988   H     0.36140   0.88339   0.80304   0.00000  Uiso   1.00
H989   H     0.39244   0.78356   0.69642   0.00000  Uiso   1.00
H990   H     0.63877   0.78369   0.69631   0.00000  Uiso   1.00
H991   H     0.59768   0.76909   0.91968   0.00000  Uiso   1.00
N992   N     0.38265   0.83332   0.74998   0.00000  Uiso   1.00
N993   N     0.61735   0.83335   0.74999   0.00000  Uiso   1.00
O994   O     0.46042   0.89345   0.75000   0.00000  Uiso   1.00
O995   O     0.35270   0.81705   0.89056   0.00000  Uiso   1.00
O996   O     0.53961   0.89346   0.75000   0.00000  Uiso   1.00
O997   O     0.44108   0.83332   0.82549   0.00000  Uiso   1.00
O998   O     0.52027   0.83333   0.82549   0.00000  Uiso   1.00
O999   O     0.46039   0.77321   0.74999   0.00000  Uiso   1.00
O1000  O     0.53958   0.77322   0.74999   0.00000  Uiso   1.00
O1001  O     0.47973   0.83334   0.67451   0.00000  Uiso   1.00
O1002  O     0.55892   0.83335   0.67451   0.00000  Uiso   1.00
O1003  O     0.34511   0.88322   0.91967   0.00000  Uiso   1.00
C1004  C     0.83331   0.91265   0.75012   0.00000  Uiso   1.00
C1005  C     0.78921   0.83078   0.90882   0.00000  Uiso   1.00
C1006  C     0.87576   0.97874   0.75057   0.00000  Uiso   1.00
C1007  C     0.80653   0.83151   0.85050   0.00000  Uiso   1.00
C1008  C     0.87577   0.68798   0.75052   0.00000  Uiso   1.00
C1009  C     0.83328   0.70941   0.75017   0.00000  Uiso   1.00
C1010  C     0.79075   0.68793   0.74996   0.00000  Uiso   1.00
C1011  C     0.79074   0.97870   0.75002   0.00000  Uiso   1.00
C1012  C     0.83327   0.95727   0.75025   0.00000  Uiso   1.00
C1013  C     0.96657   0.86107   0.77958   0.00000  Uiso   1.00
C1014  C     0.68291   0.86117   0.77938   0.00000  Uiso   1.00
C1015  C     0.81217   0.83196   0.98982   0.00000  Uiso   1.00
C1016  C     0.70013   0.80570   0.72026   0.00000  Uiso   1.00
C1017  C     0.98386   0.80575   0.72021   0.00000  Uiso   1.00
C1018  C     0.83331   0.75402   0.75003   0.00000  Uiso   1.00
C1019  C     0.85986   0.83287   0.64985   0.00000  Uiso   1.00
C1020  C     0.92783   0.79580   0.51415   0.00000  Uiso   1.00
C1021  C     0.87533   0.82789   0.59294   0.00000  Uiso   1.00
C1022  C     0.74149   0.84570   0.93743   0.00000  Uiso   1.00
C1023  C     0.73074   0.85497   0.99037   0.00000  Uiso   1.00
C1024  C     0.76560   0.84941   0.51585   0.00000  Uiso   1.00
C1025  C     0.70077   0.85058   0.91476   0.00000  Uiso   1.00
C1026  C     0.82239   0.81978   0.93671   0.00000  Uiso   1.00
C1027  C     0.84834   0.82508   0.51536   0.00000  Uiso   1.00
C1028  C     0.89217   0.80327   0.98913   0.00000  Uiso   1.00
C1029  C     0.89907   0.78778   0.93902   0.00000  Uiso   1.00
C1030  C     0.86465   0.79556   0.91338   0.00000  Uiso   1.00
C1031  C     0.84183   0.83841   0.56678   0.00000  Uiso   1.00
C1032  C     0.91927   0.80776   0.56606   0.00000  Uiso   1.00
Cu1033 Cu    0.78645   0.83333   0.75000   0.00000  Uiso   1.00
Cu1034 Cu    0.88022   0.83334   0.75000   0.00000  Uiso   1.00
H1035  H     0.94571   0.79951   0.58582   0.00000  Uiso   1.00
H1036  H     0.96146   0.77930   0.99422   0.00000  Uiso   1.00
H1037  H     0.81028   0.85625   0.58835   0.00000  Uiso   1.00
H1038  H     0.75362   0.85733   0.55676   0.00000  Uiso   1.00
H1039  H     0.69460   0.86651   0.51253   0.00000  Uiso   1.00
H1040  H     0.87080   0.78084   0.87580   0.00000  Uiso   1.00
H1041  H     0.90898   0.96275   0.75082   0.00000  Uiso   1.00
H1042  H     0.99043   0.82389   0.87782   0.00000  Uiso   1.00
H1043  H     0.90900   0.70401   0.75073   0.00000  Uiso   1.00
H1044  H     0.75753   0.70393   0.74971   0.00000  Uiso   1.00
H1045  H     0.75751   0.96267   0.74983   0.00000  Uiso   1.00
H1046  H     0.94094   0.88319   0.80344   0.00000  Uiso   1.00
H1047  H     0.69473   0.88339   0.80304   0.00000  Uiso   1.00
H1048  H     0.72578   0.78356   0.69642   0.00000  Uiso   1.00
H1049  H     0.97210   0.78369   0.69631   0.00000  Uiso   1.00
H1050  H     0.93101   0.76909   0.91968   0.00000  Uiso   1.00
N1051  N     0.71598   0.83332   0.74998   0.00000  Uiso   1.00
N1052  N     0.95069   0.83335   0.74999   0.00000  Uiso   1.00
O1053  O     0.79375   0.89345   0.75000   0.00000  Uiso   1.00
O1054  O     0.68604   0.81705   0.89056   0.00000  Uiso   1.00
O1055  O     0.87294   0.89346   0.75000   0.00000  Uiso   1.00
O1056  O     0.77441   0.83332   0.82549   0.00000  Uiso   1.00
O1057  O     0.85360   0.83333   0.82549   0.00000  Uiso   1.00
O1058  O     0.79373   0.77321   0.74999   0.00000  Uiso   1.00
O1059  O     0.87292   0.77322   0.74999   0.00000  Uiso   1.00
O1060  O     0.81306   0.83334   0.67451   0.00000  Uiso   1.00
O1061  O     0.89225   0.83335   0.67451   0.00000  Uiso   1.00
O1062  O     0.67844   0.88322   0.91967   0.00000  Uiso   1.00
loop_
_geom_bond_atom_site_label_1
_geom_bond_atom_site_label_2
_geom_bond_distance
_geom_bond_site_symmetry_2
_ccdc_geom_bond_type
C1     O52     1.291   .     A
C1     O50     1.291   .     A
C1     C9      1.450   .     S
C2     C4      1.491   .     S
C2     C23     1.424   .     A
C2     C19     1.424   .     A
C3     C9      1.401   .     A
C3     H38     1.083   .     S
C3     C182    1.384   .     S
C4     O53     1.296   .     A
C4     O54     1.303   .     A
C5     C6      1.401   .     A
C5     H40     1.083   .     S
C5     C357    1.384   1_545 S
C6     C7      1.401   .     A
C6     C15     1.450   .     S
C7     H41     1.083   .     S
C7     C362    1.383   1_545 S
C8     H42     1.083   .     S
C8     C9      1.401   .     A
C8     C184    1.383   .     S
C10    N49     1.367   .     A
C10    H43     1.082   .     S
C10    C70     1.416   .     S
C11    H44     1.082   .     S
C11    N48     1.366   .     A
C11    C128    1.416   1_455 S
C12    C23     1.420   .     A
C12    C552    1.413   .     S
C12    C555    1.424   .     S
C13    N48     1.367   .     A
C13    H45     1.082   .     S
C13    C132    1.416   1_455 S
C14    H46     1.082   .     S
C14    N49     1.367   .     A
C14    C72     1.416   .     S
C15    O56     1.291   .     A
C15    O55     1.291   .     A
C16    O58     1.294   .     A
C16    O57     1.293   .     A
C16    C18     1.463   .     S
C17    C29     1.394   .     A
C17    C556    1.405   1_554 S
C17    H564    1.084   1_554 S
C18    C29     1.399   .     A
C18    C28     1.394   .     A
C19    C20     1.392   .     A
C19    C22     1.479   .     S
C20    C552    1.384   .     S
C20    H567    1.085   .     S
C21    H35     1.076   .     S
C21    C551    1.384   1_554 S
C21    C543    1.413   1_554 S
C22    O59     1.223   .     D
C22    O51     1.398   .     S
C23    C27     1.413   .     A
C24    C28     1.403   .     A
C24    C543    1.424   1_554 S
C24    C556    1.419   1_554 S
C25    C26     1.392   .     A
C25    C548    1.405   .     S
C25    C555    1.419   .     S
C26    H47     1.084   .     S
C26    C27     1.387   .     A
C27    H37     1.081   .     S
C28    H34     1.076   .     S
C29    H32     1.083   .     S
Cu30   O55     1.965   .     S
Cu30   O50     1.965   .     S
Cu30   N48     2.011   .     S
Cu30   Cu31    2.676   .     S
Cu30   O57     1.933   .     S
Cu30   O53     1.950   .     S
Cu31   O52     1.965   .     S
Cu31   N49     2.011   .     S
Cu31   O58     1.950   .     S
Cu31   O54     1.933   .     S
Cu31   O56     1.965   .     S
H33    C548    1.084   .     S
H36    C551    1.085   1_554 S
H39    O110    1.013   .     S
O51    H157    1.013   1_455 S
C60    O111    1.291   .     A
C60    O109    1.291   .     A
C60    C68     1.450   .     S
C61    C63     1.491   .     S
C61    C82     1.424   .     A
C61    C78     1.424   .     A
C62    C68     1.401   .     A
C62    H97     1.083   .     S
C62    C241    1.384   .     S
C63    O112    1.296   .     A
C63    O113    1.303   .     A
C64    C65     1.401   .     A
C64    H99     1.083   .     S
C64    C416    1.384   1_545 S
C65    C66     1.401   .     A
C65    C74     1.450   .     S
C66    H100    1.083   .     S
C66    C421    1.383   1_545 S
C67    H101    1.083   .     S
C67    C68     1.401   .     A
C67    C243    1.383   .     S
C69    N108    1.367   .     A
C69    H102    1.082   .     S
C69    C129    1.416   .     S
C70    H103    1.082   .     S
C70    N107    1.366   .     A
C71    C82     1.420   .     A
C71    C611    1.413   .     S
C71    C614    1.424   .     S
C72    N107    1.367   .     A
C72    H104    1.082   .     S
C73    H105    1.082   .     S
C73    N108    1.367   .     A
C73    C131    1.416   .     S
C74    O115    1.291   .     A
C74    O114    1.291   .     A
C75    O117    1.294   .     A
C75    O116    1.293   .     A
C75    C77     1.463   .     S
C76    C88     1.394   .     A
C76    C615    1.405   1_554 S
C76    H623    1.084   1_554 S
C77    C88     1.399   .     A
C77    C87     1.394   .     A
C78    C79     1.392   .     A
C78    C81     1.479   .     S
C79    C611    1.384   .     S
C79    H626    1.085   .     S
C80    H94     1.076   .     S
C80    C610    1.384   1_554 S
C80    C602    1.413   1_554 S
C81    O118    1.223   .     D
C81    O110    1.398   .     S
C82    C86     1.413   .     A
C83    C87     1.403   .     A
C83    C602    1.424   1_554 S
C83    C615    1.419   1_554 S
C84    C85     1.392   .     A
C84    C607    1.405   .     S
C84    C614    1.419   .     S
C85    H106    1.084   .     S
C85    C86     1.387   .     A
C86    H96     1.081   .     S
C87    H93     1.076   .     S
C88    H91     1.083   .     S
Cu89   O114    1.965   .     S
Cu89   O109    1.965   .     S
Cu89   N107    2.011   .     S
Cu89   Cu90    2.676   .     S
Cu89   O116    1.933   .     S
Cu89   O112    1.950   .     S
Cu90   O111    1.965   .     S
Cu90   N108    2.011   .     S
Cu90   O117    1.950   .     S
Cu90   O113    1.933   .     S
Cu90   O115    1.965   .     S
H92    C607    1.084   .     S
H95    C610    1.085   1_554 S
H98    O169    1.013   .     S
C119   O170    1.291   .     A
C119   O168    1.291   .     A
C119   C127    1.450   .     S
C120   C122    1.491   .     S
C120   C141    1.424   .     A
C120   C137    1.424   .     A
C121   C127    1.401   .     A
C121   H156    1.083   .     S
C121   C300    1.384   .     S
C122   O171    1.296   .     A
C122   O172    1.303   .     A
C123   C124    1.401   .     A
C123   H158    1.083   .     S
C123   C475    1.384   1_545 S
C124   C125    1.401   .     A
C124   C133    1.450   .     S
C125   H159    1.083   .     S
C125   C480    1.383   1_545 S
C126   H160    1.083   .     S
C126   C127    1.401   .     A
C126   C302    1.383   .     S
C128   N167    1.367   .     A
C128   H161    1.082   .     S
C128   C11     1.416   1_655 S
C129   H162    1.082   .     S
C129   N166    1.366   .     A
C130   C141    1.420   .     A
C130   C670    1.413   .     S
C130   C673    1.424   .     S
C131   N166    1.367   .     A
C131   H163    1.082   .     S
C132   H164    1.082   .     S
C132   N167    1.367   .     A
C132   C13     1.416   1_655 S
C133   O174    1.291   .     A
C133   O173    1.291   .     A
C134   O176    1.294   .     A
C134   O175    1.293   .     A
C134   C136    1.463   .     S
C135   C147    1.394   .     A
C135   C674    1.405   1_554 S
C135   H682    1.084   1_554 S
C136   C147    1.399   .     A
C136   C146    1.394   .     A
C137   C138    1.392   .     A
C137   C140    1.479   .     S
C138   C670    1.384   .     S
C138   H685    1.085   .     S
C139   H153    1.076   .     S
C139   C669    1.384   1_554 S
C139   C661    1.413   1_554 S
C140   O177    1.223   .     D
C140   O169    1.398   .     S
C141   C145    1.413   .     A
C142   C146    1.403   .     A
C142   C661    1.424   1_554 S
C142   C674    1.419   1_554 S
C143   C144    1.392   .     A
C143   C666    1.405   .     S
C143   C673    1.419   .     S
C144   H165    1.084   .     S
C144   C145    1.387   .     A
C145   H155    1.081   .     S
C146   H152    1.076   .     S
C147   H150    1.083   .     S
Cu148  O173    1.965   .     S
Cu148  O168    1.965   .     S
Cu148  N166    2.011   .     S
Cu148  Cu149   2.676   .     S
Cu148  O175    1.933   .     S
Cu148  O171    1.950   .     S
Cu149  O170    1.965   .     S
Cu149  N167    2.011   .     S
Cu149  O176    1.950   .     S
Cu149  O172    1.933   .     S
Cu149  O174    1.965   .     S
H151   C666    1.084   .     S
H154   C669    1.085   1_554 S
H157   O51     1.013   1_655 S
C178   O229    1.291   .     A
C178   O227    1.291   .     A
C178   C186    1.450   .     S
C179   C181    1.491   .     S
C179   C200    1.424   .     A
C179   C196    1.424   .     A
C180   C186    1.401   .     A
C180   H215    1.083   .     S
C180   C359    1.384   .     S
C181   O230    1.296   .     A
C181   O231    1.303   .     A
C182   C183    1.401   .     A
C182   H217    1.083   .     S
C183   C184    1.401   .     A
C183   C192    1.450   .     S
C184   H218    1.083   .     S
C185   H219    1.083   .     S
C185   C186    1.401   .     A
C185   C361    1.383   .     S
C187   N226    1.367   .     A
C187   H220    1.082   .     S
C187   C247    1.416   .     S
C188   H221    1.082   .     S
C188   N225    1.366   .     A
C188   C305    1.416   1_455 S
C189   C200    1.420   .     A
C189   C729    1.413   .     S
C189   C732    1.424   .     S
C190   N225    1.367   .     A
C190   H222    1.082   .     S
C190   C309    1.416   1_455 S
C191   H223    1.082   .     S
C191   N226    1.367   .     A
C191   C249    1.416   .     S
C192   O233    1.291   .     A
C192   O232    1.291   .     A
C193   O235    1.294   .     A
C193   O234    1.293   .     A
C193   C195    1.463   .     S
C194   C206    1.394   .     A
C194   C733    1.405   1_554 S
C194   H741    1.084   1_554 S
C195   C206    1.399   .     A
C195   C205    1.394   .     A
C196   C197    1.392   .     A
C196   C199    1.479   .     S
C197   C729    1.384   .     S
C197   H744    1.085   .     S
C198   H212    1.076   .     S
C198   C728    1.384   1_554 S
C198   C720    1.413   1_554 S
C199   O236    1.223   .     D
C199   O228    1.398   .     S
C200   C204    1.413   .     A
C201   C205    1.403   .     A
C201   C720    1.424   1_554 S
C201   C733    1.419   1_554 S
C202   C203    1.392   .     A
C202   C725    1.405   .     S
C202   C732    1.419   .     S
C203   H224    1.084   .     S
C203   C204    1.387   .     A
C204   H214    1.081   .     S
C205   H211    1.076   .     S
C206   H209    1.083   .     S
Cu207  O232    1.965   .     S
Cu207  O227    1.965   .     S
Cu207  N225    2.011   .     S
Cu207  Cu208   2.676   .     S
Cu207  O234    1.933   .     S
Cu207  O230    1.950   .     S
Cu208  O229    1.965   .     S
Cu208  N226    2.011   .     S
Cu208  O235    1.950   .     S
Cu208  O231    1.933   .     S
Cu208  O233    1.965   .     S
H210   C725    1.084   .     S
H213   C728    1.085   1_554 S
H216   O287    1.013   .     S
O228   H334    1.013   1_455 S
C237   O288    1.291   .     A
C237   O286    1.291   .     A
C237   C245    1.450   .     S
C238   C240    1.491   .     S
C238   C259    1.424   .     A
C238   C255    1.424   .     A
C239   C245    1.401   .     A
C239   H274    1.083   .     S
C239   C418    1.384   .     S
C240   O289    1.296   .     A
C240   O290    1.303   .     A
C241   C242    1.401   .     A
C241   H276    1.083   .     S
C242   C243    1.401   .     A
C242   C251    1.450   .     S
C243   H277    1.083   .     S
C244   H278    1.083   .     S
C244   C245    1.401   .     A
C244   C420    1.383   .     S
C246   N285    1.367   .     A
C246   H279    1.082   .     S
C246   C306    1.416   .     S
C247   H280    1.082   .     S
C247   N284    1.366   .     A
C248   C259    1.420   .     A
C248   C788    1.413   .     S
C248   C791    1.424   .     S
C249   N284    1.367   .     A
C249   H281    1.082   .     S
C250   H282    1.082   .     S
C250   N285    1.367   .     A
C250   C308    1.416   .     S
C251   O292    1.291   .     A
C251   O291    1.291   .     A
C252   O294    1.294   .     A
C252   O293    1.293   .     A
C252   C254    1.463   .     S
C253   C265    1.394   .     A
C253   C792    1.405   1_554 S
C253   H800    1.084   1_554 S
C254   C265    1.399   .     A
C254   C264    1.394   .     A
C255   C256    1.392   .     A
C255   C258    1.479   .     S
C256   C788    1.384   .     S
C256   H803    1.085   .     S
C257   H271    1.076   .     S
C257   C787    1.384   1_554 S
C257   C779    1.413   1_554 S
C258   O295    1.223   .     D
C258   O287    1.398   .     S
C259   C263    1.413   .     A
C260   C264    1.403   .     A
C260   C779    1.424   1_554 S
C260   C792    1.419   1_554 S
C261   C262    1.392   .     A
C261   C784    1.405   .     S
C261   C791    1.419   .     S
C262   H283    1.084   .     S
C262   C263    1.387   .     A
C263   H273    1.081   .     S
C264   H270    1.076   .     S
C265   H268    1.083   .     S
Cu266  O291    1.965   .     S
Cu266  O286    1.965   .     S
Cu266  N284    2.011   .     S
Cu266  Cu267   2.676   .     S
Cu266  O293    1.933   .     S
Cu266  O289    1.950   .     S
Cu267  O288    1.965   .     S
Cu267  N285    2.011   .     S
Cu267  O294    1.950   .     S
Cu267  O290    1.933   .     S
Cu267  O292    1.965   .     S
H269   C784    1.084   .     S
H272   C787    1.085   1_554 S
H275   O346    1.013   .     S
C296   O347    1.291   .     A
C296   O345    1.291   .     A
C296   C304    1.450   .     S
C297   C299    1.491   .     S
C297   C318    1.424   .     A
C297   C314    1.424   .     A
C298   C304    1.401   .     A
C298   H333    1.083   .     S
C298   C477    1.384   .     S
C299   O348    1.296   .     A
C299   O349    1.303   .     A
C300   C301    1.401   .     A
C300   H335    1.083   .     S
C301   C302    1.401   .     A
C301   C310    1.450   .     S
C302   H336    1.083   .     S
C303   H337    1.083   .     S
C303   C304    1.401   .     A
C303   C479    1.383   .     S
C305   N344    1.367   .     A
C305   H338    1.082   .     S
C305   C188    1.416   1_655 S
C306   H339    1.082   .     S
C306   N343    1.366   .     A
C307   C318    1.420   .     A
C307   C847    1.413   .     S
C307   C850    1.424   .     S
C308   N343    1.367   .     A
C308   H340    1.082   .     S
C309   H341    1.082   .     S
C309   N344    1.367   .     A
C309   C190    1.416   1_655 S
C310   O351    1.291   .     A
C310   O350    1.291   .     A
C311   O353    1.294   .     A
C311   O352    1.293   .     A
C311   C313    1.463   .     S
C312   C324    1.394   .     A
C312   C851    1.405   1_554 S
C312   H859    1.084   1_554 S
C313   C324    1.399   .     A
C313   C323    1.394   .     A
C314   C315    1.392   .     A
C314   C317    1.479   .     S
C315   C847    1.384   .     S
C315   H862    1.085   .     S
C316   H330    1.076   .     S
C316   C846    1.384   1_554 S
C316   C838    1.413   1_554 S
C317   O354    1.223   .     D
C317   O346    1.398   .     S
C318   C322    1.413   .     A
C319   C323    1.403   .     A
C319   C838    1.424   1_554 S
C319   C851    1.419   1_554 S
C320   C321    1.392   .     A
C320   C843    1.405   .     S
C320   C850    1.419   .     S
C321   H342    1.084   .     S
C321   C322    1.387   .     A
C322   H332    1.081   .     S
C323   H329    1.076   .     S
C324   H327    1.083   .     S
Cu325  O350    1.965   .     S
Cu325  O345    1.965   .     S
Cu325  N343    2.011   .     S
Cu325  Cu326   2.676   .     S
Cu325  O352    1.933   .     S
Cu325  O348    1.950   .     S
Cu326  O347    1.965   .     S
Cu326  N344    2.011   .     S
Cu326  O353    1.950   .     S
Cu326  O349    1.933   .     S
Cu326  O351    1.965   .     S
H328   C843    1.084   .     S
H331   C846    1.085   1_554 S
H334   O228    1.013   1_655 S
C355   O406    1.291   .     A
C355   O404    1.291   .     A
C355   C363    1.450   .     S
C356   C358    1.491   .     S
C356   C377    1.424   .     A
C356   C373    1.424   .     A
C357   C363    1.401   .     A
C357   H392    1.083   .     S
C357   C5      1.384   1_565 S
C358   O407    1.296   .     A
C358   O408    1.303   .     A
C359   C360    1.401   .     A
C359   H394    1.083   .     S
C360   C361    1.401   .     A
C360   C369    1.450   .     S
C361   H395    1.083   .     S
C362   H396    1.083   .     S
C362   C363    1.401   .     A
C362   C7      1.383   1_565 S
C364   N403    1.367   .     A
C364   H397    1.082   .     S
C364   C424    1.416   .     S
C365   H398    1.082   .     S
C365   N402    1.366   .     A
C365   C482    1.416   1_455 S
C366   C377    1.420   .     A
C366   C906    1.413   .     S
C366   C909    1.424   .     S
C367   N402    1.367   .     A
C367   H399    1.082   .     S
C367   C486    1.416   1_455 S
C368   H400    1.082   .     S
C368   N403    1.367   .     A
C368   C426    1.416   .     S
C369   O410    1.291   .     A
C369   O409    1.291   .     A
C370   O412    1.294   .     A
C370   O411    1.293   .     A
C370   C372    1.463   .     S
C371   C383    1.394   .     A
C371   C910    1.405   1_554 S
C371   H918    1.084   1_554 S
C372   C383    1.399   .     A
C372   C382    1.394   .     A
C373   C374    1.392   .     A
C373   C376    1.479   .     S
C374   C906    1.384   .     S
C374   H921    1.085   .     S
C375   H389    1.076   .     S
C375   C905    1.384   1_554 S
C375   C897    1.413   1_554 S
C376   O413    1.223   .     D
C376   O405    1.398   .     S
C377   C381    1.413   .     A
C378   C382    1.403   .     A
C378   C897    1.424   1_554 S
C378   C910    1.419   1_554 S
C379   C380    1.392   .     A
C379   C902    1.405   .     S
C379   C909    1.419   .     S
C380   H401    1.084   .     S
C380   C381    1.387   .     A
C381   H391    1.081   .     S
C382   H388    1.076   .     S
C383   H386    1.083   .     S
Cu384  O409    1.965   .     S
Cu384  O404    1.965   .     S
Cu384  N402    2.011   .     S
Cu384  Cu385   2.676   .     S
Cu384  O411    1.933   .     S
Cu384  O407    1.950   .     S
Cu385  O406    1.965   .     S
Cu385  N403    2.011   .     S
Cu385  O412    1.950   .     S
Cu385  O408    1.933   .     S
Cu385  O410    1.965   .     S
H387   C902    1.084   .     S
H390   C905    1.085   1_554 S
H393   O464    1.013   .     S
O405   H511    1.013   1_455 S
C414   O465    1.291   .     A
C414   O463    1.291   .     A
C414   C422    1.450   .     S
C415   C417    1.491   .     S
C415   C436    1.424   .     A
C415   C432    1.424   .     A
C416   C422    1.401   .     A
C416   H451    1.083   .     S
C416   C64     1.384   1_565 S
C417   O466    1.296   .     A
C417   O467    1.303   .     A
C418   C419    1.401   .     A
C418   H453    1.083   .     S
C419   C420    1.401   .     A
C419   C428    1.450   .     S
C420   H454    1.083   .     S
C421   H455    1.083   .     S
C421   C422    1.401   .     A
C421   C66     1.383   1_565 S
C423   N462    1.367   .     A
C423   H456    1.082   .     S
C423   C483    1.416   .     S
C424   H457    1.082   .     S
C424   N461    1.366   .     A
C425   C436    1.420   .     A
C425   C965    1.413   .     S
C425   C968    1.424   .     S
C426   N461    1.367   .     A
C426   H458    1.082   .     S
C427   H459    1.082   .     S
C427   N462    1.367   .     A
C427   C485    1.416   .     S
C428   O469    1.291   .     A
C428   O468    1.291   .     A
C429   O471    1.294   .     A
C429   O470    1.293   .     A
C429   C431    1.463   .     S
C430   C442    1.394   .     A
C430   C969    1.405   1_554 S
C430   H977    1.084   1_554 S
C431   C442    1.399   .     A
C431   C441    1.394   .     A
C432   C433    1.392   .     A
C432   C435    1.479   .     S
C433   C965    1.384   .     S
C433   H980    1.085   .     S
C434   H448    1.076   .     S
C434   C964    1.384   1_554 S
C434   C956    1.413   1_554 S
C435   O472    1.223   .     D
C435   O464    1.398   .     S
C436   C440    1.413   .     A
C437   C441    1.403   .     A
C437   C956    1.424   1_554 S
C437   C969    1.419   1_554 S
C438   C439    1.392   .     A
C438   C961    1.405   .     S
C438   C968    1.419   .     S
C439   H460    1.084   .     S
C439   C440    1.387   .     A
C440   H450    1.081   .     S
C441   H447    1.076   .     S
C442   H445    1.083   .     S
Cu443  O468    1.965   .     S
Cu443  O463    1.965   .     S
Cu443  N461    2.011   .     S
Cu443  Cu444   2.676   .     S
Cu443  O470    1.933   .     S
Cu443  O466    1.950   .     S
Cu444  O465    1.965   .     S
Cu444  N462    2.011   .     S
Cu444  O471    1.950   .     S
Cu444  O467    1.933   .     S
Cu444  O469    1.965   .     S
H446   C961    1.084   .     S
H449   C964    1.085   1_554 S
H452   O523    1.013   .     S
C473   O524    1.291   .     A
C473   O522    1.291   .     A
C473   C481    1.450   .     S
C474   C476    1.491   .     S
C474   C495    1.424   .     A
C474   C491    1.424   .     A
C475   C481    1.401   .     A
C475   H510    1.083   .     S
C475   C123    1.384   1_565 S
C476   O525    1.296   .     A
C476   O526    1.303   .     A
C477   C478    1.401   .     A
C477   H512    1.083   .     S
C478   C479    1.401   .     A
C478   C487    1.450   .     S
C479   H513    1.083   .     S
C480   H514    1.083   .     S
C480   C481    1.401   .     A
C480   C125    1.383   1_565 S
C482   N521    1.367   .     A
C482   H515    1.082   .     S
C482   C365    1.416   1_655 S
C483   H516    1.082   .     S
C483   N520    1.366   .     A
C484   C495    1.420   .     A
C484   C1024   1.413   .     S
C484   C1027   1.424   .     S
C485   N520    1.367   .     A
C485   H517    1.082   .     S
C486   H518    1.082   .     S
C486   N521    1.367   .     A
C486   C367    1.416   1_655 S
C487   O528    1.291   .     A
C487   O527    1.291   .     A
C488   O530    1.294   .     A
C488   O529    1.293   .     A
C488   C490    1.463   .     S
C489   C501    1.394   .     A
C489   C1028   1.405   1_554 S
C489   H1036   1.084   1_554 S
C490   C501    1.399   .     A
C490   C500    1.394   .     A
C491   C492    1.392   .     A
C491   C494    1.479   .     S
C492   C1024   1.384   .     S
C492   H1039   1.085   .     S
C493   H507    1.076   .     S
C493   C1023   1.384   1_554 S
C493   C1015   1.413   1_554 S
C494   O531    1.223   .     D
C494   O523    1.398   .     S
C495   C499    1.413   .     A
C496   C500    1.403   .     A
C496   C1015   1.424   1_554 S
C496   C1028   1.419   1_554 S
C497   C498    1.392   .     A
C497   C1020   1.405   .     S
C497   C1027   1.419   .     S
C498   H519    1.084   .     S
C498   C499    1.387   .     A
C499   H509    1.081   .     S
C500   H506    1.076   .     S
C501   H504    1.083   .     S
Cu502  O527    1.965   .     S
Cu502  O522    1.965   .     S
Cu502  N520    2.011   .     S
Cu502  Cu503   2.676   .     S
Cu502  O529    1.933   .     S
Cu502  O525    1.950   .     S
Cu503  O524    1.965   .     S
Cu503  N521    2.011   .     S
Cu503  O530    1.950   .     S
Cu503  O526    1.933   .     S
Cu503  O528    1.965   .     S
H505   C1020   1.084   .     S
H508   C1023   1.085   1_554 S
H511   O405    1.013   1_655 S
C532   O583    1.291   .     A
C532   O581    1.291   .     A
C532   C540    1.450   .     S
C533   C535    1.491   .     S
C533   C554    1.424   .     A
C533   C550    1.424   .     A
C534   C540    1.401   .     A
C534   H569    1.083   .     S
C534   C713    1.384   .     S
C535   O584    1.296   .     A
C535   O585    1.303   .     A
C536   C537    1.401   .     A
C536   H571    1.083   .     S
C536   C888    1.384   1_545 S
C537   C538    1.401   .     A
C537   C546    1.450   .     S
C538   H572    1.083   .     S
C538   C893    1.383   1_545 S
C539   H573    1.083   .     S
C539   C540    1.401   .     A
C539   C715    1.383   .     S
C541   N580    1.367   .     A
C541   H574    1.082   .     S
C541   C601    1.416   .     S
C542   H575    1.082   .     S
C542   N579    1.366   .     A
C542   C659    1.416   1_455 S
C543   C554    1.420   .     A
C543   C21     1.413   1_556 S
C543   C24     1.424   1_556 S
C544   N579    1.367   .     A
C544   H576    1.082   .     S
C544   C663    1.416   1_455 S
C545   H577    1.082   .     S
C545   N580    1.367   .     A
C545   C603    1.416   .     S
C546   O587    1.291   .     A
C546   O586    1.291   .     A
C547   O589    1.294   .     A
C547   O588    1.293   .     A
C547   C549    1.463   .     S
C548   C560    1.394   .     A
C549   C560    1.399   .     A
C549   C559    1.394   .     A
C550   C551    1.392   .     A
C550   C553    1.479   .     S
C551   C21     1.384   1_556 S
C551   H36     1.085   1_556 S
C552   H566    1.076   .     S
C553   O590    1.223   .     D
C553   O582    1.398   .     S
C554   C558    1.413   .     A
C555   C559    1.403   .     A
C556   C557    1.392   .     A
C556   C17     1.405   1_556 S
C556   C24     1.419   1_556 S
C557   H578    1.084   .     S
C557   C558    1.387   .     A
C558   H568    1.081   .     S
C559   H565    1.076   .     S
C560   H563    1.083   .     S
Cu561  O586    1.965   .     S
Cu561  O581    1.965   .     S
Cu561  N579    2.011   .     S
Cu561  Cu562   2.676   .     S
Cu561  O588    1.933   .     S
Cu561  O584    1.950   .     S
Cu562  O583    1.965   .     S
Cu562  N580    2.011   .     S
Cu562  O589    1.950   .     S
Cu562  O585    1.933   .     S
Cu562  O587    1.965   .     S
H564   C17     1.084   1_556 S
H570   O641    1.013   .     S
O582   H688    1.013   1_455 S
C591   O642    1.291   .     A
C591   O640    1.291   .     A
C591   C599    1.450   .     S
C592   C594    1.491   .     S
C592   C613    1.424   .     A
C592   C609    1.424   .     A
C593   C599    1.401   .     A
C593   H628    1.083   .     S
C593   C772    1.384   .     S
C594   O643    1.296   .     A
C594   O644    1.303   .     A
C595   C596    1.401   .     A
C595   H630    1.083   .     S
C595   C947    1.384   1_545 S
C596   C597    1.401   .     A
C596   C605    1.450   .     S
C597   H631    1.083   .     S
C597   C952    1.383   1_545 S
C598   H632    1.083   .     S
C598   C599    1.401   .     A
C598   C774    1.383   .     S
C600   N639    1.367   .     A
C600   H633    1.082   .     S
C600   C660    1.416   .     S
C601   H634    1.082   .     S
C601   N638    1.366   .     A
C602   C613    1.420   .     A
C602   C80     1.413   1_556 S
C602   C83     1.424   1_556 S
C603   N638    1.367   .     A
C603   H635    1.082   .     S
C604   H636    1.082   .     S
C604   N639    1.367   .     A
C604   C662    1.416   .     S
C605   O646    1.291   .     A
C605   O645    1.291   .     A
C606   O648    1.294   .     A
C606   O647    1.293   .     A
C606   C608    1.463   .     S
C607   C619    1.394   .     A
C608   C619    1.399   .     A
C608   C618    1.394   .     A
C609   C610    1.392   .     A
C609   C612    1.479   .     S
C610   C80     1.384   1_556 S
C610   H95     1.085   1_556 S
C611   H625    1.076   .     S
C612   O649    1.223   .     D
C612   O641    1.398   .     S
C613   C617    1.413   .     A
C614   C618    1.403   .     A
C615   C616    1.392   .     A
C615   C76     1.405   1_556 S
C615   C83     1.419   1_556 S
C616   H637    1.084   .     S
C616   C617    1.387   .     A
C617   H627    1.081   .     S
C618   H624    1.076   .     S
C619   H622    1.083   .     S
Cu620  O645    1.965   .     S
Cu620  O640    1.965   .     S
Cu620  N638    2.011   .     S
Cu620  Cu621   2.676   .     S
Cu620  O647    1.933   .     S
Cu620  O643    1.950   .     S
Cu621  O642    1.965   .     S
Cu621  N639    2.011   .     S
Cu621  O648    1.950   .     S
Cu621  O644    1.933   .     S
Cu621  O646    1.965   .     S
H623   C76     1.084   1_556 S
H629   O700    1.013   .     S
C650   O701    1.291   .     A
C650   O699    1.291   .     A
C650   C658    1.450   .     S
C651   C653    1.491   .     S
C651   C672    1.424   .     A
C651   C668    1.424   .     A
C652   C658    1.401   .     A
C652   H687    1.083   .     S
C652   C831    1.384   .     S
C653   O702    1.296   .     A
C653   O703    1.303   .     A
C654   C655    1.401   .     A
C654   H689    1.083   .     S
C654   C1006   1.384   1_545 S
C655   C656    1.401   .     A
C655   C664    1.450   .     S
C656   H690    1.083   .     S
C656   C1011   1.383   1_545 S
C657   H691    1.083   .     S
C657   C658    1.401   .     A
C657   C833    1.383   .     S
C659   N698    1.367   .     A
C659   H692    1.082   .     S
C659   C542    1.416   1_655 S
C660   H693    1.082   .     S
C660   N697    1.366   .     A
C661   C672    1.420   .     A
C661   C139    1.413   1_556 S
C661   C142    1.424   1_556 S
C662   N697    1.367   .     A
C662   H694    1.082   .     S
C663   H695    1.082   .     S
C663   N698    1.367   .     A
C663   C544    1.416   1_655 S
C664   O705    1.291   .     A
C664   O704    1.291   .     A
C665   O707    1.294   .     A
C665   O706    1.293   .     A
C665   C667    1.463   .     S
C666   C678    1.394   .     A
C667   C678    1.399   .     A
C667   C677    1.394   .     A
C668   C669    1.392   .     A
C668   C671    1.479   .     S
C669   C139    1.384   1_556 S
C669   H154    1.085   1_556 S
C670   H684    1.076   .     S
C671   O708    1.223   .     D
C671   O700    1.398   .     S
C672   C676    1.413   .     A
C673   C677    1.403   .     A
C674   C675    1.392   .     A
C674   C135    1.405   1_556 S
C674   C142    1.419   1_556 S
C675   H696    1.084   .     S
C675   C676    1.387   .     A
C676   H686    1.081   .     S
C677   H683    1.076   .     S
C678   H681    1.083   .     S
Cu679  O704    1.965   .     S
Cu679  O699    1.965   .     S
Cu679  N697    2.011   .     S
Cu679  Cu680   2.676   .     S
Cu679  O706    1.933   .     S
Cu679  O702    1.950   .     S
Cu680  O701    1.965   .     S
Cu680  N698    2.011   .     S
Cu680  O707    1.950   .     S
Cu680  O703    1.933   .     S
Cu680  O705    1.965   .     S
H682   C135    1.084   1_556 S
H688   O582    1.013   1_655 S
C709   O760    1.291   .     A
C709   O758    1.291   .     A
C709   C717    1.450   .     S
C710   C712    1.491   .     S
C710   C731    1.424   .     A
C710   C727    1.424   .     A
C711   C717    1.401   .     A
C711   H746    1.083   .     S
C711   C890    1.384   .     S
C712   O761    1.296   .     A
C712   O762    1.303   .     A
C713   C714    1.401   .     A
C713   H748    1.083   .     S
C714   C715    1.401   .     A
C714   C723    1.450   .     S
C715   H749    1.083   .     S
C716   H750    1.083   .     S
C716   C717    1.401   .     A
C716   C892    1.383   .     S
C718   N757    1.367   .     A
C718   H751    1.082   .     S
C718   C778    1.416   .     S
C719   H752    1.082   .     S
C719   N756    1.366   .     A
C719   C836    1.416   1_455 S
C720   C731    1.420   .     A
C720   C198    1.413   1_556 S
C720   C201    1.424   1_556 S
C721   N756    1.367   .     A
C721   H753    1.082   .     S
C721   C840    1.416   1_455 S
C722   H754    1.082   .     S
C722   N757    1.367   .     A
C722   C780    1.416   .     S
C723   O764    1.291   .     A
C723   O763    1.291   .     A
C724   O766    1.294   .     A
C724   O765    1.293   .     A
C724   C726    1.463   .     S
C725   C737    1.394   .     A
C726   C737    1.399   .     A
C726   C736    1.394   .     A
C727   C728    1.392   .     A
C727   C730    1.479   .     S
C728   C198    1.384   1_556 S
C728   H213    1.085   1_556 S
C729   H743    1.076   .     S
C730   O767    1.223   .     D
C730   O759    1.398   .     S
C731   C735    1.413   .     A
C732   C736    1.403   .     A
C733   C734    1.392   .     A
C733   C194    1.405   1_556 S
C733   C201    1.419   1_556 S
C734   H755    1.084   .     S
C734   C735    1.387   .     A
C735   H745    1.081   .     S
C736   H742    1.076   .     S
C737   H740    1.083   .     S
Cu738  O763    1.965   .     S
Cu738  O758    1.965   .     S
Cu738  N756    2.011   .     S
Cu738  Cu739   2.676   .     S
Cu738  O765    1.933   .     S
Cu738  O761    1.950   .     S
Cu739  O760    1.965   .     S
Cu739  N757    2.011   .     S
Cu739  O766    1.950   .     S
Cu739  O762    1.933   .     S
Cu739  O764    1.965   .     S
H741   C194    1.084   1_556 S
H747   O818    1.013   .     S
O759   H865    1.013   1_455 S
C768   O819    1.291   .     A
C768   O817    1.291   .     A
C768   C776    1.450   .     S
C769   C771    1.491   .     S
C769   C790    1.424   .     A
C769   C786    1.424   .     A
C770   C776    1.401   .     A
C770   H805    1.083   .     S
C770   C949    1.384   .     S
C771   O820    1.296   .     A
C771   O821    1.303   .     A
C772   C773    1.401   .     A
C772   H807    1.083   .     S
C773   C774    1.401   .     A
C773   C782    1.450   .     S
C774   H808    1.083   .     S
C775   H809    1.083   .     S
C775   C776    1.401   .     A
C775   C951    1.383   .     S
C777   N816    1.367   .     A
C777   H810    1.082   .     S
C777   C837    1.416   .     S
C778   H811    1.082   .     S
C778   N815    1.366   .     A
C779   C790    1.420   .     A
C779   C257    1.413   1_556 S
C779   C260    1.424   1_556 S
C780   N815    1.367   .     A
C780   H812    1.082   .     S
C781   H813    1.082   .     S
C781   N816    1.367   .     A
C781   C839    1.416   .     S
C782   O823    1.291   .     A
C782   O822    1.291   .     A
C783   O825    1.294   .     A
C783   O824    1.293   .     A
C783   C785    1.463   .     S
C784   C796    1.394   .     A
C785   C796    1.399   .     A
C785   C795    1.394   .     A
C786   C787    1.392   .     A
C786   C789    1.479   .     S
C787   C257    1.384   1_556 S
C787   H272    1.085   1_556 S
C788   H802    1.076   .     S
C789   O826    1.223   .     D
C789   O818    1.398   .     S
C790   C794    1.413   .     A
C791   C795    1.403   .     A
C792   C793    1.392   .     A
C792   C253    1.405   1_556 S
C792   C260    1.419   1_556 S
C793   H814    1.084   .     S
C793   C794    1.387   .     A
C794   H804    1.081   .     S
C795   H801    1.076   .     S
C796   H799    1.083   .     S
Cu797  O822    1.965   .     S
Cu797  O817    1.965   .     S
Cu797  N815    2.011   .     S
Cu797  Cu798   2.676   .     S
Cu797  O824    1.933   .     S
Cu797  O820    1.950   .     S
Cu798  O819    1.965   .     S
Cu798  N816    2.011   .     S
Cu798  O825    1.950   .     S
Cu798  O821    1.933   .     S
Cu798  O823    1.965   .     S
H800   C253    1.084   1_556 S
H806   O877    1.013   .     S
C827   O878    1.291   .     A
C827   O876    1.291   .     A
C827   C835    1.450   .     S
C828   C830    1.491   .     S
C828   C849    1.424   .     A
C828   C845    1.424   .     A
C829   C835    1.401   .     A
C829   H864    1.083   .     S
C829   C1008   1.384   .     S
C830   O879    1.296   .     A
C830   O880    1.303   .     A
C831   C832    1.401   .     A
C831   H866    1.083   .     S
C832   C833    1.401   .     A
C832   C841    1.450   .     S
C833   H867    1.083   .     S
C834   H868    1.083   .     S
C834   C835    1.401   .     A
C834   C1010   1.383   .     S
C836   N875    1.367   .     A
C836   H869    1.082   .     S
C836   C719    1.416   1_655 S
C837   H870    1.082   .     S
C837   N874    1.366   .     A
C838   C849    1.420   .     A
C838   C316    1.413   1_556 S
C838   C319    1.424   1_556 S
C839   N874    1.367   .     A
C839   H871    1.082   .     S
C840   H872    1.082   .     S
C840   N875    1.367   .     A
C840   C721    1.416   1_655 S
C841   O882    1.291   .     A
C841   O881    1.291   .     A
C842   O884    1.294   .     A
C842   O883    1.293   .     A
C842   C844    1.463   .     S
C843   C855    1.394   .     A
C844   C855    1.399   .     A
C844   C854    1.394   .     A
C845   C846    1.392   .     A
C845   C848    1.479   .     S
C846   C316    1.384   1_556 S
C846   H331    1.085   1_556 S
C847   H861    1.076   .     S
C848   O885    1.223   .     D
C848   O877    1.398   .     S
C849   C853    1.413   .     A
C850   C854    1.403   .     A
C851   C852    1.392   .     A
C851   C312    1.405   1_556 S
C851   C319    1.419   1_556 S
C852   H873    1.084   .     S
C852   C853    1.387   .     A
C853   H863    1.081   .     S
C854   H860    1.076   .     S
C855   H858    1.083   .     S
Cu856  O881    1.965   .     S
Cu856  O876    1.965   .     S
Cu856  N874    2.011   .     S
Cu856  Cu857   2.676   .     S
Cu856  O883    1.933   .     S
Cu856  O879    1.950   .     S
Cu857  O878    1.965   .     S
Cu857  N875    2.011   .     S
Cu857  O884    1.950   .     S
Cu857  O880    1.933   .     S
Cu857  O882    1.965   .     S
H859   C312    1.084   1_556 S
H865   O759    1.013   1_655 S
C886   O937    1.291   .     A
C886   O935    1.291   .     A
C886   C894    1.450   .     S
C887   C889    1.491   .     S
C887   C908    1.424   .     A
C887   C904    1.424   .     A
C888   C894    1.401   .     A
C888   H923    1.083   .     S
C888   C536    1.384   1_565 S
C889   O938    1.296   .     A
C889   O939    1.303   .     A
C890   C891    1.401   .     A
C890   H925    1.083   .     S
C891   C892    1.401   .     A
C891   C900    1.450   .     S
C892   H926    1.083   .     S
C893   H927    1.083   .     S
C893   C894    1.401   .     A
C893   C538    1.383   1_565 S
C895   N934    1.367   .     A
C895   H928    1.082   .     S
C895   C955    1.416   .     S
C896   H929    1.082   .     S
C896   N933    1.366   .     A
C896   C1013   1.416   1_455 S
C897   C908    1.420   .     A
C897   C375    1.413   1_556 S
C897   C378    1.424   1_556 S
C898   N933    1.367   .     A
C898   H930    1.082   .     S
C898   C1017   1.416   1_455 S
C899   H931    1.082   .     S
C899   N934    1.367   .     A
C899   C957    1.416   .     S
C900   O941    1.291   .     A
C900   O940    1.291   .     A
C901   O943    1.294   .     A
C901   O942    1.293   .     A
C901   C903    1.463   .     S
C902   C914    1.394   .     A
C903   C914    1.399   .     A
C903   C913    1.394   .     A
C904   C905    1.392   .     A
C904   C907    1.479   .     S
C905   C375    1.384   1_556 S
C905   H390    1.085   1_556 S
C906   H920    1.076   .     S
C907   O944    1.223   .     D
C907   O936    1.398   .     S
C908   C912    1.413   .     A
C909   C913    1.403   .     A
C910   C911    1.392   .     A
C910   C371    1.405   1_556 S
C910   C378    1.419   1_556 S
C911   H932    1.084   .     S
C911   C912    1.387   .     A
C912   H922    1.081   .     S
C913   H919    1.076   .     S
C914   H917    1.083   .     S
Cu915  O940    1.965   .     S
Cu915  O935    1.965   .     S
Cu915  N933    2.011   .     S
Cu915  Cu916   2.676   .     S
Cu915  O942    1.933   .     S
Cu915  O938    1.950   .     S
Cu916  O937    1.965   .     S
Cu916  N934    2.011   .     S
Cu916  O943    1.950   .     S
Cu916  O939    1.933   .     S
Cu916  O941    1.965   .     S
H918   C371    1.084   1_556 S
H924   O995    1.013   .     S
O936   H1042   1.013   1_455 S
C945   O996    1.291   .     A
C945   O994    1.291   .     A
C945   C953    1.450   .     S
C946   C948    1.491   .     S
C946   C967    1.424   .     A
C946   C963    1.424   .     A
C947   C953    1.401   .     A
C947   H982    1.083   .     S
C947   C595    1.384   1_565 S
C948   O997    1.296   .     A
C948   O998    1.303   .     A
C949   C950    1.401   .     A
C949   H984    1.083   .     S
C950   C951    1.401   .     A
C950   C959    1.450   .     S
C951   H985    1.083   .     S
C952   H986    1.083   .     S
C952   C953    1.401   .     A
C952   C597    1.383   1_565 S
C954   N993    1.367   .     A
C954   H987    1.082   .     S
C954   C1014   1.416   .     S
C955   H988    1.082   .     S
C955   N992    1.366   .     A
C956   C967    1.420   .     A
C956   C434    1.413   1_556 S
C956   C437    1.424   1_556 S
C957   N992    1.367   .     A
C957   H989    1.082   .     S
C958   H990    1.082   .     S
C958   N993    1.367   .     A
C958   C1016   1.416   .     S
C959   O1000   1.291   .     A
C959   O999    1.291   .     A
C960   O1002   1.294   .     A
C960   O1001   1.293   .     A
C960   C962    1.463   .     S
C961   C973    1.394   .     A
C962   C973    1.399   .     A
C962   C972    1.394   .     A
C963   C964    1.392   .     A
C963   C966    1.479   .     S
C964   C434    1.384   1_556 S
C964   H449    1.085   1_556 S
C965   H979    1.076   .     S
C966   O1003   1.223   .     D
C966   O995    1.398   .     S
C967   C971    1.413   .     A
C968   C972    1.403   .     A
C969   C970    1.392   .     A
C969   C430    1.405   1_556 S
C969   C437    1.419   1_556 S
C970   H991    1.084   .     S
C970   C971    1.387   .     A
C971   H981    1.081   .     S
C972   H978    1.076   .     S
C973   H976    1.083   .     S
Cu974  O999    1.965   .     S
Cu974  O994    1.965   .     S
Cu974  N992    2.011   .     S
Cu974  Cu975   2.676   .     S
Cu974  O1001   1.933   .     S
Cu974  O997    1.950   .     S
Cu975  O996    1.965   .     S
Cu975  N993    2.011   .     S
Cu975  O1002   1.950   .     S
Cu975  O998    1.933   .     S
Cu975  O1000   1.965   .     S
H977   C430    1.084   1_556 S
H983   O1054   1.013   .     S
C1004  O1055   1.291   .     A
C1004  O1053   1.291   .     A
C1004  C1012   1.450   .     S
C1005  C1007   1.491   .     S
C1005  C1026   1.424   .     A
C1005  C1022   1.424   .     A
C1006  C1012   1.401   .     A
C1006  H1041   1.083   .     S
C1006  C654    1.384   1_565 S
C1007  O1056   1.296   .     A
C1007  O1057   1.303   .     A
C1008  C1009   1.401   .     A
C1008  H1043   1.083   .     S
C1009  C1010   1.401   .     A
C1009  C1018   1.450   .     S
C1010  H1044   1.083   .     S
C1011  H1045   1.083   .     S
C1011  C1012   1.401   .     A
C1011  C656    1.383   1_565 S
C1013  N1052   1.367   .     A
C1013  H1046   1.082   .     S
C1013  C896    1.416   1_655 S
C1014  H1047   1.082   .     S
C1014  N1051   1.366   .     A
C1015  C1026   1.420   .     A
C1015  C493    1.413   1_556 S
C1015  C496    1.424   1_556 S
C1016  N1051   1.367   .     A
C1016  H1048   1.082   .     S
C1017  H1049   1.082   .     S
C1017  N1052   1.367   .     A
C1017  C898    1.416   1_655 S
C1018  O1059   1.291   .     A
C1018  O1058   1.291   .     A
C1019  O1061   1.294   .     A
C1019  O1060   1.293   .     A
C1019  C1021   1.463   .     S
C1020  C1032   1.394   .     A
C1021  C1032   1.399   .     A
C1021  C1031   1.394   .     A
C1022  C1023   1.392   .     A
C1022  C1025   1.479   .     S
C1023  C493    1.384   1_556 S
C1023  H508    1.085   1_556 S
C1024  H1038   1.076   .     S
C1025  O1062   1.223   .     D
C1025  O1054   1.398   .     S
C1026  C1030   1.413   .     A
C1027  C1031   1.403   .     A
C1028  C1029   1.392   .     A
C1028  C489    1.405   1_556 S
C1028  C496    1.419   1_556 S
C1029  H1050   1.084   .     S
C1029  C1030   1.387   .     A
C1030  H1040   1.081   .     S
C1031  H1037   1.076   .     S
C1032  H1035   1.083   .     S
Cu1033 O1058   1.965   .     S
Cu1033 O1053   1.965   .     S
Cu1033 N1051   2.011   .     S
Cu1033 Cu1034  2.676   .     S
Cu1033 O1060   1.933   .     S
Cu1033 O1056   1.950   .     S
Cu1034 O1055   1.965   .     S
Cu1034 N1052   2.011   .     S
Cu1034 O1061   1.950   .     S
Cu1034 O1057   1.933   .     S
Cu1034 O1059   1.965   .     S
H1036  C489    1.084   1_556 S
H1042  O936    1.013   1_655 S
