data_str_m2_o10_o17_pcu_sym.126
_audit_creation_date              2020-01-03
_audit_creation_method            'Materials Studio'
_symmetry_space_group_name_H-M    'P1'
_symmetry_Int_Tables_number       1
_symmetry_cell_setting            triclinic
loop_
_symmetry_equiv_pos_as_xyz
  x,y,z
_cell_length_a                    29.9860
_cell_length_b                    26.0805
_cell_length_c                    22.5274
_cell_angle_alpha                 102.7210
_cell_angle_beta                  94.8279
_cell_angle_gamma                 93.5312
loop_
_atom_site_label
_atom_site_type_symbol
_atom_site_fract_x
_atom_site_fract_y
_atom_site_fract_z
_atom_site_U_iso_or_equiv
_atom_site_adp_type
_atom_site_occupancy
C1     C     0.24790   0.06679   0.15155   0.00000  Uiso   1.00
C2     C     0.25210   0.26654   0.18178   0.00000  Uiso   1.00
C3     C     0.01540   0.07262   0.11678   0.00000  Uiso   1.00
C4     C     0.48460   0.26072   0.21655   0.00000  Uiso   1.00
C5     C     0.24036   0.01137   0.14524   0.00000  Uiso   1.00
C6     C     0.25964   0.32196   0.18809   0.00000  Uiso   1.00
C7     C     0.16473   0.16711   0.16721   0.00000  Uiso   1.00
C8     C     0.33527   0.16622   0.16613   0.00000  Uiso   1.00
C9     C     0.40984   0.21236   0.19102   0.00000  Uiso   1.00
C10    C     0.09016   0.12097   0.14231   0.00000  Uiso   1.00
C11    C     0.38332   0.16574   0.16501   0.00000  Uiso   1.00
C12    C     0.11668   0.16760   0.16832   0.00000  Uiso   1.00
C13    C     0.40218   0.11925   0.13916   0.00000  Uiso   1.00
C14    C     0.09783   0.21408   0.19417   0.00000  Uiso   1.00
C15    C     0.44906   0.11945   0.14019   0.00000  Uiso   1.00
C16    C     0.05094   0.21389   0.19315   0.00000  Uiso   1.00
C17    C     0.47643   0.16669   0.16628   0.00000  Uiso   1.00
C18    C     0.02357   0.16665   0.16705   0.00000  Uiso   1.00
C19    C     0.45671   0.21387   0.19156   0.00000  Uiso   1.00
C20    C     0.04329   0.11947   0.14177   0.00000  Uiso   1.00
C21    C     0.46911   0.07326   0.11607   0.00000  Uiso   1.00
C22    C     0.03089   0.26007   0.21726   0.00000  Uiso   1.00
Cu23   Cu    0.25501   0.17246   0.22813   0.00000  Uiso   1.00
Cu24   Cu    0.24500   0.16087   0.10521   0.00000  Uiso   1.00
H25    H     0.44910   0.03663   0.09642   0.00000  Uiso   1.00
H26    H     0.05090   0.29670   0.23691   0.00000  Uiso   1.00
N27    N     0.23745   0.15214   0.01284   0.00000  Uiso   1.00
N28    N     0.26256   0.18119   0.32049   0.00000  Uiso   1.00
O29    O     0.25326   0.09538   0.20659   0.00000  Uiso   1.00
O30    O     0.24675   0.23796   0.12674   0.00000  Uiso   1.00
O31    O     0.24480   0.08559   0.10279   0.00000  Uiso   1.00
O32    O     0.25520   0.24774   0.23055   0.00000  Uiso   1.00
O33    O     0.18936   0.17155   0.21857   0.00000  Uiso   1.00
O34    O     0.31065   0.16179   0.11476   0.00000  Uiso   1.00
O35    O     0.18090   0.16176   0.11477   0.00000  Uiso   1.00
O36    O     0.31910   0.17157   0.21857   0.00000  Uiso   1.00
F37    F     0.38885   0.25569   0.21520   0.00000  Uiso   1.00
F38    F     0.11115   0.07764   0.11814   0.00000  Uiso   1.00
Br39   Br    0.36309   0.05574   0.10479   0.00000  Uiso   1.00
Br40   Br    0.13691   0.27759   0.22855   0.00000  Uiso   1.00
Br41   Br    0.03659   0.00501   0.08309   0.00000  Uiso   1.00
Br42   Br    0.46341   0.32832   0.25025   0.00000  Uiso   1.00
Br43   Br    0.19461   0.31008   0.08031   0.00000  Uiso   1.00
Br44   Br    0.30539   0.02325   0.25303   0.00000  Uiso   1.00
Br45   Br    0.19298   0.10112   0.30106   0.00000  Uiso   1.00
Br46   Br    0.30702   0.23221   0.03227   0.00000  Uiso   1.00
C47    C     0.74790   0.06679   0.15155   0.00000  Uiso   1.00
C48    C     0.75210   0.26654   0.18178   0.00000  Uiso   1.00
C49    C     0.51540   0.07262   0.11678   0.00000  Uiso   1.00
C50    C     0.98460   0.26072   0.21655   0.00000  Uiso   1.00
C51    C     0.74036   0.01137   0.14524   0.00000  Uiso   1.00
C52    C     0.75964   0.32196   0.18809   0.00000  Uiso   1.00
C53    C     0.66473   0.16711   0.16721   0.00000  Uiso   1.00
C54    C     0.83527   0.16622   0.16613   0.00000  Uiso   1.00
C55    C     0.90984   0.21236   0.19102   0.00000  Uiso   1.00
C56    C     0.59016   0.12097   0.14231   0.00000  Uiso   1.00
C57    C     0.88332   0.16574   0.16501   0.00000  Uiso   1.00
C58    C     0.61668   0.16760   0.16832   0.00000  Uiso   1.00
C59    C     0.90218   0.11925   0.13916   0.00000  Uiso   1.00
C60    C     0.59783   0.21408   0.19417   0.00000  Uiso   1.00
C61    C     0.94906   0.11945   0.14019   0.00000  Uiso   1.00
C62    C     0.55094   0.21389   0.19315   0.00000  Uiso   1.00
C63    C     0.97643   0.16669   0.16628   0.00000  Uiso   1.00
C64    C     0.52357   0.16665   0.16705   0.00000  Uiso   1.00
C65    C     0.95671   0.21387   0.19156   0.00000  Uiso   1.00
C66    C     0.54329   0.11947   0.14177   0.00000  Uiso   1.00
C67    C     0.96911   0.07326   0.11607   0.00000  Uiso   1.00
C68    C     0.53089   0.26007   0.21726   0.00000  Uiso   1.00
Cu69   Cu    0.75501   0.17246   0.22813   0.00000  Uiso   1.00
Cu70   Cu    0.74500   0.16087   0.10521   0.00000  Uiso   1.00
H71    H     0.94910   0.03663   0.09642   0.00000  Uiso   1.00
H72    H     0.55090   0.29670   0.23691   0.00000  Uiso   1.00
N73    N     0.73745   0.15214   0.01284   0.00000  Uiso   1.00
N74    N     0.76256   0.18119   0.32049   0.00000  Uiso   1.00
O75    O     0.75326   0.09538   0.20659   0.00000  Uiso   1.00
O76    O     0.74675   0.23796   0.12674   0.00000  Uiso   1.00
O77    O     0.74480   0.08559   0.10279   0.00000  Uiso   1.00
O78    O     0.75520   0.24774   0.23055   0.00000  Uiso   1.00
O79    O     0.68936   0.17155   0.21857   0.00000  Uiso   1.00
O80    O     0.81065   0.16179   0.11476   0.00000  Uiso   1.00
O81    O     0.68090   0.16176   0.11477   0.00000  Uiso   1.00
O82    O     0.81910   0.17157   0.21857   0.00000  Uiso   1.00
F83    F     0.88885   0.25569   0.21520   0.00000  Uiso   1.00
F84    F     0.61115   0.07764   0.11814   0.00000  Uiso   1.00
Br85   Br    0.86309   0.05574   0.10479   0.00000  Uiso   1.00
Br86   Br    0.63691   0.27759   0.22855   0.00000  Uiso   1.00
Br87   Br    0.53659   0.00501   0.08309   0.00000  Uiso   1.00
Br88   Br    0.96341   0.32832   0.25025   0.00000  Uiso   1.00
Br89   Br    0.69461   0.31008   0.08031   0.00000  Uiso   1.00
Br90   Br    0.80539   0.02325   0.25303   0.00000  Uiso   1.00
Br91   Br    0.69298   0.10112   0.30106   0.00000  Uiso   1.00
Br92   Br    0.80702   0.23221   0.03227   0.00000  Uiso   1.00
C93    C     0.24790   0.40013   0.15155   0.00000  Uiso   1.00
C94    C     0.25210   0.59987   0.18178   0.00000  Uiso   1.00
C95    C     0.01540   0.40595   0.11678   0.00000  Uiso   1.00
C96    C     0.48460   0.59405   0.21655   0.00000  Uiso   1.00
C97    C     0.24036   0.34470   0.14524   0.00000  Uiso   1.00
C98    C     0.25964   0.65530   0.18809   0.00000  Uiso   1.00
C99    C     0.16473   0.50044   0.16721   0.00000  Uiso   1.00
C100   C     0.33527   0.49956   0.16613   0.00000  Uiso   1.00
C101   C     0.40984   0.54569   0.19102   0.00000  Uiso   1.00
C102   C     0.09016   0.45431   0.14231   0.00000  Uiso   1.00
C103   C     0.38332   0.49907   0.16501   0.00000  Uiso   1.00
C104   C     0.11668   0.50093   0.16832   0.00000  Uiso   1.00
C105   C     0.40218   0.45259   0.13916   0.00000  Uiso   1.00
C106   C     0.09783   0.54741   0.19417   0.00000  Uiso   1.00
C107   C     0.44906   0.45278   0.14019   0.00000  Uiso   1.00
C108   C     0.05094   0.54722   0.19315   0.00000  Uiso   1.00
C109   C     0.47643   0.50002   0.16628   0.00000  Uiso   1.00
C110   C     0.02357   0.49998   0.16705   0.00000  Uiso   1.00
C111   C     0.45671   0.54720   0.19156   0.00000  Uiso   1.00
C112   C     0.04329   0.45280   0.14177   0.00000  Uiso   1.00
C113   C     0.46911   0.40660   0.11607   0.00000  Uiso   1.00
C114   C     0.03089   0.59340   0.21726   0.00000  Uiso   1.00
Cu115  Cu    0.25501   0.50579   0.22813   0.00000  Uiso   1.00
Cu116  Cu    0.24500   0.49421   0.10521   0.00000  Uiso   1.00
H117   H     0.44910   0.36997   0.09642   0.00000  Uiso   1.00
H118   H     0.05090   0.63003   0.23691   0.00000  Uiso   1.00
N119   N     0.23745   0.48547   0.01284   0.00000  Uiso   1.00
N120   N     0.26256   0.51453   0.32049   0.00000  Uiso   1.00
O121   O     0.25326   0.42871   0.20659   0.00000  Uiso   1.00
O122   O     0.24675   0.57129   0.12674   0.00000  Uiso   1.00
O123   O     0.24480   0.41892   0.10279   0.00000  Uiso   1.00
O124   O     0.25520   0.58108   0.23055   0.00000  Uiso   1.00
O125   O     0.18936   0.50488   0.21857   0.00000  Uiso   1.00
O126   O     0.31065   0.49512   0.11476   0.00000  Uiso   1.00
O127   O     0.18090   0.49510   0.11477   0.00000  Uiso   1.00
O128   O     0.31910   0.50490   0.21857   0.00000  Uiso   1.00
F129   F     0.38885   0.58902   0.21520   0.00000  Uiso   1.00
F130   F     0.11115   0.41098   0.11814   0.00000  Uiso   1.00
Br131  Br    0.36309   0.38907   0.10479   0.00000  Uiso   1.00
Br132  Br    0.13691   0.61093   0.22855   0.00000  Uiso   1.00
Br133  Br    0.03659   0.33835   0.08309   0.00000  Uiso   1.00
Br134  Br    0.46341   0.66166   0.25025   0.00000  Uiso   1.00
Br135  Br    0.19461   0.64341   0.08031   0.00000  Uiso   1.00
Br136  Br    0.30539   0.35659   0.25303   0.00000  Uiso   1.00
Br137  Br    0.19298   0.43445   0.30106   0.00000  Uiso   1.00
Br138  Br    0.30702   0.56555   0.03227   0.00000  Uiso   1.00
C139   C     0.74790   0.40013   0.15155   0.00000  Uiso   1.00
C140   C     0.75210   0.59987   0.18178   0.00000  Uiso   1.00
C141   C     0.51540   0.40595   0.11678   0.00000  Uiso   1.00
C142   C     0.98460   0.59405   0.21655   0.00000  Uiso   1.00
C143   C     0.74036   0.34470   0.14524   0.00000  Uiso   1.00
C144   C     0.75964   0.65530   0.18809   0.00000  Uiso   1.00
C145   C     0.66473   0.50044   0.16721   0.00000  Uiso   1.00
C146   C     0.83527   0.49956   0.16613   0.00000  Uiso   1.00
C147   C     0.90984   0.54569   0.19102   0.00000  Uiso   1.00
C148   C     0.59016   0.45431   0.14231   0.00000  Uiso   1.00
C149   C     0.88332   0.49907   0.16501   0.00000  Uiso   1.00
C150   C     0.61668   0.50093   0.16832   0.00000  Uiso   1.00
C151   C     0.90218   0.45259   0.13916   0.00000  Uiso   1.00
C152   C     0.59783   0.54741   0.19417   0.00000  Uiso   1.00
C153   C     0.94906   0.45278   0.14019   0.00000  Uiso   1.00
C154   C     0.55094   0.54722   0.19315   0.00000  Uiso   1.00
C155   C     0.97643   0.50002   0.16628   0.00000  Uiso   1.00
C156   C     0.52357   0.49998   0.16705   0.00000  Uiso   1.00
C157   C     0.95671   0.54720   0.19156   0.00000  Uiso   1.00
C158   C     0.54329   0.45280   0.14177   0.00000  Uiso   1.00
C159   C     0.96911   0.40660   0.11607   0.00000  Uiso   1.00
C160   C     0.53089   0.59340   0.21726   0.00000  Uiso   1.00
Cu161  Cu    0.75501   0.50579   0.22813   0.00000  Uiso   1.00
Cu162  Cu    0.74500   0.49421   0.10521   0.00000  Uiso   1.00
H163   H     0.94910   0.36997   0.09642   0.00000  Uiso   1.00
H164   H     0.55090   0.63003   0.23691   0.00000  Uiso   1.00
N165   N     0.73745   0.48547   0.01284   0.00000  Uiso   1.00
N166   N     0.76256   0.51453   0.32049   0.00000  Uiso   1.00
O167   O     0.75326   0.42871   0.20659   0.00000  Uiso   1.00
O168   O     0.74675   0.57129   0.12674   0.00000  Uiso   1.00
O169   O     0.74480   0.41892   0.10279   0.00000  Uiso   1.00
O170   O     0.75520   0.58108   0.23055   0.00000  Uiso   1.00
O171   O     0.68936   0.50488   0.21857   0.00000  Uiso   1.00
O172   O     0.81065   0.49512   0.11476   0.00000  Uiso   1.00
O173   O     0.68090   0.49510   0.11477   0.00000  Uiso   1.00
O174   O     0.81910   0.50490   0.21857   0.00000  Uiso   1.00
F175   F     0.88885   0.58902   0.21520   0.00000  Uiso   1.00
F176   F     0.61115   0.41098   0.11814   0.00000  Uiso   1.00
Br177  Br    0.86309   0.38907   0.10479   0.00000  Uiso   1.00
Br178  Br    0.63691   0.61093   0.22855   0.00000  Uiso   1.00
Br179  Br    0.53659   0.33835   0.08309   0.00000  Uiso   1.00
Br180  Br    0.96341   0.66166   0.25025   0.00000  Uiso   1.00
Br181  Br    0.69461   0.64341   0.08031   0.00000  Uiso   1.00
Br182  Br    0.80539   0.35659   0.25303   0.00000  Uiso   1.00
Br183  Br    0.69298   0.43445   0.30106   0.00000  Uiso   1.00
Br184  Br    0.80702   0.56555   0.03227   0.00000  Uiso   1.00
C185   C     0.24790   0.73346   0.15155   0.00000  Uiso   1.00
C186   C     0.25210   0.93321   0.18178   0.00000  Uiso   1.00
C187   C     0.01540   0.73928   0.11678   0.00000  Uiso   1.00
C188   C     0.48460   0.92738   0.21655   0.00000  Uiso   1.00
C189   C     0.24036   0.67804   0.14524   0.00000  Uiso   1.00
C190   C     0.25964   0.98863   0.18809   0.00000  Uiso   1.00
C191   C     0.16473   0.83378   0.16721   0.00000  Uiso   1.00
C192   C     0.33527   0.83289   0.16613   0.00000  Uiso   1.00
C193   C     0.40984   0.87903   0.19102   0.00000  Uiso   1.00
C194   C     0.09016   0.78764   0.14231   0.00000  Uiso   1.00
C195   C     0.38332   0.83241   0.16501   0.00000  Uiso   1.00
C196   C     0.11668   0.83426   0.16832   0.00000  Uiso   1.00
C197   C     0.40218   0.78592   0.13916   0.00000  Uiso   1.00
C198   C     0.09783   0.88075   0.19417   0.00000  Uiso   1.00
C199   C     0.44906   0.78611   0.14019   0.00000  Uiso   1.00
C200   C     0.05094   0.88055   0.19315   0.00000  Uiso   1.00
C201   C     0.47643   0.83335   0.16628   0.00000  Uiso   1.00
C202   C     0.02357   0.83331   0.16705   0.00000  Uiso   1.00
C203   C     0.45671   0.88053   0.19156   0.00000  Uiso   1.00
C204   C     0.04329   0.78613   0.14177   0.00000  Uiso   1.00
C205   C     0.46911   0.73993   0.11607   0.00000  Uiso   1.00
C206   C     0.03089   0.92674   0.21726   0.00000  Uiso   1.00
Cu207  Cu    0.25501   0.83913   0.22813   0.00000  Uiso   1.00
Cu208  Cu    0.24500   0.82754   0.10521   0.00000  Uiso   1.00
H209   H     0.44910   0.70330   0.09642   0.00000  Uiso   1.00
H210   H     0.05090   0.96337   0.23691   0.00000  Uiso   1.00
N211   N     0.23745   0.81881   0.01284   0.00000  Uiso   1.00
N212   N     0.26256   0.84786   0.32049   0.00000  Uiso   1.00
O213   O     0.25326   0.76204   0.20659   0.00000  Uiso   1.00
O214   O     0.24675   0.90462   0.12674   0.00000  Uiso   1.00
O215   O     0.24480   0.75226   0.10279   0.00000  Uiso   1.00
O216   O     0.25520   0.91441   0.23055   0.00000  Uiso   1.00
O217   O     0.18936   0.83821   0.21857   0.00000  Uiso   1.00
O218   O     0.31065   0.82845   0.11476   0.00000  Uiso   1.00
O219   O     0.18090   0.82843   0.11477   0.00000  Uiso   1.00
O220   O     0.31910   0.83824   0.21857   0.00000  Uiso   1.00
F221   F     0.38885   0.92236   0.21520   0.00000  Uiso   1.00
F222   F     0.11115   0.74431   0.11814   0.00000  Uiso   1.00
Br223  Br    0.36309   0.72241   0.10479   0.00000  Uiso   1.00
Br224  Br    0.13691   0.94426   0.22855   0.00000  Uiso   1.00
Br225  Br    0.03659   0.67168   0.08309   0.00000  Uiso   1.00
Br226  Br    0.46341   0.99499   0.25025   0.00000  Uiso   1.00
Br227  Br    0.19461   0.97675   0.08031   0.00000  Uiso   1.00
Br228  Br    0.30539   0.68992   0.25303   0.00000  Uiso   1.00
Br229  Br    0.19298   0.76779   0.30106   0.00000  Uiso   1.00
Br230  Br    0.30702   0.89888   0.03227   0.00000  Uiso   1.00
C231   C     0.74790   0.73346   0.15155   0.00000  Uiso   1.00
C232   C     0.75210   0.93321   0.18178   0.00000  Uiso   1.00
C233   C     0.51540   0.73928   0.11678   0.00000  Uiso   1.00
C234   C     0.98460   0.92738   0.21655   0.00000  Uiso   1.00
C235   C     0.74036   0.67804   0.14524   0.00000  Uiso   1.00
C236   C     0.75964   0.98863   0.18809   0.00000  Uiso   1.00
C237   C     0.66473   0.83378   0.16721   0.00000  Uiso   1.00
C238   C     0.83527   0.83289   0.16613   0.00000  Uiso   1.00
C239   C     0.90984   0.87903   0.19102   0.00000  Uiso   1.00
C240   C     0.59016   0.78764   0.14231   0.00000  Uiso   1.00
C241   C     0.88332   0.83241   0.16501   0.00000  Uiso   1.00
C242   C     0.61668   0.83426   0.16832   0.00000  Uiso   1.00
C243   C     0.90218   0.78592   0.13916   0.00000  Uiso   1.00
C244   C     0.59783   0.88075   0.19417   0.00000  Uiso   1.00
C245   C     0.94906   0.78611   0.14019   0.00000  Uiso   1.00
C246   C     0.55094   0.88055   0.19315   0.00000  Uiso   1.00
C247   C     0.97643   0.83335   0.16628   0.00000  Uiso   1.00
C248   C     0.52357   0.83331   0.16705   0.00000  Uiso   1.00
C249   C     0.95671   0.88053   0.19156   0.00000  Uiso   1.00
C250   C     0.54329   0.78613   0.14177   0.00000  Uiso   1.00
C251   C     0.96911   0.73993   0.11607   0.00000  Uiso   1.00
C252   C     0.53089   0.92674   0.21726   0.00000  Uiso   1.00
Cu253  Cu    0.75501   0.83913   0.22813   0.00000  Uiso   1.00
Cu254  Cu    0.74500   0.82754   0.10521   0.00000  Uiso   1.00
H255   H     0.94910   0.70330   0.09642   0.00000  Uiso   1.00
H256   H     0.55090   0.96337   0.23691   0.00000  Uiso   1.00
N257   N     0.73745   0.81881   0.01284   0.00000  Uiso   1.00
N258   N     0.76256   0.84786   0.32049   0.00000  Uiso   1.00
O259   O     0.75326   0.76204   0.20659   0.00000  Uiso   1.00
O260   O     0.74675   0.90462   0.12674   0.00000  Uiso   1.00
O261   O     0.74480   0.75226   0.10279   0.00000  Uiso   1.00
O262   O     0.75520   0.91441   0.23055   0.00000  Uiso   1.00
O263   O     0.68936   0.83821   0.21857   0.00000  Uiso   1.00
O264   O     0.81065   0.82845   0.11476   0.00000  Uiso   1.00
O265   O     0.68090   0.82843   0.11477   0.00000  Uiso   1.00
O266   O     0.81910   0.83824   0.21857   0.00000  Uiso   1.00
F267   F     0.88885   0.92236   0.21520   0.00000  Uiso   1.00
F268   F     0.61115   0.74431   0.11814   0.00000  Uiso   1.00
Br269  Br    0.86309   0.72241   0.10479   0.00000  Uiso   1.00
Br270  Br    0.63691   0.94426   0.22855   0.00000  Uiso   1.00
Br271  Br    0.53659   0.67168   0.08309   0.00000  Uiso   1.00
Br272  Br    0.96341   0.99499   0.25025   0.00000  Uiso   1.00
Br273  Br    0.69461   0.97675   0.08031   0.00000  Uiso   1.00
Br274  Br    0.80539   0.68992   0.25303   0.00000  Uiso   1.00
Br275  Br    0.69298   0.76779   0.30106   0.00000  Uiso   1.00
Br276  Br    0.80702   0.89888   0.03227   0.00000  Uiso   1.00
C277   C     0.24790   0.06679   0.48489   0.00000  Uiso   1.00
C278   C     0.25210   0.26654   0.51511   0.00000  Uiso   1.00
C279   C     0.01540   0.07262   0.45011   0.00000  Uiso   1.00
C280   C     0.48460   0.26072   0.54989   0.00000  Uiso   1.00
C281   C     0.24036   0.01137   0.47857   0.00000  Uiso   1.00
C282   C     0.25964   0.32196   0.52143   0.00000  Uiso   1.00
C283   C     0.16473   0.16711   0.50054   0.00000  Uiso   1.00
C284   C     0.33527   0.16622   0.49946   0.00000  Uiso   1.00
C285   C     0.40984   0.21236   0.52435   0.00000  Uiso   1.00
C286   C     0.09016   0.12097   0.47565   0.00000  Uiso   1.00
C287   C     0.38332   0.16574   0.49834   0.00000  Uiso   1.00
C288   C     0.11668   0.16760   0.50166   0.00000  Uiso   1.00
C289   C     0.40218   0.11925   0.47250   0.00000  Uiso   1.00
C290   C     0.09783   0.21408   0.52751   0.00000  Uiso   1.00
C291   C     0.44906   0.11945   0.47352   0.00000  Uiso   1.00
C292   C     0.05094   0.21389   0.52648   0.00000  Uiso   1.00
C293   C     0.47643   0.16669   0.49961   0.00000  Uiso   1.00
C294   C     0.02357   0.16665   0.50039   0.00000  Uiso   1.00
C295   C     0.45671   0.21387   0.52489   0.00000  Uiso   1.00
C296   C     0.04329   0.11947   0.47511   0.00000  Uiso   1.00
C297   C     0.46911   0.07326   0.44941   0.00000  Uiso   1.00
C298   C     0.03089   0.26007   0.55059   0.00000  Uiso   1.00
Cu299  Cu    0.25501   0.17246   0.56146   0.00000  Uiso   1.00
Cu300  Cu    0.24500   0.16087   0.43854   0.00000  Uiso   1.00
H301   H     0.44910   0.03663   0.42975   0.00000  Uiso   1.00
H302   H     0.05090   0.29670   0.57025   0.00000  Uiso   1.00
N303   N     0.23745   0.15214   0.34617   0.00000  Uiso   1.00
N304   N     0.26256   0.18119   0.65383   0.00000  Uiso   1.00
O305   O     0.25326   0.09538   0.53992   0.00000  Uiso   1.00
O306   O     0.24675   0.23796   0.46008   0.00000  Uiso   1.00
O307   O     0.24480   0.08559   0.43612   0.00000  Uiso   1.00
O308   O     0.25520   0.24774   0.56388   0.00000  Uiso   1.00
O309   O     0.18936   0.17155   0.55191   0.00000  Uiso   1.00
O310   O     0.31065   0.16179   0.44809   0.00000  Uiso   1.00
O311   O     0.18090   0.16176   0.44810   0.00000  Uiso   1.00
O312   O     0.31910   0.17157   0.55190   0.00000  Uiso   1.00
F313   F     0.38885   0.25569   0.54853   0.00000  Uiso   1.00
F314   F     0.11115   0.07764   0.45147   0.00000  Uiso   1.00
Br315  Br    0.36309   0.05574   0.43812   0.00000  Uiso   1.00
Br316  Br    0.13691   0.27759   0.56188   0.00000  Uiso   1.00
Br317  Br    0.03659   0.00501   0.41642   0.00000  Uiso   1.00
Br318  Br    0.46341   0.32832   0.58358   0.00000  Uiso   1.00
Br319  Br    0.19461   0.31008   0.41364   0.00000  Uiso   1.00
Br320  Br    0.30539   0.02325   0.58636   0.00000  Uiso   1.00
Br321  Br    0.19298   0.10112   0.63440   0.00000  Uiso   1.00
Br322  Br    0.30702   0.23221   0.36560   0.00000  Uiso   1.00
C323   C     0.74790   0.06679   0.48489   0.00000  Uiso   1.00
C324   C     0.75210   0.26654   0.51511   0.00000  Uiso   1.00
C325   C     0.51540   0.07262   0.45011   0.00000  Uiso   1.00
C326   C     0.98460   0.26072   0.54989   0.00000  Uiso   1.00
C327   C     0.74036   0.01137   0.47857   0.00000  Uiso   1.00
C328   C     0.75964   0.32196   0.52143   0.00000  Uiso   1.00
C329   C     0.66473   0.16711   0.50054   0.00000  Uiso   1.00
C330   C     0.83527   0.16622   0.49946   0.00000  Uiso   1.00
C331   C     0.90984   0.21236   0.52435   0.00000  Uiso   1.00
C332   C     0.59016   0.12097   0.47565   0.00000  Uiso   1.00
C333   C     0.88332   0.16574   0.49834   0.00000  Uiso   1.00
C334   C     0.61668   0.16760   0.50166   0.00000  Uiso   1.00
C335   C     0.90218   0.11925   0.47250   0.00000  Uiso   1.00
C336   C     0.59783   0.21408   0.52751   0.00000  Uiso   1.00
C337   C     0.94906   0.11945   0.47352   0.00000  Uiso   1.00
C338   C     0.55094   0.21389   0.52648   0.00000  Uiso   1.00
C339   C     0.97643   0.16669   0.49961   0.00000  Uiso   1.00
C340   C     0.52357   0.16665   0.50039   0.00000  Uiso   1.00
C341   C     0.95671   0.21387   0.52489   0.00000  Uiso   1.00
C342   C     0.54329   0.11947   0.47511   0.00000  Uiso   1.00
C343   C     0.96911   0.07326   0.44941   0.00000  Uiso   1.00
C344   C     0.53089   0.26007   0.55059   0.00000  Uiso   1.00
Cu345  Cu    0.75501   0.17246   0.56146   0.00000  Uiso   1.00
Cu346  Cu    0.74500   0.16087   0.43854   0.00000  Uiso   1.00
H347   H     0.94910   0.03663   0.42975   0.00000  Uiso   1.00
H348   H     0.55090   0.29670   0.57025   0.00000  Uiso   1.00
N349   N     0.73745   0.15214   0.34617   0.00000  Uiso   1.00
N350   N     0.76256   0.18119   0.65383   0.00000  Uiso   1.00
O351   O     0.75326   0.09538   0.53992   0.00000  Uiso   1.00
O352   O     0.74675   0.23796   0.46008   0.00000  Uiso   1.00
O353   O     0.74480   0.08559   0.43612   0.00000  Uiso   1.00
O354   O     0.75520   0.24774   0.56388   0.00000  Uiso   1.00
O355   O     0.68936   0.17155   0.55191   0.00000  Uiso   1.00
O356   O     0.81065   0.16179   0.44809   0.00000  Uiso   1.00
O357   O     0.68090   0.16176   0.44810   0.00000  Uiso   1.00
O358   O     0.81910   0.17157   0.55190   0.00000  Uiso   1.00
F359   F     0.88885   0.25569   0.54853   0.00000  Uiso   1.00
F360   F     0.61115   0.07764   0.45147   0.00000  Uiso   1.00
Br361  Br    0.86309   0.05574   0.43812   0.00000  Uiso   1.00
Br362  Br    0.63691   0.27759   0.56188   0.00000  Uiso   1.00
Br363  Br    0.53659   0.00501   0.41642   0.00000  Uiso   1.00
Br364  Br    0.96341   0.32832   0.58358   0.00000  Uiso   1.00
Br365  Br    0.69461   0.31008   0.41364   0.00000  Uiso   1.00
Br366  Br    0.80539   0.02325   0.58636   0.00000  Uiso   1.00
Br367  Br    0.69298   0.10112   0.63440   0.00000  Uiso   1.00
Br368  Br    0.80702   0.23221   0.36560   0.00000  Uiso   1.00
C369   C     0.24790   0.40013   0.48489   0.00000  Uiso   1.00
C370   C     0.25210   0.59987   0.51511   0.00000  Uiso   1.00
C371   C     0.01540   0.40595   0.45011   0.00000  Uiso   1.00
C372   C     0.48460   0.59405   0.54989   0.00000  Uiso   1.00
C373   C     0.24036   0.34470   0.47857   0.00000  Uiso   1.00
C374   C     0.25964   0.65530   0.52143   0.00000  Uiso   1.00
C375   C     0.16473   0.50044   0.50054   0.00000  Uiso   1.00
C376   C     0.33527   0.49956   0.49946   0.00000  Uiso   1.00
C377   C     0.40984   0.54569   0.52435   0.00000  Uiso   1.00
C378   C     0.09016   0.45431   0.47565   0.00000  Uiso   1.00
C379   C     0.38332   0.49907   0.49834   0.00000  Uiso   1.00
C380   C     0.11668   0.50093   0.50166   0.00000  Uiso   1.00
C381   C     0.40218   0.45259   0.47250   0.00000  Uiso   1.00
C382   C     0.09783   0.54741   0.52751   0.00000  Uiso   1.00
C383   C     0.44906   0.45278   0.47352   0.00000  Uiso   1.00
C384   C     0.05094   0.54722   0.52648   0.00000  Uiso   1.00
C385   C     0.47643   0.50002   0.49961   0.00000  Uiso   1.00
C386   C     0.02357   0.49998   0.50039   0.00000  Uiso   1.00
C387   C     0.45671   0.54720   0.52489   0.00000  Uiso   1.00
C388   C     0.04329   0.45280   0.47511   0.00000  Uiso   1.00
C389   C     0.46911   0.40660   0.44941   0.00000  Uiso   1.00
C390   C     0.03089   0.59340   0.55059   0.00000  Uiso   1.00
Cu391  Cu    0.25501   0.50579   0.56146   0.00000  Uiso   1.00
Cu392  Cu    0.24500   0.49421   0.43854   0.00000  Uiso   1.00
H393   H     0.44910   0.36997   0.42975   0.00000  Uiso   1.00
H394   H     0.05090   0.63003   0.57025   0.00000  Uiso   1.00
N395   N     0.23745   0.48547   0.34617   0.00000  Uiso   1.00
N396   N     0.26256   0.51453   0.65383   0.00000  Uiso   1.00
O397   O     0.25326   0.42871   0.53992   0.00000  Uiso   1.00
O398   O     0.24675   0.57129   0.46008   0.00000  Uiso   1.00
O399   O     0.24480   0.41892   0.43612   0.00000  Uiso   1.00
O400   O     0.25520   0.58108   0.56388   0.00000  Uiso   1.00
O401   O     0.18936   0.50488   0.55191   0.00000  Uiso   1.00
O402   O     0.31065   0.49512   0.44809   0.00000  Uiso   1.00
O403   O     0.18090   0.49510   0.44810   0.00000  Uiso   1.00
O404   O     0.31910   0.50490   0.55190   0.00000  Uiso   1.00
F405   F     0.38885   0.58902   0.54853   0.00000  Uiso   1.00
F406   F     0.11115   0.41098   0.45147   0.00000  Uiso   1.00
Br407  Br    0.36309   0.38907   0.43812   0.00000  Uiso   1.00
Br408  Br    0.13691   0.61093   0.56188   0.00000  Uiso   1.00
Br409  Br    0.03659   0.33835   0.41642   0.00000  Uiso   1.00
Br410  Br    0.46341   0.66166   0.58358   0.00000  Uiso   1.00
Br411  Br    0.19461   0.64341   0.41364   0.00000  Uiso   1.00
Br412  Br    0.30539   0.35659   0.58636   0.00000  Uiso   1.00
Br413  Br    0.19298   0.43445   0.63440   0.00000  Uiso   1.00
Br414  Br    0.30702   0.56555   0.36560   0.00000  Uiso   1.00
C415   C     0.74790   0.40013   0.48489   0.00000  Uiso   1.00
C416   C     0.75210   0.59987   0.51511   0.00000  Uiso   1.00
C417   C     0.51540   0.40595   0.45011   0.00000  Uiso   1.00
C418   C     0.98460   0.59405   0.54989   0.00000  Uiso   1.00
C419   C     0.74036   0.34470   0.47857   0.00000  Uiso   1.00
C420   C     0.75964   0.65530   0.52143   0.00000  Uiso   1.00
C421   C     0.66473   0.50044   0.50054   0.00000  Uiso   1.00
C422   C     0.83527   0.49956   0.49946   0.00000  Uiso   1.00
C423   C     0.90984   0.54569   0.52435   0.00000  Uiso   1.00
C424   C     0.59016   0.45431   0.47565   0.00000  Uiso   1.00
C425   C     0.88332   0.49907   0.49834   0.00000  Uiso   1.00
C426   C     0.61668   0.50093   0.50166   0.00000  Uiso   1.00
C427   C     0.90218   0.45259   0.47250   0.00000  Uiso   1.00
C428   C     0.59783   0.54741   0.52751   0.00000  Uiso   1.00
C429   C     0.94906   0.45278   0.47352   0.00000  Uiso   1.00
C430   C     0.55094   0.54722   0.52648   0.00000  Uiso   1.00
C431   C     0.97643   0.50002   0.49961   0.00000  Uiso   1.00
C432   C     0.52357   0.49998   0.50039   0.00000  Uiso   1.00
C433   C     0.95671   0.54720   0.52489   0.00000  Uiso   1.00
C434   C     0.54329   0.45280   0.47511   0.00000  Uiso   1.00
C435   C     0.96911   0.40660   0.44941   0.00000  Uiso   1.00
C436   C     0.53089   0.59340   0.55059   0.00000  Uiso   1.00
Cu437  Cu    0.75501   0.50579   0.56146   0.00000  Uiso   1.00
Cu438  Cu    0.74500   0.49421   0.43854   0.00000  Uiso   1.00
H439   H     0.94910   0.36997   0.42975   0.00000  Uiso   1.00
H440   H     0.55090   0.63003   0.57025   0.00000  Uiso   1.00
N441   N     0.73745   0.48547   0.34617   0.00000  Uiso   1.00
N442   N     0.76256   0.51453   0.65383   0.00000  Uiso   1.00
O443   O     0.75326   0.42871   0.53992   0.00000  Uiso   1.00
O444   O     0.74675   0.57129   0.46008   0.00000  Uiso   1.00
O445   O     0.74480   0.41892   0.43612   0.00000  Uiso   1.00
O446   O     0.75520   0.58108   0.56388   0.00000  Uiso   1.00
O447   O     0.68936   0.50488   0.55191   0.00000  Uiso   1.00
O448   O     0.81065   0.49512   0.44809   0.00000  Uiso   1.00
O449   O     0.68090   0.49510   0.44810   0.00000  Uiso   1.00
O450   O     0.81910   0.50490   0.55190   0.00000  Uiso   1.00
F451   F     0.88885   0.58902   0.54853   0.00000  Uiso   1.00
F452   F     0.61115   0.41098   0.45147   0.00000  Uiso   1.00
Br453  Br    0.86309   0.38907   0.43812   0.00000  Uiso   1.00
Br454  Br    0.63691   0.61093   0.56188   0.00000  Uiso   1.00
Br455  Br    0.53659   0.33835   0.41642   0.00000  Uiso   1.00
Br456  Br    0.96341   0.66166   0.58358   0.00000  Uiso   1.00
Br457  Br    0.69461   0.64341   0.41364   0.00000  Uiso   1.00
Br458  Br    0.80539   0.35659   0.58636   0.00000  Uiso   1.00
Br459  Br    0.69298   0.43445   0.63440   0.00000  Uiso   1.00
Br460  Br    0.80702   0.56555   0.36560   0.00000  Uiso   1.00
C461   C     0.24790   0.73346   0.48489   0.00000  Uiso   1.00
C462   C     0.25210   0.93321   0.51511   0.00000  Uiso   1.00
C463   C     0.01540   0.73928   0.45011   0.00000  Uiso   1.00
C464   C     0.48460   0.92738   0.54989   0.00000  Uiso   1.00
C465   C     0.24036   0.67804   0.47857   0.00000  Uiso   1.00
C466   C     0.25964   0.98863   0.52143   0.00000  Uiso   1.00
C467   C     0.16473   0.83378   0.50054   0.00000  Uiso   1.00
C468   C     0.33527   0.83289   0.49946   0.00000  Uiso   1.00
C469   C     0.40984   0.87903   0.52435   0.00000  Uiso   1.00
C470   C     0.09016   0.78764   0.47565   0.00000  Uiso   1.00
C471   C     0.38332   0.83241   0.49834   0.00000  Uiso   1.00
C472   C     0.11668   0.83426   0.50166   0.00000  Uiso   1.00
C473   C     0.40218   0.78592   0.47250   0.00000  Uiso   1.00
C474   C     0.09783   0.88075   0.52751   0.00000  Uiso   1.00
C475   C     0.44906   0.78611   0.47352   0.00000  Uiso   1.00
C476   C     0.05094   0.88055   0.52648   0.00000  Uiso   1.00
C477   C     0.47643   0.83335   0.49961   0.00000  Uiso   1.00
C478   C     0.02357   0.83331   0.50039   0.00000  Uiso   1.00
C479   C     0.45671   0.88053   0.52489   0.00000  Uiso   1.00
C480   C     0.04329   0.78613   0.47511   0.00000  Uiso   1.00
C481   C     0.46911   0.73993   0.44941   0.00000  Uiso   1.00
C482   C     0.03089   0.92674   0.55059   0.00000  Uiso   1.00
Cu483  Cu    0.25501   0.83913   0.56146   0.00000  Uiso   1.00
Cu484  Cu    0.24500   0.82754   0.43854   0.00000  Uiso   1.00
H485   H     0.44910   0.70330   0.42975   0.00000  Uiso   1.00
H486   H     0.05090   0.96337   0.57025   0.00000  Uiso   1.00
N487   N     0.23745   0.81881   0.34617   0.00000  Uiso   1.00
N488   N     0.26256   0.84786   0.65383   0.00000  Uiso   1.00
O489   O     0.25326   0.76204   0.53992   0.00000  Uiso   1.00
O490   O     0.24675   0.90462   0.46008   0.00000  Uiso   1.00
O491   O     0.24480   0.75226   0.43612   0.00000  Uiso   1.00
O492   O     0.25520   0.91441   0.56388   0.00000  Uiso   1.00
O493   O     0.18936   0.83821   0.55191   0.00000  Uiso   1.00
O494   O     0.31065   0.82845   0.44809   0.00000  Uiso   1.00
O495   O     0.18090   0.82843   0.44810   0.00000  Uiso   1.00
O496   O     0.31910   0.83824   0.55190   0.00000  Uiso   1.00
F497   F     0.38885   0.92236   0.54853   0.00000  Uiso   1.00
F498   F     0.11115   0.74431   0.45147   0.00000  Uiso   1.00
Br499  Br    0.36309   0.72241   0.43812   0.00000  Uiso   1.00
Br500  Br    0.13691   0.94426   0.56188   0.00000  Uiso   1.00
Br501  Br    0.03659   0.67168   0.41642   0.00000  Uiso   1.00
Br502  Br    0.46341   0.99499   0.58358   0.00000  Uiso   1.00
Br503  Br    0.19461   0.97675   0.41364   0.00000  Uiso   1.00
Br504  Br    0.30539   0.68992   0.58636   0.00000  Uiso   1.00
Br505  Br    0.19298   0.76779   0.63440   0.00000  Uiso   1.00
Br506  Br    0.30702   0.89888   0.36560   0.00000  Uiso   1.00
C507   C     0.74790   0.73346   0.48489   0.00000  Uiso   1.00
C508   C     0.75210   0.93321   0.51511   0.00000  Uiso   1.00
C509   C     0.51540   0.73928   0.45011   0.00000  Uiso   1.00
C510   C     0.98460   0.92738   0.54989   0.00000  Uiso   1.00
C511   C     0.74036   0.67804   0.47857   0.00000  Uiso   1.00
C512   C     0.75964   0.98863   0.52143   0.00000  Uiso   1.00
C513   C     0.66473   0.83378   0.50054   0.00000  Uiso   1.00
C514   C     0.83527   0.83289   0.49946   0.00000  Uiso   1.00
C515   C     0.90984   0.87903   0.52435   0.00000  Uiso   1.00
C516   C     0.59016   0.78764   0.47565   0.00000  Uiso   1.00
C517   C     0.88332   0.83241   0.49834   0.00000  Uiso   1.00
C518   C     0.61668   0.83426   0.50166   0.00000  Uiso   1.00
C519   C     0.90218   0.78592   0.47250   0.00000  Uiso   1.00
C520   C     0.59783   0.88075   0.52751   0.00000  Uiso   1.00
C521   C     0.94906   0.78611   0.47352   0.00000  Uiso   1.00
C522   C     0.55094   0.88055   0.52648   0.00000  Uiso   1.00
C523   C     0.97643   0.83335   0.49961   0.00000  Uiso   1.00
C524   C     0.52357   0.83331   0.50039   0.00000  Uiso   1.00
C525   C     0.95671   0.88053   0.52489   0.00000  Uiso   1.00
C526   C     0.54329   0.78613   0.47511   0.00000  Uiso   1.00
C527   C     0.96911   0.73993   0.44941   0.00000  Uiso   1.00
C528   C     0.53089   0.92674   0.55059   0.00000  Uiso   1.00
Cu529  Cu    0.75501   0.83913   0.56146   0.00000  Uiso   1.00
Cu530  Cu    0.74500   0.82754   0.43854   0.00000  Uiso   1.00
H531   H     0.94910   0.70330   0.42975   0.00000  Uiso   1.00
H532   H     0.55090   0.96337   0.57025   0.00000  Uiso   1.00
N533   N     0.73745   0.81881   0.34617   0.00000  Uiso   1.00
N534   N     0.76256   0.84786   0.65383   0.00000  Uiso   1.00
O535   O     0.75326   0.76204   0.53992   0.00000  Uiso   1.00
O536   O     0.74675   0.90462   0.46008   0.00000  Uiso   1.00
O537   O     0.74480   0.75226   0.43612   0.00000  Uiso   1.00
O538   O     0.75520   0.91441   0.56388   0.00000  Uiso   1.00
O539   O     0.68936   0.83821   0.55191   0.00000  Uiso   1.00
O540   O     0.81065   0.82845   0.44809   0.00000  Uiso   1.00
O541   O     0.68090   0.82843   0.44810   0.00000  Uiso   1.00
O542   O     0.81910   0.83824   0.55190   0.00000  Uiso   1.00
F543   F     0.88885   0.92236   0.54853   0.00000  Uiso   1.00
F544   F     0.61115   0.74431   0.45147   0.00000  Uiso   1.00
Br545  Br    0.86309   0.72241   0.43812   0.00000  Uiso   1.00
Br546  Br    0.63691   0.94426   0.56188   0.00000  Uiso   1.00
Br547  Br    0.53659   0.67168   0.41642   0.00000  Uiso   1.00
Br548  Br    0.96341   0.99499   0.58358   0.00000  Uiso   1.00
Br549  Br    0.69461   0.97675   0.41364   0.00000  Uiso   1.00
Br550  Br    0.80539   0.68992   0.58636   0.00000  Uiso   1.00
Br551  Br    0.69298   0.76779   0.63440   0.00000  Uiso   1.00
Br552  Br    0.80702   0.89888   0.36560   0.00000  Uiso   1.00
C553   C     0.24790   0.06679   0.81822   0.00000  Uiso   1.00
C554   C     0.25210   0.26654   0.84845   0.00000  Uiso   1.00
C555   C     0.01540   0.07262   0.78345   0.00000  Uiso   1.00
C556   C     0.48460   0.26072   0.88322   0.00000  Uiso   1.00
C557   C     0.24036   0.01137   0.81191   0.00000  Uiso   1.00
C558   C     0.25964   0.32196   0.85476   0.00000  Uiso   1.00
C559   C     0.16473   0.16711   0.83387   0.00000  Uiso   1.00
C560   C     0.33527   0.16622   0.83279   0.00000  Uiso   1.00
C561   C     0.40984   0.21236   0.85769   0.00000  Uiso   1.00
C562   C     0.09016   0.12097   0.80898   0.00000  Uiso   1.00
C563   C     0.38332   0.16574   0.83168   0.00000  Uiso   1.00
C564   C     0.11668   0.16760   0.83499   0.00000  Uiso   1.00
C565   C     0.40218   0.11925   0.80583   0.00000  Uiso   1.00
C566   C     0.09783   0.21408   0.86084   0.00000  Uiso   1.00
C567   C     0.44906   0.11945   0.80685   0.00000  Uiso   1.00
C568   C     0.05094   0.21389   0.85981   0.00000  Uiso   1.00
C569   C     0.47643   0.16669   0.83295   0.00000  Uiso   1.00
C570   C     0.02357   0.16665   0.83372   0.00000  Uiso   1.00
C571   C     0.45671   0.21387   0.85823   0.00000  Uiso   1.00
C572   C     0.04329   0.11947   0.80844   0.00000  Uiso   1.00
C573   C     0.46911   0.07326   0.78274   0.00000  Uiso   1.00
C574   C     0.03089   0.26007   0.88393   0.00000  Uiso   1.00
Cu575  Cu    0.25501   0.17246   0.89479   0.00000  Uiso   1.00
Cu576  Cu    0.24500   0.16087   0.77187   0.00000  Uiso   1.00
H577   H     0.44910   0.03663   0.76309   0.00000  Uiso   1.00
H578   H     0.05090   0.29670   0.90358   0.00000  Uiso   1.00
N579   N     0.23745   0.15214   0.67951   0.00000  Uiso   1.00
N580   N     0.26256   0.18119   0.98716   0.00000  Uiso   1.00
O581   O     0.25326   0.09538   0.87326   0.00000  Uiso   1.00
O582   O     0.24675   0.23796   0.79341   0.00000  Uiso   1.00
O583   O     0.24480   0.08559   0.76945   0.00000  Uiso   1.00
O584   O     0.25520   0.24774   0.89721   0.00000  Uiso   1.00
O585   O     0.18936   0.17155   0.88524   0.00000  Uiso   1.00
O586   O     0.31065   0.16179   0.78143   0.00000  Uiso   1.00
O587   O     0.18090   0.16176   0.78143   0.00000  Uiso   1.00
O588   O     0.31910   0.17157   0.88523   0.00000  Uiso   1.00
F589   F     0.38885   0.25569   0.88186   0.00000  Uiso   1.00
F590   F     0.11115   0.07764   0.78480   0.00000  Uiso   1.00
Br591  Br    0.36309   0.05574   0.77145   0.00000  Uiso   1.00
Br592  Br    0.13691   0.27759   0.89521   0.00000  Uiso   1.00
Br593  Br    0.03659   0.00501   0.74975   0.00000  Uiso   1.00
Br594  Br    0.46341   0.32832   0.91691   0.00000  Uiso   1.00
Br595  Br    0.19461   0.31008   0.74697   0.00000  Uiso   1.00
Br596  Br    0.30539   0.02325   0.91969   0.00000  Uiso   1.00
Br597  Br    0.19298   0.10112   0.96773   0.00000  Uiso   1.00
Br598  Br    0.30702   0.23221   0.69894   0.00000  Uiso   1.00
C599   C     0.74790   0.06679   0.81822   0.00000  Uiso   1.00
C600   C     0.75210   0.26654   0.84845   0.00000  Uiso   1.00
C601   C     0.51540   0.07262   0.78345   0.00000  Uiso   1.00
C602   C     0.98460   0.26072   0.88322   0.00000  Uiso   1.00
C603   C     0.74036   0.01137   0.81191   0.00000  Uiso   1.00
C604   C     0.75964   0.32196   0.85476   0.00000  Uiso   1.00
C605   C     0.66473   0.16711   0.83387   0.00000  Uiso   1.00
C606   C     0.83527   0.16622   0.83279   0.00000  Uiso   1.00
C607   C     0.90984   0.21236   0.85769   0.00000  Uiso   1.00
C608   C     0.59016   0.12097   0.80898   0.00000  Uiso   1.00
C609   C     0.88332   0.16574   0.83168   0.00000  Uiso   1.00
C610   C     0.61668   0.16760   0.83499   0.00000  Uiso   1.00
C611   C     0.90218   0.11925   0.80583   0.00000  Uiso   1.00
C612   C     0.59783   0.21408   0.86084   0.00000  Uiso   1.00
C613   C     0.94906   0.11945   0.80685   0.00000  Uiso   1.00
C614   C     0.55094   0.21389   0.85981   0.00000  Uiso   1.00
C615   C     0.97643   0.16669   0.83295   0.00000  Uiso   1.00
C616   C     0.52357   0.16665   0.83372   0.00000  Uiso   1.00
C617   C     0.95671   0.21387   0.85823   0.00000  Uiso   1.00
C618   C     0.54329   0.11947   0.80844   0.00000  Uiso   1.00
C619   C     0.96911   0.07326   0.78274   0.00000  Uiso   1.00
C620   C     0.53089   0.26007   0.88393   0.00000  Uiso   1.00
Cu621  Cu    0.75501   0.17246   0.89479   0.00000  Uiso   1.00
Cu622  Cu    0.74500   0.16087   0.77187   0.00000  Uiso   1.00
H623   H     0.94910   0.03663   0.76309   0.00000  Uiso   1.00
H624   H     0.55090   0.29670   0.90358   0.00000  Uiso   1.00
N625   N     0.73745   0.15214   0.67951   0.00000  Uiso   1.00
N626   N     0.76256   0.18119   0.98716   0.00000  Uiso   1.00
O627   O     0.75326   0.09538   0.87326   0.00000  Uiso   1.00
O628   O     0.74675   0.23796   0.79341   0.00000  Uiso   1.00
O629   O     0.74480   0.08559   0.76945   0.00000  Uiso   1.00
O630   O     0.75520   0.24774   0.89721   0.00000  Uiso   1.00
O631   O     0.68936   0.17155   0.88524   0.00000  Uiso   1.00
O632   O     0.81065   0.16179   0.78143   0.00000  Uiso   1.00
O633   O     0.68090   0.16176   0.78143   0.00000  Uiso   1.00
O634   O     0.81910   0.17157   0.88523   0.00000  Uiso   1.00
F635   F     0.88885   0.25569   0.88186   0.00000  Uiso   1.00
F636   F     0.61115   0.07764   0.78480   0.00000  Uiso   1.00
Br637  Br    0.86309   0.05574   0.77145   0.00000  Uiso   1.00
Br638  Br    0.63691   0.27759   0.89521   0.00000  Uiso   1.00
Br639  Br    0.53659   0.00501   0.74975   0.00000  Uiso   1.00
Br640  Br    0.96341   0.32832   0.91691   0.00000  Uiso   1.00
Br641  Br    0.69461   0.31008   0.74697   0.00000  Uiso   1.00
Br642  Br    0.80539   0.02325   0.91969   0.00000  Uiso   1.00
Br643  Br    0.69298   0.10112   0.96773   0.00000  Uiso   1.00
Br644  Br    0.80702   0.23221   0.69894   0.00000  Uiso   1.00
C645   C     0.24790   0.40013   0.81822   0.00000  Uiso   1.00
C646   C     0.25210   0.59987   0.84845   0.00000  Uiso   1.00
C647   C     0.01540   0.40595   0.78345   0.00000  Uiso   1.00
C648   C     0.48460   0.59405   0.88322   0.00000  Uiso   1.00
C649   C     0.24036   0.34470   0.81191   0.00000  Uiso   1.00
C650   C     0.25964   0.65530   0.85476   0.00000  Uiso   1.00
C651   C     0.16473   0.50044   0.83387   0.00000  Uiso   1.00
C652   C     0.33527   0.49956   0.83279   0.00000  Uiso   1.00
C653   C     0.40984   0.54569   0.85769   0.00000  Uiso   1.00
C654   C     0.09016   0.45431   0.80898   0.00000  Uiso   1.00
C655   C     0.38332   0.49907   0.83168   0.00000  Uiso   1.00
C656   C     0.11668   0.50093   0.83499   0.00000  Uiso   1.00
C657   C     0.40218   0.45259   0.80583   0.00000  Uiso   1.00
C658   C     0.09783   0.54741   0.86084   0.00000  Uiso   1.00
C659   C     0.44906   0.45278   0.80685   0.00000  Uiso   1.00
C660   C     0.05094   0.54722   0.85981   0.00000  Uiso   1.00
C661   C     0.47643   0.50002   0.83295   0.00000  Uiso   1.00
C662   C     0.02357   0.49998   0.83372   0.00000  Uiso   1.00
C663   C     0.45671   0.54720   0.85823   0.00000  Uiso   1.00
C664   C     0.04329   0.45280   0.80844   0.00000  Uiso   1.00
C665   C     0.46911   0.40660   0.78274   0.00000  Uiso   1.00
C666   C     0.03089   0.59340   0.88393   0.00000  Uiso   1.00
Cu667  Cu    0.25501   0.50579   0.89479   0.00000  Uiso   1.00
Cu668  Cu    0.24500   0.49421   0.77187   0.00000  Uiso   1.00
H669   H     0.44910   0.36997   0.76309   0.00000  Uiso   1.00
H670   H     0.05090   0.63003   0.90358   0.00000  Uiso   1.00
N671   N     0.23745   0.48547   0.67951   0.00000  Uiso   1.00
N672   N     0.26256   0.51453   0.98716   0.00000  Uiso   1.00
O673   O     0.25326   0.42871   0.87326   0.00000  Uiso   1.00
O674   O     0.24675   0.57129   0.79341   0.00000  Uiso   1.00
O675   O     0.24480   0.41892   0.76945   0.00000  Uiso   1.00
O676   O     0.25520   0.58108   0.89721   0.00000  Uiso   1.00
O677   O     0.18936   0.50488   0.88524   0.00000  Uiso   1.00
O678   O     0.31065   0.49512   0.78143   0.00000  Uiso   1.00
O679   O     0.18090   0.49510   0.78143   0.00000  Uiso   1.00
O680   O     0.31910   0.50490   0.88523   0.00000  Uiso   1.00
F681   F     0.38885   0.58902   0.88186   0.00000  Uiso   1.00
F682   F     0.11115   0.41098   0.78480   0.00000  Uiso   1.00
Br683  Br    0.36309   0.38907   0.77145   0.00000  Uiso   1.00
Br684  Br    0.13691   0.61093   0.89521   0.00000  Uiso   1.00
Br685  Br    0.03659   0.33835   0.74975   0.00000  Uiso   1.00
Br686  Br    0.46341   0.66166   0.91691   0.00000  Uiso   1.00
Br687  Br    0.19461   0.64341   0.74697   0.00000  Uiso   1.00
Br688  Br    0.30539   0.35659   0.91969   0.00000  Uiso   1.00
Br689  Br    0.19298   0.43445   0.96773   0.00000  Uiso   1.00
Br690  Br    0.30702   0.56555   0.69894   0.00000  Uiso   1.00
C691   C     0.74790   0.40013   0.81822   0.00000  Uiso   1.00
C692   C     0.75210   0.59987   0.84845   0.00000  Uiso   1.00
C693   C     0.51540   0.40595   0.78345   0.00000  Uiso   1.00
C694   C     0.98460   0.59405   0.88322   0.00000  Uiso   1.00
C695   C     0.74036   0.34470   0.81191   0.00000  Uiso   1.00
C696   C     0.75964   0.65530   0.85476   0.00000  Uiso   1.00
C697   C     0.66473   0.50044   0.83387   0.00000  Uiso   1.00
C698   C     0.83527   0.49956   0.83279   0.00000  Uiso   1.00
C699   C     0.90984   0.54569   0.85769   0.00000  Uiso   1.00
C700   C     0.59016   0.45431   0.80898   0.00000  Uiso   1.00
C701   C     0.88332   0.49907   0.83168   0.00000  Uiso   1.00
C702   C     0.61668   0.50093   0.83499   0.00000  Uiso   1.00
C703   C     0.90218   0.45259   0.80583   0.00000  Uiso   1.00
C704   C     0.59783   0.54741   0.86084   0.00000  Uiso   1.00
C705   C     0.94906   0.45278   0.80685   0.00000  Uiso   1.00
C706   C     0.55094   0.54722   0.85981   0.00000  Uiso   1.00
C707   C     0.97643   0.50002   0.83295   0.00000  Uiso   1.00
C708   C     0.52357   0.49998   0.83372   0.00000  Uiso   1.00
C709   C     0.95671   0.54720   0.85823   0.00000  Uiso   1.00
C710   C     0.54329   0.45280   0.80844   0.00000  Uiso   1.00
C711   C     0.96911   0.40660   0.78274   0.00000  Uiso   1.00
C712   C     0.53089   0.59340   0.88393   0.00000  Uiso   1.00
Cu713  Cu    0.75501   0.50579   0.89479   0.00000  Uiso   1.00
Cu714  Cu    0.74500   0.49421   0.77187   0.00000  Uiso   1.00
H715   H     0.94910   0.36997   0.76309   0.00000  Uiso   1.00
H716   H     0.55090   0.63003   0.90358   0.00000  Uiso   1.00
N717   N     0.73745   0.48547   0.67951   0.00000  Uiso   1.00
N718   N     0.76256   0.51453   0.98716   0.00000  Uiso   1.00
O719   O     0.75326   0.42871   0.87326   0.00000  Uiso   1.00
O720   O     0.74675   0.57129   0.79341   0.00000  Uiso   1.00
O721   O     0.74480   0.41892   0.76945   0.00000  Uiso   1.00
O722   O     0.75520   0.58108   0.89721   0.00000  Uiso   1.00
O723   O     0.68936   0.50488   0.88524   0.00000  Uiso   1.00
O724   O     0.81065   0.49512   0.78143   0.00000  Uiso   1.00
O725   O     0.68090   0.49510   0.78143   0.00000  Uiso   1.00
O726   O     0.81910   0.50490   0.88523   0.00000  Uiso   1.00
F727   F     0.88885   0.58902   0.88186   0.00000  Uiso   1.00
F728   F     0.61115   0.41098   0.78480   0.00000  Uiso   1.00
Br729  Br    0.86309   0.38907   0.77145   0.00000  Uiso   1.00
Br730  Br    0.63691   0.61093   0.89521   0.00000  Uiso   1.00
Br731  Br    0.53659   0.33835   0.74975   0.00000  Uiso   1.00
Br732  Br    0.96341   0.66166   0.91691   0.00000  Uiso   1.00
Br733  Br    0.69461   0.64341   0.74697   0.00000  Uiso   1.00
Br734  Br    0.80539   0.35659   0.91969   0.00000  Uiso   1.00
Br735  Br    0.69298   0.43445   0.96773   0.00000  Uiso   1.00
Br736  Br    0.80702   0.56555   0.69894   0.00000  Uiso   1.00
C737   C     0.24790   0.73346   0.81822   0.00000  Uiso   1.00
C738   C     0.25210   0.93321   0.84845   0.00000  Uiso   1.00
C739   C     0.01540   0.73928   0.78345   0.00000  Uiso   1.00
C740   C     0.48460   0.92738   0.88322   0.00000  Uiso   1.00
C741   C     0.24036   0.67804   0.81191   0.00000  Uiso   1.00
C742   C     0.25964   0.98863   0.85476   0.00000  Uiso   1.00
C743   C     0.16473   0.83378   0.83387   0.00000  Uiso   1.00
C744   C     0.33527   0.83289   0.83279   0.00000  Uiso   1.00
C745   C     0.40984   0.87903   0.85769   0.00000  Uiso   1.00
C746   C     0.09016   0.78764   0.80898   0.00000  Uiso   1.00
C747   C     0.38332   0.83241   0.83168   0.00000  Uiso   1.00
C748   C     0.11668   0.83426   0.83499   0.00000  Uiso   1.00
C749   C     0.40218   0.78592   0.80583   0.00000  Uiso   1.00
C750   C     0.09783   0.88075   0.86084   0.00000  Uiso   1.00
C751   C     0.44906   0.78611   0.80685   0.00000  Uiso   1.00
C752   C     0.05094   0.88055   0.85981   0.00000  Uiso   1.00
C753   C     0.47643   0.83335   0.83295   0.00000  Uiso   1.00
C754   C     0.02357   0.83331   0.83372   0.00000  Uiso   1.00
C755   C     0.45671   0.88053   0.85823   0.00000  Uiso   1.00
C756   C     0.04329   0.78613   0.80844   0.00000  Uiso   1.00
C757   C     0.46911   0.73993   0.78274   0.00000  Uiso   1.00
C758   C     0.03089   0.92674   0.88393   0.00000  Uiso   1.00
Cu759  Cu    0.25501   0.83913   0.89479   0.00000  Uiso   1.00
Cu760  Cu    0.24500   0.82754   0.77187   0.00000  Uiso   1.00
H761   H     0.44910   0.70330   0.76309   0.00000  Uiso   1.00
H762   H     0.05090   0.96337   0.90358   0.00000  Uiso   1.00
N763   N     0.23745   0.81881   0.67951   0.00000  Uiso   1.00
N764   N     0.26256   0.84786   0.98716   0.00000  Uiso   1.00
O765   O     0.25326   0.76204   0.87326   0.00000  Uiso   1.00
O766   O     0.24675   0.90462   0.79341   0.00000  Uiso   1.00
O767   O     0.24480   0.75226   0.76945   0.00000  Uiso   1.00
O768   O     0.25520   0.91441   0.89721   0.00000  Uiso   1.00
O769   O     0.18936   0.83821   0.88524   0.00000  Uiso   1.00
O770   O     0.31065   0.82845   0.78143   0.00000  Uiso   1.00
O771   O     0.18090   0.82843   0.78143   0.00000  Uiso   1.00
O772   O     0.31910   0.83824   0.88523   0.00000  Uiso   1.00
F773   F     0.38885   0.92236   0.88186   0.00000  Uiso   1.00
F774   F     0.11115   0.74431   0.78480   0.00000  Uiso   1.00
Br775  Br    0.36309   0.72241   0.77145   0.00000  Uiso   1.00
Br776  Br    0.13691   0.94426   0.89521   0.00000  Uiso   1.00
Br777  Br    0.03659   0.67168   0.74975   0.00000  Uiso   1.00
Br778  Br    0.46341   0.99499   0.91691   0.00000  Uiso   1.00
Br779  Br    0.19461   0.97675   0.74697   0.00000  Uiso   1.00
Br780  Br    0.30539   0.68992   0.91969   0.00000  Uiso   1.00
Br781  Br    0.19298   0.76779   0.96773   0.00000  Uiso   1.00
Br782  Br    0.30702   0.89888   0.69894   0.00000  Uiso   1.00
C783   C     0.74790   0.73346   0.81822   0.00000  Uiso   1.00
C784   C     0.75210   0.93321   0.84845   0.00000  Uiso   1.00
C785   C     0.51540   0.73928   0.78345   0.00000  Uiso   1.00
C786   C     0.98460   0.92738   0.88322   0.00000  Uiso   1.00
C787   C     0.74036   0.67804   0.81191   0.00000  Uiso   1.00
C788   C     0.75964   0.98863   0.85476   0.00000  Uiso   1.00
C789   C     0.66473   0.83378   0.83387   0.00000  Uiso   1.00
C790   C     0.83527   0.83289   0.83279   0.00000  Uiso   1.00
C791   C     0.90984   0.87903   0.85769   0.00000  Uiso   1.00
C792   C     0.59016   0.78764   0.80898   0.00000  Uiso   1.00
C793   C     0.88332   0.83241   0.83168   0.00000  Uiso   1.00
C794   C     0.61668   0.83426   0.83499   0.00000  Uiso   1.00
C795   C     0.90218   0.78592   0.80583   0.00000  Uiso   1.00
C796   C     0.59783   0.88075   0.86084   0.00000  Uiso   1.00
C797   C     0.94906   0.78611   0.80685   0.00000  Uiso   1.00
C798   C     0.55094   0.88055   0.85981   0.00000  Uiso   1.00
C799   C     0.97643   0.83335   0.83295   0.00000  Uiso   1.00
C800   C     0.52357   0.83331   0.83372   0.00000  Uiso   1.00
C801   C     0.95671   0.88053   0.85823   0.00000  Uiso   1.00
C802   C     0.54329   0.78613   0.80844   0.00000  Uiso   1.00
C803   C     0.96911   0.73993   0.78274   0.00000  Uiso   1.00
C804   C     0.53089   0.92674   0.88393   0.00000  Uiso   1.00
Cu805  Cu    0.75501   0.83913   0.89479   0.00000  Uiso   1.00
Cu806  Cu    0.74500   0.82754   0.77187   0.00000  Uiso   1.00
H807   H     0.94910   0.70330   0.76309   0.00000  Uiso   1.00
H808   H     0.55090   0.96337   0.90358   0.00000  Uiso   1.00
N809   N     0.73745   0.81881   0.67951   0.00000  Uiso   1.00
N810   N     0.76256   0.84786   0.98716   0.00000  Uiso   1.00
O811   O     0.75326   0.76204   0.87326   0.00000  Uiso   1.00
O812   O     0.74675   0.90462   0.79341   0.00000  Uiso   1.00
O813   O     0.74480   0.75226   0.76945   0.00000  Uiso   1.00
O814   O     0.75520   0.91441   0.89721   0.00000  Uiso   1.00
O815   O     0.68936   0.83821   0.88524   0.00000  Uiso   1.00
O816   O     0.81065   0.82845   0.78143   0.00000  Uiso   1.00
O817   O     0.68090   0.82843   0.78143   0.00000  Uiso   1.00
O818   O     0.81910   0.83824   0.88523   0.00000  Uiso   1.00
F819   F     0.88885   0.92236   0.88186   0.00000  Uiso   1.00
F820   F     0.61115   0.74431   0.78480   0.00000  Uiso   1.00
Br821  Br    0.86309   0.72241   0.77145   0.00000  Uiso   1.00
Br822  Br    0.63691   0.94426   0.89521   0.00000  Uiso   1.00
Br823  Br    0.53659   0.67168   0.74975   0.00000  Uiso   1.00
Br824  Br    0.96341   0.99499   0.91691   0.00000  Uiso   1.00
Br825  Br    0.69461   0.97675   0.74697   0.00000  Uiso   1.00
Br826  Br    0.80539   0.68992   0.91969   0.00000  Uiso   1.00
Br827  Br    0.69298   0.76779   0.96773   0.00000  Uiso   1.00
Br828  Br    0.80702   0.89888   0.69894   0.00000  Uiso   1.00
loop_
_geom_bond_atom_site_label_1
_geom_bond_atom_site_label_2
_geom_bond_distance
_geom_bond_site_symmetry_2
_ccdc_geom_bond_type
C1     O31     1.297   .     A
C1     O29     1.290   .     A
C1     C5      1.423   .     S
C2     O30     1.290   .     A
C2     C6      1.423   .     S
C2     O32     1.297   .     A
C3     C20     1.415   .     A
C3     Br41    1.928   .     S
C3     C67     1.388   1_455 S
C4     Br42    1.928   .     S
C4     C19     1.415   .     A
C4     C68     1.388   .     S
C5     C190    1.348   1_545 S
C5     Br227   1.940   1_545 S
C6     C97     1.348   .     S
C6     Br136   1.940   .     S
C7     C12     1.444   .     S
C7     O33     1.298   .     A
C7     O35     1.297   .     A
C8     O34     1.298   .     A
C8     C11     1.444   .     S
C8     O36     1.297   .     A
C9     F37     1.358   .     S
C9     C11     1.394   .     A
C9     C19     1.403   .     A
C10    F38     1.358   .     S
C10    C12     1.394   .     A
C10    C20     1.403   .     A
C11    C13     1.399   .     A
C12    C14     1.399   .     A
C13    C15     1.404   .     A
C13    Br39    1.939   .     S
C14    C16     1.404   .     A
C14    Br40    1.939   .     S
C15    C21     1.401   .     A
C15    C17     1.419   .     A
C16    C22     1.401   .     A
C16    C18     1.419   .     A
C17    C19     1.423   .     A
C17    C64     1.412   .     S
C18    C20     1.423   .     A
C18    C63     1.412   1_455 S
C21    H25     1.080   .     S
C21    C49     1.388   .     S
C22    H26     1.080   .     S
C22    C50     1.388   1_455 S
Cu23   Cu24    2.707   .     S
Cu23   O32     1.952   .     S
Cu23   N28     2.034   .     S
Cu23   O29     1.958   .     S
Cu23   O36     1.953   .     S
Cu23   O33     1.960   .     S
Cu24   N27     2.034   .     S
Cu24   O31     1.952   .     S
Cu24   O35     1.953   .     S
Cu24   O30     1.958   .     S
Cu24   O34     1.960   .     S
N27    N580    1.293   1_554 S
N27    Br597   1.881   1_554 S
N28    N303    1.293   .     S
N28    Br322   1.881   .     S
Br43   C97     1.940   .     S
Br44   C190    1.940   1_545 S
Br45   N303    1.881   .     S
Br46   N580    1.881   1_554 S
C47    O77     1.297   .     A
C47    O75     1.290   .     A
C47    C51     1.423   .     S
C48    O76     1.290   .     A
C48    C52     1.423   .     S
C48    O78     1.297   .     A
C49    C66     1.415   .     A
C49    Br87    1.928   .     S
C50    Br88    1.928   .     S
C50    C65     1.415   .     A
C50    C22     1.388   1_655 S
C51    C236    1.348   1_545 S
C51    Br273   1.940   1_545 S
C52    C143    1.348   .     S
C52    Br182   1.940   .     S
C53    C58     1.444   .     S
C53    O79     1.298   .     A
C53    O81     1.297   .     A
C54    O80     1.298   .     A
C54    C57     1.444   .     S
C54    O82     1.297   .     A
C55    F83     1.358   .     S
C55    C57     1.394   .     A
C55    C65     1.403   .     A
C56    F84     1.358   .     S
C56    C58     1.394   .     A
C56    C66     1.403   .     A
C57    C59     1.399   .     A
C58    C60     1.399   .     A
C59    C61     1.404   .     A
C59    Br85    1.939   .     S
C60    C62     1.404   .     A
C60    Br86    1.939   .     S
C61    C67     1.401   .     A
C61    C63     1.419   .     A
C62    C68     1.401   .     A
C62    C64     1.419   .     A
C63    C65     1.423   .     A
C63    C18     1.412   1_655 S
C64    C66     1.423   .     A
C67    H71     1.080   .     S
C67    C3      1.388   1_655 S
C68    H72     1.080   .     S
Cu69   Cu70    2.707   .     S
Cu69   O78     1.952   .     S
Cu69   N74     2.034   .     S
Cu69   O75     1.958   .     S
Cu69   O82     1.953   .     S
Cu69   O79     1.960   .     S
Cu70   N73     2.034   .     S
Cu70   O77     1.952   .     S
Cu70   O81     1.953   .     S
Cu70   O76     1.958   .     S
Cu70   O80     1.960   .     S
N73    N626    1.293   1_554 S
N73    Br643   1.881   1_554 S
N74    N349    1.293   .     S
N74    Br368   1.881   .     S
Br89   C143    1.940   .     S
Br90   C236    1.940   1_545 S
Br91   N349    1.881   .     S
Br92   N626    1.881   1_554 S
C93    O123    1.297   .     A
C93    O121    1.290   .     A
C93    C97     1.423   .     S
C94    O122    1.290   .     A
C94    C98     1.423   .     S
C94    O124    1.297   .     A
C95    C112    1.415   .     A
C95    Br133   1.928   .     S
C95    C159    1.388   1_455 S
C96    Br134   1.928   .     S
C96    C111    1.415   .     A
C96    C160    1.388   .     S
C98    C189    1.348   .     S
C98    Br228   1.940   .     S
C99    C104    1.444   .     S
C99    O125    1.298   .     A
C99    O127    1.297   .     A
C100   O126    1.298   .     A
C100   C103    1.444   .     S
C100   O128    1.297   .     A
C101   F129    1.358   .     S
C101   C103    1.394   .     A
C101   C111    1.403   .     A
C102   F130    1.358   .     S
C102   C104    1.394   .     A
C102   C112    1.403   .     A
C103   C105    1.399   .     A
C104   C106    1.399   .     A
C105   C107    1.404   .     A
C105   Br131   1.939   .     S
C106   C108    1.404   .     A
C106   Br132   1.939   .     S
C107   C113    1.401   .     A
C107   C109    1.419   .     A
C108   C114    1.401   .     A
C108   C110    1.419   .     A
C109   C111    1.423   .     A
C109   C156    1.412   .     S
C110   C112    1.423   .     A
C110   C155    1.412   1_455 S
C113   H117    1.080   .     S
C113   C141    1.388   .     S
C114   H118    1.080   .     S
C114   C142    1.388   1_455 S
Cu115  Cu116   2.707   .     S
Cu115  O124    1.952   .     S
Cu115  N120    2.034   .     S
Cu115  O121    1.958   .     S
Cu115  O128    1.953   .     S
Cu115  O125    1.960   .     S
Cu116  N119    2.034   .     S
Cu116  O123    1.952   .     S
Cu116  O127    1.953   .     S
Cu116  O122    1.958   .     S
Cu116  O126    1.960   .     S
N119   N672    1.293   1_554 S
N119   Br689   1.881   1_554 S
N120   N395    1.293   .     S
N120   Br414   1.881   .     S
Br135  C189    1.940   .     S
Br137  N395    1.881   .     S
Br138  N672    1.881   1_554 S
C139   O169    1.297   .     A
C139   O167    1.290   .     A
C139   C143    1.423   .     S
C140   O168    1.290   .     A
C140   C144    1.423   .     S
C140   O170    1.297   .     A
C141   C158    1.415   .     A
C141   Br179   1.928   .     S
C142   Br180   1.928   .     S
C142   C157    1.415   .     A
C142   C114    1.388   1_655 S
C144   C235    1.348   .     S
C144   Br274   1.940   .     S
C145   C150    1.444   .     S
C145   O171    1.298   .     A
C145   O173    1.297   .     A
C146   O172    1.298   .     A
C146   C149    1.444   .     S
C146   O174    1.297   .     A
C147   F175    1.358   .     S
C147   C149    1.394   .     A
C147   C157    1.403   .     A
C148   F176    1.358   .     S
C148   C150    1.394   .     A
C148   C158    1.403   .     A
C149   C151    1.399   .     A
C150   C152    1.399   .     A
C151   C153    1.404   .     A
C151   Br177   1.939   .     S
C152   C154    1.404   .     A
C152   Br178   1.939   .     S
C153   C159    1.401   .     A
C153   C155    1.419   .     A
C154   C160    1.401   .     A
C154   C156    1.419   .     A
C155   C157    1.423   .     A
C155   C110    1.412   1_655 S
C156   C158    1.423   .     A
C159   H163    1.080   .     S
C159   C95     1.388   1_655 S
C160   H164    1.080   .     S
Cu161  Cu162   2.707   .     S
Cu161  O170    1.952   .     S
Cu161  N166    2.034   .     S
Cu161  O167    1.958   .     S
Cu161  O174    1.953   .     S
Cu161  O171    1.960   .     S
Cu162  N165    2.034   .     S
Cu162  O169    1.952   .     S
Cu162  O173    1.953   .     S
Cu162  O168    1.958   .     S
Cu162  O172    1.960   .     S
N165   N718    1.293   1_554 S
N165   Br735   1.881   1_554 S
N166   N441    1.293   .     S
N166   Br460   1.881   .     S
Br181  C235    1.940   .     S
Br183  N441    1.881   .     S
Br184  N718    1.881   1_554 S
C185   O215    1.297   .     A
C185   O213    1.290   .     A
C185   C189    1.423   .     S
C186   O214    1.290   .     A
C186   C190    1.423   .     S
C186   O216    1.297   .     A
C187   C204    1.415   .     A
C187   Br225   1.928   .     S
C187   C251    1.388   1_455 S
C188   Br226   1.928   .     S
C188   C203    1.415   .     A
C188   C252    1.388   .     S
C190   C5      1.348   1_565 S
C190   Br44    1.940   1_565 S
C191   C196    1.444   .     S
C191   O217    1.298   .     A
C191   O219    1.297   .     A
C192   O218    1.298   .     A
C192   C195    1.444   .     S
C192   O220    1.297   .     A
C193   F221    1.358   .     S
C193   C195    1.394   .     A
C193   C203    1.403   .     A
C194   F222    1.358   .     S
C194   C196    1.394   .     A
C194   C204    1.403   .     A
C195   C197    1.399   .     A
C196   C198    1.399   .     A
C197   C199    1.404   .     A
C197   Br223   1.939   .     S
C198   C200    1.404   .     A
C198   Br224   1.939   .     S
C199   C205    1.401   .     A
C199   C201    1.419   .     A
C200   C206    1.401   .     A
C200   C202    1.419   .     A
C201   C203    1.423   .     A
C201   C248    1.412   .     S
C202   C204    1.423   .     A
C202   C247    1.412   1_455 S
C205   H209    1.080   .     S
C205   C233    1.388   .     S
C206   H210    1.080   .     S
C206   C234    1.388   1_455 S
Cu207  Cu208   2.707   .     S
Cu207  O216    1.952   .     S
Cu207  N212    2.034   .     S
Cu207  O213    1.958   .     S
Cu207  O220    1.953   .     S
Cu207  O217    1.960   .     S
Cu208  N211    2.034   .     S
Cu208  O215    1.952   .     S
Cu208  O219    1.953   .     S
Cu208  O214    1.958   .     S
Cu208  O218    1.960   .     S
N211   N764    1.293   1_554 S
N211   Br781   1.881   1_554 S
N212   N487    1.293   .     S
N212   Br506   1.881   .     S
Br227  C5      1.940   1_565 S
Br229  N487    1.881   .     S
Br230  N764    1.881   1_554 S
C231   O261    1.297   .     A
C231   O259    1.290   .     A
C231   C235    1.423   .     S
C232   O260    1.290   .     A
C232   C236    1.423   .     S
C232   O262    1.297   .     A
C233   C250    1.415   .     A
C233   Br271   1.928   .     S
C234   Br272   1.928   .     S
C234   C249    1.415   .     A
C234   C206    1.388   1_655 S
C236   C51     1.348   1_565 S
C236   Br90    1.940   1_565 S
C237   C242    1.444   .     S
C237   O263    1.298   .     A
C237   O265    1.297   .     A
C238   O264    1.298   .     A
C238   C241    1.444   .     S
C238   O266    1.297   .     A
C239   F267    1.358   .     S
C239   C241    1.394   .     A
C239   C249    1.403   .     A
C240   F268    1.358   .     S
C240   C242    1.394   .     A
C240   C250    1.403   .     A
C241   C243    1.399   .     A
C242   C244    1.399   .     A
C243   C245    1.404   .     A
C243   Br269   1.939   .     S
C244   C246    1.404   .     A
C244   Br270   1.939   .     S
C245   C251    1.401   .     A
C245   C247    1.419   .     A
C246   C252    1.401   .     A
C246   C248    1.419   .     A
C247   C249    1.423   .     A
C247   C202    1.412   1_655 S
C248   C250    1.423   .     A
C251   H255    1.080   .     S
C251   C187    1.388   1_655 S
C252   H256    1.080   .     S
Cu253  Cu254   2.707   .     S
Cu253  O262    1.952   .     S
Cu253  N258    2.034   .     S
Cu253  O259    1.958   .     S
Cu253  O266    1.953   .     S
Cu253  O263    1.960   .     S
Cu254  N257    2.034   .     S
Cu254  O261    1.952   .     S
Cu254  O265    1.953   .     S
Cu254  O260    1.958   .     S
Cu254  O264    1.960   .     S
N257   N810    1.293   1_554 S
N257   Br827   1.881   1_554 S
N258   N533    1.293   .     S
N258   Br552   1.881   .     S
Br273  C51     1.940   1_565 S
Br275  N533    1.881   .     S
Br276  N810    1.881   1_554 S
C277   O307    1.297   .     A
C277   O305    1.290   .     A
C277   C281    1.423   .     S
C278   O306    1.290   .     A
C278   C282    1.423   .     S
C278   O308    1.297   .     A
C279   C296    1.415   .     A
C279   Br317   1.928   .     S
C279   C343    1.388   1_455 S
C280   Br318   1.928   .     S
C280   C295    1.415   .     A
C280   C344    1.388   .     S
C281   C466    1.348   1_545 S
C281   Br503   1.940   1_545 S
C282   C373    1.348   .     S
C282   Br412   1.940   .     S
C283   C288    1.444   .     S
C283   O309    1.298   .     A
C283   O311    1.297   .     A
C284   O310    1.298   .     A
C284   C287    1.444   .     S
C284   O312    1.297   .     A
C285   F313    1.358   .     S
C285   C287    1.394   .     A
C285   C295    1.403   .     A
C286   F314    1.358   .     S
C286   C288    1.394   .     A
C286   C296    1.403   .     A
C287   C289    1.399   .     A
C288   C290    1.399   .     A
C289   C291    1.404   .     A
C289   Br315   1.939   .     S
C290   C292    1.404   .     A
C290   Br316   1.939   .     S
C291   C297    1.401   .     A
C291   C293    1.419   .     A
C292   C298    1.401   .     A
C292   C294    1.419   .     A
C293   C295    1.423   .     A
C293   C340    1.412   .     S
C294   C296    1.423   .     A
C294   C339    1.412   1_455 S
C297   H301    1.080   .     S
C297   C325    1.388   .     S
C298   H302    1.080   .     S
C298   C326    1.388   1_455 S
Cu299  Cu300   2.707   .     S
Cu299  O308    1.952   .     S
Cu299  N304    2.034   .     S
Cu299  O305    1.958   .     S
Cu299  O312    1.953   .     S
Cu299  O309    1.960   .     S
Cu300  N303    2.034   .     S
Cu300  O307    1.952   .     S
Cu300  O311    1.953   .     S
Cu300  O306    1.958   .     S
Cu300  O310    1.960   .     S
N304   N579    1.293   .     S
N304   Br598   1.881   .     S
Br319  C373    1.940   .     S
Br320  C466    1.940   1_545 S
Br321  N579    1.881   .     S
C323   O353    1.297   .     A
C323   O351    1.290   .     A
C323   C327    1.423   .     S
C324   O352    1.290   .     A
C324   C328    1.423   .     S
C324   O354    1.297   .     A
C325   C342    1.415   .     A
C325   Br363   1.928   .     S
C326   Br364   1.928   .     S
C326   C341    1.415   .     A
C326   C298    1.388   1_655 S
C327   C512    1.348   1_545 S
C327   Br549   1.940   1_545 S
C328   C419    1.348   .     S
C328   Br458   1.940   .     S
C329   C334    1.444   .     S
C329   O355    1.298   .     A
C329   O357    1.297   .     A
C330   O356    1.298   .     A
C330   C333    1.444   .     S
C330   O358    1.297   .     A
C331   F359    1.358   .     S
C331   C333    1.394   .     A
C331   C341    1.403   .     A
C332   F360    1.358   .     S
C332   C334    1.394   .     A
C332   C342    1.403   .     A
C333   C335    1.399   .     A
C334   C336    1.399   .     A
C335   C337    1.404   .     A
C335   Br361   1.939   .     S
C336   C338    1.404   .     A
C336   Br362   1.939   .     S
C337   C343    1.401   .     A
C337   C339    1.419   .     A
C338   C344    1.401   .     A
C338   C340    1.419   .     A
C339   C341    1.423   .     A
C339   C294    1.412   1_655 S
C340   C342    1.423   .     A
C343   H347    1.080   .     S
C343   C279    1.388   1_655 S
C344   H348    1.080   .     S
Cu345  Cu346   2.707   .     S
Cu345  O354    1.952   .     S
Cu345  N350    2.034   .     S
Cu345  O351    1.958   .     S
Cu345  O358    1.953   .     S
Cu345  O355    1.960   .     S
Cu346  N349    2.034   .     S
Cu346  O353    1.952   .     S
Cu346  O357    1.953   .     S
Cu346  O352    1.958   .     S
Cu346  O356    1.960   .     S
N350   N625    1.293   .     S
N350   Br644   1.881   .     S
Br365  C419    1.940   .     S
Br366  C512    1.940   1_545 S
Br367  N625    1.881   .     S
C369   O399    1.297   .     A
C369   O397    1.290   .     A
C369   C373    1.423   .     S
C370   O398    1.290   .     A
C370   C374    1.423   .     S
C370   O400    1.297   .     A
C371   C388    1.415   .     A
C371   Br409   1.928   .     S
C371   C435    1.388   1_455 S
C372   Br410   1.928   .     S
C372   C387    1.415   .     A
C372   C436    1.388   .     S
C374   C465    1.348   .     S
C374   Br504   1.940   .     S
C375   C380    1.444   .     S
C375   O401    1.298   .     A
C375   O403    1.297   .     A
C376   O402    1.298   .     A
C376   C379    1.444   .     S
C376   O404    1.297   .     A
C377   F405    1.358   .     S
C377   C379    1.394   .     A
C377   C387    1.403   .     A
C378   F406    1.358   .     S
C378   C380    1.394   .     A
C378   C388    1.403   .     A
C379   C381    1.399   .     A
C380   C382    1.399   .     A
C381   C383    1.404   .     A
C381   Br407   1.939   .     S
C382   C384    1.404   .     A
C382   Br408   1.939   .     S
C383   C389    1.401   .     A
C383   C385    1.419   .     A
C384   C390    1.401   .     A
C384   C386    1.419   .     A
C385   C387    1.423   .     A
C385   C432    1.412   .     S
C386   C388    1.423   .     A
C386   C431    1.412   1_455 S
C389   H393    1.080   .     S
C389   C417    1.388   .     S
C390   H394    1.080   .     S
C390   C418    1.388   1_455 S
Cu391  Cu392   2.707   .     S
Cu391  O400    1.952   .     S
Cu391  N396    2.034   .     S
Cu391  O397    1.958   .     S
Cu391  O404    1.953   .     S
Cu391  O401    1.960   .     S
Cu392  N395    2.034   .     S
Cu392  O399    1.952   .     S
Cu392  O403    1.953   .     S
Cu392  O398    1.958   .     S
Cu392  O402    1.960   .     S
N396   N671    1.293   .     S
N396   Br690   1.881   .     S
Br411  C465    1.940   .     S
Br413  N671    1.881   .     S
C415   O445    1.297   .     A
C415   O443    1.290   .     A
C415   C419    1.423   .     S
C416   O444    1.290   .     A
C416   C420    1.423   .     S
C416   O446    1.297   .     A
C417   C434    1.415   .     A
C417   Br455   1.928   .     S
C418   Br456   1.928   .     S
C418   C433    1.415   .     A
C418   C390    1.388   1_655 S
C420   C511    1.348   .     S
C420   Br550   1.940   .     S
C421   C426    1.444   .     S
C421   O447    1.298   .     A
C421   O449    1.297   .     A
C422   O448    1.298   .     A
C422   C425    1.444   .     S
C422   O450    1.297   .     A
C423   F451    1.358   .     S
C423   C425    1.394   .     A
C423   C433    1.403   .     A
C424   F452    1.358   .     S
C424   C426    1.394   .     A
C424   C434    1.403   .     A
C425   C427    1.399   .     A
C426   C428    1.399   .     A
C427   C429    1.404   .     A
C427   Br453   1.939   .     S
C428   C430    1.404   .     A
C428   Br454   1.939   .     S
C429   C435    1.401   .     A
C429   C431    1.419   .     A
C430   C436    1.401   .     A
C430   C432    1.419   .     A
C431   C433    1.423   .     A
C431   C386    1.412   1_655 S
C432   C434    1.423   .     A
C435   H439    1.080   .     S
C435   C371    1.388   1_655 S
C436   H440    1.080   .     S
Cu437  Cu438   2.707   .     S
Cu437  O446    1.952   .     S
Cu437  N442    2.034   .     S
Cu437  O443    1.958   .     S
Cu437  O450    1.953   .     S
Cu437  O447    1.960   .     S
Cu438  N441    2.034   .     S
Cu438  O445    1.952   .     S
Cu438  O449    1.953   .     S
Cu438  O444    1.958   .     S
Cu438  O448    1.960   .     S
N442   N717    1.293   .     S
N442   Br736   1.881   .     S
Br457  C511    1.940   .     S
Br459  N717    1.881   .     S
C461   O491    1.297   .     A
C461   O489    1.290   .     A
C461   C465    1.423   .     S
C462   O490    1.290   .     A
C462   C466    1.423   .     S
C462   O492    1.297   .     A
C463   C480    1.415   .     A
C463   Br501   1.928   .     S
C463   C527    1.388   1_455 S
C464   Br502   1.928   .     S
C464   C479    1.415   .     A
C464   C528    1.388   .     S
C466   C281    1.348   1_565 S
C466   Br320   1.940   1_565 S
C467   C472    1.444   .     S
C467   O493    1.298   .     A
C467   O495    1.297   .     A
C468   O494    1.298   .     A
C468   C471    1.444   .     S
C468   O496    1.297   .     A
C469   F497    1.358   .     S
C469   C471    1.394   .     A
C469   C479    1.403   .     A
C470   F498    1.358   .     S
C470   C472    1.394   .     A
C470   C480    1.403   .     A
C471   C473    1.399   .     A
C472   C474    1.399   .     A
C473   C475    1.404   .     A
C473   Br499   1.939   .     S
C474   C476    1.404   .     A
C474   Br500   1.939   .     S
C475   C481    1.401   .     A
C475   C477    1.419   .     A
C476   C482    1.401   .     A
C476   C478    1.419   .     A
C477   C479    1.423   .     A
C477   C524    1.412   .     S
C478   C480    1.423   .     A
C478   C523    1.412   1_455 S
C481   H485    1.080   .     S
C481   C509    1.388   .     S
C482   H486    1.080   .     S
C482   C510    1.388   1_455 S
Cu483  Cu484   2.707   .     S
Cu483  O492    1.952   .     S
Cu483  N488    2.034   .     S
Cu483  O489    1.958   .     S
Cu483  O496    1.953   .     S
Cu483  O493    1.960   .     S
Cu484  N487    2.034   .     S
Cu484  O491    1.952   .     S
Cu484  O495    1.953   .     S
Cu484  O490    1.958   .     S
Cu484  O494    1.960   .     S
N488   N763    1.293   .     S
N488   Br782   1.881   .     S
Br503  C281    1.940   1_565 S
Br505  N763    1.881   .     S
C507   O537    1.297   .     A
C507   O535    1.290   .     A
C507   C511    1.423   .     S
C508   O536    1.290   .     A
C508   C512    1.423   .     S
C508   O538    1.297   .     A
C509   C526    1.415   .     A
C509   Br547   1.928   .     S
C510   Br548   1.928   .     S
C510   C525    1.415   .     A
C510   C482    1.388   1_655 S
C512   C327    1.348   1_565 S
C512   Br366   1.940   1_565 S
C513   C518    1.444   .     S
C513   O539    1.298   .     A
C513   O541    1.297   .     A
C514   O540    1.298   .     A
C514   C517    1.444   .     S
C514   O542    1.297   .     A
C515   F543    1.358   .     S
C515   C517    1.394   .     A
C515   C525    1.403   .     A
C516   F544    1.358   .     S
C516   C518    1.394   .     A
C516   C526    1.403   .     A
C517   C519    1.399   .     A
C518   C520    1.399   .     A
C519   C521    1.404   .     A
C519   Br545   1.939   .     S
C520   C522    1.404   .     A
C520   Br546   1.939   .     S
C521   C527    1.401   .     A
C521   C523    1.419   .     A
C522   C528    1.401   .     A
C522   C524    1.419   .     A
C523   C525    1.423   .     A
C523   C478    1.412   1_655 S
C524   C526    1.423   .     A
C527   H531    1.080   .     S
C527   C463    1.388   1_655 S
C528   H532    1.080   .     S
Cu529  Cu530   2.707   .     S
Cu529  O538    1.952   .     S
Cu529  N534    2.034   .     S
Cu529  O535    1.958   .     S
Cu529  O542    1.953   .     S
Cu529  O539    1.960   .     S
Cu530  N533    2.034   .     S
Cu530  O537    1.952   .     S
Cu530  O541    1.953   .     S
Cu530  O536    1.958   .     S
Cu530  O540    1.960   .     S
N534   N809    1.293   .     S
N534   Br828   1.881   .     S
Br549  C327    1.940   1_565 S
Br551  N809    1.881   .     S
C553   O583    1.297   .     A
C553   O581    1.290   .     A
C553   C557    1.423   .     S
C554   O582    1.290   .     A
C554   C558    1.423   .     S
C554   O584    1.297   .     A
C555   C572    1.415   .     A
C555   Br593   1.928   .     S
C555   C619    1.388   1_455 S
C556   Br594   1.928   .     S
C556   C571    1.415   .     A
C556   C620    1.388   .     S
C557   C742    1.348   1_545 S
C557   Br779   1.940   1_545 S
C558   C649    1.348   .     S
C558   Br688   1.940   .     S
C559   C564    1.444   .     S
C559   O585    1.298   .     A
C559   O587    1.297   .     A
C560   O586    1.298   .     A
C560   C563    1.444   .     S
C560   O588    1.297   .     A
C561   F589    1.358   .     S
C561   C563    1.394   .     A
C561   C571    1.403   .     A
C562   F590    1.358   .     S
C562   C564    1.394   .     A
C562   C572    1.403   .     A
C563   C565    1.399   .     A
C564   C566    1.399   .     A
C565   C567    1.404   .     A
C565   Br591   1.939   .     S
C566   C568    1.404   .     A
C566   Br592   1.939   .     S
C567   C573    1.401   .     A
C567   C569    1.419   .     A
C568   C574    1.401   .     A
C568   C570    1.419   .     A
C569   C571    1.423   .     A
C569   C616    1.412   .     S
C570   C572    1.423   .     A
C570   C615    1.412   1_455 S
C573   H577    1.080   .     S
C573   C601    1.388   .     S
C574   H578    1.080   .     S
C574   C602    1.388   1_455 S
Cu575  Cu576   2.707   .     S
Cu575  O584    1.952   .     S
Cu575  N580    2.034   .     S
Cu575  O581    1.958   .     S
Cu575  O588    1.953   .     S
Cu575  O585    1.960   .     S
Cu576  N579    2.034   .     S
Cu576  O583    1.952   .     S
Cu576  O587    1.953   .     S
Cu576  O582    1.958   .     S
Cu576  O586    1.960   .     S
N580   N27     1.293   1_556 S
N580   Br46    1.881   1_556 S
Br595  C649    1.940   .     S
Br596  C742    1.940   1_545 S
Br597  N27     1.881   1_556 S
C599   O629    1.297   .     A
C599   O627    1.290   .     A
C599   C603    1.423   .     S
C600   O628    1.290   .     A
C600   C604    1.423   .     S
C600   O630    1.297   .     A
C601   C618    1.415   .     A
C601   Br639   1.928   .     S
C602   Br640   1.928   .     S
C602   C617    1.415   .     A
C602   C574    1.388   1_655 S
C603   C788    1.348   1_545 S
C603   Br825   1.940   1_545 S
C604   C695    1.348   .     S
C604   Br734   1.940   .     S
C605   C610    1.444   .     S
C605   O631    1.298   .     A
C605   O633    1.297   .     A
C606   O632    1.298   .     A
C606   C609    1.444   .     S
C606   O634    1.297   .     A
C607   F635    1.358   .     S
C607   C609    1.394   .     A
C607   C617    1.403   .     A
C608   F636    1.358   .     S
C608   C610    1.394   .     A
C608   C618    1.403   .     A
C609   C611    1.399   .     A
C610   C612    1.399   .     A
C611   C613    1.404   .     A
C611   Br637   1.939   .     S
C612   C614    1.404   .     A
C612   Br638   1.939   .     S
C613   C619    1.401   .     A
C613   C615    1.419   .     A
C614   C620    1.401   .     A
C614   C616    1.419   .     A
C615   C617    1.423   .     A
C615   C570    1.412   1_655 S
C616   C618    1.423   .     A
C619   H623    1.080   .     S
C619   C555    1.388   1_655 S
C620   H624    1.080   .     S
Cu621  Cu622   2.707   .     S
Cu621  O630    1.952   .     S
Cu621  N626    2.034   .     S
Cu621  O627    1.958   .     S
Cu621  O634    1.953   .     S
Cu621  O631    1.960   .     S
Cu622  N625    2.034   .     S
Cu622  O629    1.952   .     S
Cu622  O633    1.953   .     S
Cu622  O628    1.958   .     S
Cu622  O632    1.960   .     S
N626   N73     1.293   1_556 S
N626   Br92    1.881   1_556 S
Br641  C695    1.940   .     S
Br642  C788    1.940   1_545 S
Br643  N73     1.881   1_556 S
C645   O675    1.297   .     A
C645   O673    1.290   .     A
C645   C649    1.423   .     S
C646   O674    1.290   .     A
C646   C650    1.423   .     S
C646   O676    1.297   .     A
C647   C664    1.415   .     A
C647   Br685   1.928   .     S
C647   C711    1.388   1_455 S
C648   Br686   1.928   .     S
C648   C663    1.415   .     A
C648   C712    1.388   .     S
C650   C741    1.348   .     S
C650   Br780   1.940   .     S
C651   C656    1.444   .     S
C651   O677    1.298   .     A
C651   O679    1.297   .     A
C652   O678    1.298   .     A
C652   C655    1.444   .     S
C652   O680    1.297   .     A
C653   F681    1.358   .     S
C653   C655    1.394   .     A
C653   C663    1.403   .     A
C654   F682    1.358   .     S
C654   C656    1.394   .     A
C654   C664    1.403   .     A
C655   C657    1.399   .     A
C656   C658    1.399   .     A
C657   C659    1.404   .     A
C657   Br683   1.939   .     S
C658   C660    1.404   .     A
C658   Br684   1.939   .     S
C659   C665    1.401   .     A
C659   C661    1.419   .     A
C660   C666    1.401   .     A
C660   C662    1.419   .     A
C661   C663    1.423   .     A
C661   C708    1.412   .     S
C662   C664    1.423   .     A
C662   C707    1.412   1_455 S
C665   H669    1.080   .     S
C665   C693    1.388   .     S
C666   H670    1.080   .     S
C666   C694    1.388   1_455 S
Cu667  Cu668   2.707   .     S
Cu667  O676    1.952   .     S
Cu667  N672    2.034   .     S
Cu667  O673    1.958   .     S
Cu667  O680    1.953   .     S
Cu667  O677    1.960   .     S
Cu668  N671    2.034   .     S
Cu668  O675    1.952   .     S
Cu668  O679    1.953   .     S
Cu668  O674    1.958   .     S
Cu668  O678    1.960   .     S
N672   N119    1.293   1_556 S
N672   Br138   1.881   1_556 S
Br687  C741    1.940   .     S
Br689  N119    1.881   1_556 S
C691   O721    1.297   .     A
C691   O719    1.290   .     A
C691   C695    1.423   .     S
C692   O720    1.290   .     A
C692   C696    1.423   .     S
C692   O722    1.297   .     A
C693   C710    1.415   .     A
C693   Br731   1.928   .     S
C694   Br732   1.928   .     S
C694   C709    1.415   .     A
C694   C666    1.388   1_655 S
C696   C787    1.348   .     S
C696   Br826   1.940   .     S
C697   C702    1.444   .     S
C697   O723    1.298   .     A
C697   O725    1.297   .     A
C698   O724    1.298   .     A
C698   C701    1.444   .     S
C698   O726    1.297   .     A
C699   F727    1.358   .     S
C699   C701    1.394   .     A
C699   C709    1.403   .     A
C700   F728    1.358   .     S
C700   C702    1.394   .     A
C700   C710    1.403   .     A
C701   C703    1.399   .     A
C702   C704    1.399   .     A
C703   C705    1.404   .     A
C703   Br729   1.939   .     S
C704   C706    1.404   .     A
C704   Br730   1.939   .     S
C705   C711    1.401   .     A
C705   C707    1.419   .     A
C706   C712    1.401   .     A
C706   C708    1.419   .     A
C707   C709    1.423   .     A
C707   C662    1.412   1_655 S
C708   C710    1.423   .     A
C711   H715    1.080   .     S
C711   C647    1.388   1_655 S
C712   H716    1.080   .     S
Cu713  Cu714   2.707   .     S
Cu713  O722    1.952   .     S
Cu713  N718    2.034   .     S
Cu713  O719    1.958   .     S
Cu713  O726    1.953   .     S
Cu713  O723    1.960   .     S
Cu714  N717    2.034   .     S
Cu714  O721    1.952   .     S
Cu714  O725    1.953   .     S
Cu714  O720    1.958   .     S
Cu714  O724    1.960   .     S
N718   N165    1.293   1_556 S
N718   Br184   1.881   1_556 S
Br733  C787    1.940   .     S
Br735  N165    1.881   1_556 S
C737   O767    1.297   .     A
C737   O765    1.290   .     A
C737   C741    1.423   .     S
C738   O766    1.290   .     A
C738   C742    1.423   .     S
C738   O768    1.297   .     A
C739   C756    1.415   .     A
C739   Br777   1.928   .     S
C739   C803    1.388   1_455 S
C740   Br778   1.928   .     S
C740   C755    1.415   .     A
C740   C804    1.388   .     S
C742   C557    1.348   1_565 S
C742   Br596   1.940   1_565 S
C743   C748    1.444   .     S
C743   O769    1.298   .     A
C743   O771    1.297   .     A
C744   O770    1.298   .     A
C744   C747    1.444   .     S
C744   O772    1.297   .     A
C745   F773    1.358   .     S
C745   C747    1.394   .     A
C745   C755    1.403   .     A
C746   F774    1.358   .     S
C746   C748    1.394   .     A
C746   C756    1.403   .     A
C747   C749    1.399   .     A
C748   C750    1.399   .     A
C749   C751    1.404   .     A
C749   Br775   1.939   .     S
C750   C752    1.404   .     A
C750   Br776   1.939   .     S
C751   C757    1.401   .     A
C751   C753    1.419   .     A
C752   C758    1.401   .     A
C752   C754    1.419   .     A
C753   C755    1.423   .     A
C753   C800    1.412   .     S
C754   C756    1.423   .     A
C754   C799    1.412   1_455 S
C757   H761    1.080   .     S
C757   C785    1.388   .     S
C758   H762    1.080   .     S
C758   C786    1.388   1_455 S
Cu759  Cu760   2.707   .     S
Cu759  O768    1.952   .     S
Cu759  N764    2.034   .     S
Cu759  O765    1.958   .     S
Cu759  O772    1.953   .     S
Cu759  O769    1.960   .     S
Cu760  N763    2.034   .     S
Cu760  O767    1.952   .     S
Cu760  O771    1.953   .     S
Cu760  O766    1.958   .     S
Cu760  O770    1.960   .     S
N764   N211    1.293   1_556 S
N764   Br230   1.881   1_556 S
Br779  C557    1.940   1_565 S
Br781  N211    1.881   1_556 S
C783   O813    1.297   .     A
C783   O811    1.290   .     A
C783   C787    1.423   .     S
C784   O812    1.290   .     A
C784   C788    1.423   .     S
C784   O814    1.297   .     A
C785   C802    1.415   .     A
C785   Br823   1.928   .     S
C786   Br824   1.928   .     S
C786   C801    1.415   .     A
C786   C758    1.388   1_655 S
C788   C603    1.348   1_565 S
C788   Br642   1.940   1_565 S
C789   C794    1.444   .     S
C789   O815    1.298   .     A
C789   O817    1.297   .     A
C790   O816    1.298   .     A
C790   C793    1.444   .     S
C790   O818    1.297   .     A
C791   F819    1.358   .     S
C791   C793    1.394   .     A
C791   C801    1.403   .     A
C792   F820    1.358   .     S
C792   C794    1.394   .     A
C792   C802    1.403   .     A
C793   C795    1.399   .     A
C794   C796    1.399   .     A
C795   C797    1.404   .     A
C795   Br821   1.939   .     S
C796   C798    1.404   .     A
C796   Br822   1.939   .     S
C797   C803    1.401   .     A
C797   C799    1.419   .     A
C798   C804    1.401   .     A
C798   C800    1.419   .     A
C799   C801    1.423   .     A
C799   C754    1.412   1_655 S
C800   C802    1.423   .     A
C803   H807    1.080   .     S
C803   C739    1.388   1_655 S
C804   H808    1.080   .     S
Cu805  Cu806   2.707   .     S
Cu805  O814    1.952   .     S
Cu805  N810    2.034   .     S
Cu805  O811    1.958   .     S
Cu805  O818    1.953   .     S
Cu805  O815    1.960   .     S
Cu806  N809    2.034   .     S
Cu806  O813    1.952   .     S
Cu806  O817    1.953   .     S
Cu806  O812    1.958   .     S
Cu806  O816    1.960   .     S
N810   N257    1.293   1_556 S
N810   Br276   1.881   1_556 S
Br825  C603    1.940   1_565 S
Br827  N257    1.881   1_556 S
