data_str_m2_o10_o16_pcu_sym.17
_audit_creation_date              2020-01-03
_audit_creation_method            'Materials Studio'
_symmetry_space_group_name_H-M    'P1'
_symmetry_Int_Tables_number       1
_symmetry_cell_setting            triclinic
loop_
_symmetry_equiv_pos_as_xyz
  x,y,z
_cell_length_a                    22.2338
_cell_length_b                    26.3900
_cell_length_c                    26.9327
_cell_angle_alpha                 94.4418
_cell_angle_beta                  77.0277
_cell_angle_gamma                 102.3453
loop_
_atom_site_label
_atom_site_type_symbol
_atom_site_fract_x
_atom_site_fract_y
_atom_site_fract_z
_atom_site_U_iso_or_equiv
_atom_site_adp_type
_atom_site_occupancy
C1     C     0.18053   0.26639   0.25317   0.00000  Uiso   1.00
C2     C     0.11152   0.15961   0.40440   0.00000  Uiso   1.00
C3     C     0.18381   0.32106   0.26244   0.00000  Uiso   1.00
C4     C     0.13257   0.16363   0.34762   0.00000  Uiso   1.00
C5     C     0.14812   0.01199   0.24148   0.00000  Uiso   1.00
C6     C     0.15232   0.06691   0.24815   0.00000  Uiso   1.00
C7     C     0.20073   0.17030   0.15303   0.00000  Uiso   1.00
C8     C     0.29280   0.22384   0.02684   0.00000  Uiso   1.00
C9     C     0.22127   0.17829   0.09815   0.00000  Uiso   1.00
C10    C     0.05091   0.13060   0.42704   0.00000  Uiso   1.00
C11    C     0.03384   0.12532   0.47966   0.00000  Uiso   1.00
C12    C     0.13946   0.16671   0.48895   0.00000  Uiso   1.00
C13    C     0.07710   0.14229   0.01004   0.00000  Uiso   1.00
C14    C     0.15475   0.18019   0.43693   0.00000  Uiso   1.00
C15    C     0.18672   0.17936   0.01848   0.00000  Uiso   1.00
C16    C     0.24623   0.21032   0.49778   0.00000  Uiso   1.00
C17    C     0.25797   0.22851   0.44880   0.00000  Uiso   1.00
C18    C     0.21291   0.21419   0.41932   0.00000  Uiso   1.00
C19    C     0.17670   0.16175   0.06804   0.00000  Uiso   1.00
C20    C     0.28015   0.20830   0.07709   0.00000  Uiso   1.00
Cl21   Cl    0.10047   0.31490   0.19830   0.00000  Uiso   1.00
Cu22   Cu    0.10710   0.16105   0.24435   0.00000  Uiso   1.00
Cu23   Cu    0.22623   0.17228   0.25564   0.00000  Uiso   1.00
H24    H     0.31519   0.22145   0.09995   0.00000  Uiso   1.00
H25    H     0.28725   0.02666   0.43614   0.00000  Uiso   1.00
H26    H     0.29403   0.30411   0.31957   0.00000  Uiso   1.00
H27    H     0.00344   0.20546   0.28963   0.00000  Uiso   1.00
H28    H     0.33018   0.12849   0.20982   0.00000  Uiso   1.00
H29    H     0.30236   0.25385   0.43299   0.00000  Uiso   1.00
H30    H     0.00500   0.24760   0.01113   0.00000  Uiso   1.00
H31    H     0.13389   0.13556   0.08473   0.00000  Uiso   1.00
H32    H     0.05975   0.13622   0.05027   0.00000  Uiso   1.00
H33    H     0.32029   0.10569   0.49768   0.00000  Uiso   1.00
H34    H     0.22447   0.23128   0.38292   0.00000  Uiso   1.00
N35    N     0.31574   0.18074   0.26416   0.00000  Uiso   1.00
N36    N     0.01759   0.15259   0.23584   0.00000  Uiso   1.00
O37    O     0.12797   0.23807   0.24633   0.00000  Uiso   1.00
O38    O     0.02986   0.06234   0.35143   0.00000  Uiso   1.00
O39    O     0.26982   0.05653   0.42981   0.00000  Uiso   1.00
O40    O     0.29075   0.05072   0.27648   0.00000  Uiso   1.00
O41    O     0.19626   0.05231   0.34393   0.00000  Uiso   1.00
O42    O     0.25143   0.30819   0.33815   0.00000  Uiso   1.00
O43    O     0.22858   0.24755   0.25586   0.00000  Uiso   1.00
O44    O     0.09181   0.15960   0.31840   0.00000  Uiso   1.00
O45    O     0.19242   0.16908   0.32793   0.00000  Uiso   1.00
O46    O     0.10476   0.08578   0.24413   0.00000  Uiso   1.00
O47    O     0.20536   0.09526   0.25367   0.00000  Uiso   1.00
O48    O     0.14092   0.16425   0.17207   0.00000  Uiso   1.00
O49    O     0.24152   0.17373   0.18160   0.00000  Uiso   1.00
O50    O     0.30337   0.13227   0.36747   0.00000  Uiso   1.00
S51    S     0.32985   0.09525   0.39192   0.00000  Uiso   1.00
S52    S     0.23140   0.01829   0.30597   0.00000  Uiso   1.00
C53    C     0.51386   0.26639   0.25317   0.00000  Uiso   1.00
C54    C     0.44485   0.15961   0.40440   0.00000  Uiso   1.00
C55    C     0.51714   0.32106   0.26244   0.00000  Uiso   1.00
C56    C     0.46590   0.16363   0.34762   0.00000  Uiso   1.00
C57    C     0.48146   0.01199   0.24148   0.00000  Uiso   1.00
C58    C     0.48565   0.06691   0.24815   0.00000  Uiso   1.00
C59    C     0.53406   0.17030   0.15303   0.00000  Uiso   1.00
C60    C     0.62613   0.22384   0.02684   0.00000  Uiso   1.00
C61    C     0.55461   0.17829   0.09815   0.00000  Uiso   1.00
C62    C     0.38424   0.13060   0.42704   0.00000  Uiso   1.00
C63    C     0.36718   0.12532   0.47966   0.00000  Uiso   1.00
C64    C     0.47280   0.16671   0.48895   0.00000  Uiso   1.00
C65    C     0.41043   0.14229   0.01004   0.00000  Uiso   1.00
C66    C     0.48808   0.18019   0.43693   0.00000  Uiso   1.00
C67    C     0.52005   0.17936   0.01848   0.00000  Uiso   1.00
C68    C     0.57956   0.21032   0.49778   0.00000  Uiso   1.00
C69    C     0.59130   0.22851   0.44880   0.00000  Uiso   1.00
C70    C     0.54624   0.21419   0.41932   0.00000  Uiso   1.00
C71    C     0.51003   0.16175   0.06804   0.00000  Uiso   1.00
C72    C     0.61348   0.20830   0.07709   0.00000  Uiso   1.00
Cl73   Cl    0.43380   0.31490   0.19830   0.00000  Uiso   1.00
Cu74   Cu    0.44043   0.16105   0.24435   0.00000  Uiso   1.00
Cu75   Cu    0.55957   0.17228   0.25564   0.00000  Uiso   1.00
H76    H     0.64852   0.22145   0.09995   0.00000  Uiso   1.00
H77    H     0.62059   0.02666   0.43614   0.00000  Uiso   1.00
H78    H     0.62737   0.30411   0.31957   0.00000  Uiso   1.00
H79    H     0.33678   0.20546   0.28963   0.00000  Uiso   1.00
H80    H     0.66352   0.12849   0.20982   0.00000  Uiso   1.00
H81    H     0.63569   0.25385   0.43299   0.00000  Uiso   1.00
H82    H     0.33834   0.24760   0.01113   0.00000  Uiso   1.00
H83    H     0.46722   0.13556   0.08473   0.00000  Uiso   1.00
H84    H     0.39309   0.13622   0.05027   0.00000  Uiso   1.00
H85    H     0.65362   0.10569   0.49768   0.00000  Uiso   1.00
H86    H     0.55781   0.23128   0.38292   0.00000  Uiso   1.00
N87    N     0.64908   0.18074   0.26416   0.00000  Uiso   1.00
N88    N     0.35092   0.15259   0.23584   0.00000  Uiso   1.00
O89    O     0.46131   0.23807   0.24633   0.00000  Uiso   1.00
O90    O     0.36319   0.06234   0.35143   0.00000  Uiso   1.00
O91    O     0.60316   0.05653   0.42981   0.00000  Uiso   1.00
O92    O     0.62408   0.05072   0.27648   0.00000  Uiso   1.00
O93    O     0.52959   0.05231   0.34393   0.00000  Uiso   1.00
O94    O     0.58476   0.30819   0.33815   0.00000  Uiso   1.00
O95    O     0.56191   0.24755   0.25586   0.00000  Uiso   1.00
O96    O     0.42515   0.15960   0.31840   0.00000  Uiso   1.00
O97    O     0.52575   0.16908   0.32793   0.00000  Uiso   1.00
O98    O     0.43809   0.08578   0.24413   0.00000  Uiso   1.00
O99    O     0.53869   0.09526   0.25367   0.00000  Uiso   1.00
O100   O     0.47425   0.16425   0.17207   0.00000  Uiso   1.00
O101   O     0.57485   0.17373   0.18160   0.00000  Uiso   1.00
O102   O     0.63670   0.13227   0.36747   0.00000  Uiso   1.00
S103   S     0.66319   0.09525   0.39192   0.00000  Uiso   1.00
S104   S     0.56474   0.01829   0.30597   0.00000  Uiso   1.00
C105   C     0.84720   0.26639   0.25317   0.00000  Uiso   1.00
C106   C     0.77819   0.15961   0.40440   0.00000  Uiso   1.00
C107   C     0.85048   0.32106   0.26244   0.00000  Uiso   1.00
C108   C     0.79924   0.16363   0.34762   0.00000  Uiso   1.00
C109   C     0.81479   0.01199   0.24148   0.00000  Uiso   1.00
C110   C     0.81898   0.06691   0.24815   0.00000  Uiso   1.00
C111   C     0.86740   0.17030   0.15303   0.00000  Uiso   1.00
C112   C     0.95946   0.22384   0.02684   0.00000  Uiso   1.00
C113   C     0.88794   0.17829   0.09815   0.00000  Uiso   1.00
C114   C     0.71757   0.13060   0.42704   0.00000  Uiso   1.00
C115   C     0.70051   0.12532   0.47966   0.00000  Uiso   1.00
C116   C     0.80613   0.16671   0.48895   0.00000  Uiso   1.00
C117   C     0.74377   0.14229   0.01004   0.00000  Uiso   1.00
C118   C     0.82142   0.18019   0.43693   0.00000  Uiso   1.00
C119   C     0.85339   0.17936   0.01848   0.00000  Uiso   1.00
C120   C     0.91290   0.21032   0.49778   0.00000  Uiso   1.00
C121   C     0.92464   0.22851   0.44880   0.00000  Uiso   1.00
C122   C     0.87958   0.21419   0.41932   0.00000  Uiso   1.00
C123   C     0.84336   0.16175   0.06804   0.00000  Uiso   1.00
C124   C     0.94681   0.20830   0.07709   0.00000  Uiso   1.00
Cl125  Cl    0.76713   0.31490   0.19830   0.00000  Uiso   1.00
Cu126  Cu    0.77377   0.16105   0.24435   0.00000  Uiso   1.00
Cu127  Cu    0.89290   0.17228   0.25564   0.00000  Uiso   1.00
H128   H     0.98185   0.22145   0.09995   0.00000  Uiso   1.00
H129   H     0.95392   0.02666   0.43614   0.00000  Uiso   1.00
H130   H     0.96070   0.30411   0.31957   0.00000  Uiso   1.00
H131   H     0.67011   0.20546   0.28963   0.00000  Uiso   1.00
H132   H     0.99685   0.12849   0.20982   0.00000  Uiso   1.00
H133   H     0.96903   0.25385   0.43299   0.00000  Uiso   1.00
H134   H     0.67167   0.24760   0.01113   0.00000  Uiso   1.00
H135   H     0.80055   0.13556   0.08473   0.00000  Uiso   1.00
H136   H     0.72642   0.13622   0.05027   0.00000  Uiso   1.00
H137   H     0.98696   0.10569   0.49768   0.00000  Uiso   1.00
H138   H     0.89114   0.23128   0.38292   0.00000  Uiso   1.00
N139   N     0.98241   0.18074   0.26416   0.00000  Uiso   1.00
N140   N     0.68426   0.15259   0.23584   0.00000  Uiso   1.00
O141   O     0.79464   0.23807   0.24633   0.00000  Uiso   1.00
O142   O     0.69652   0.06234   0.35143   0.00000  Uiso   1.00
O143   O     0.93649   0.05653   0.42981   0.00000  Uiso   1.00
O144   O     0.95742   0.05072   0.27648   0.00000  Uiso   1.00
O145   O     0.86293   0.05231   0.34393   0.00000  Uiso   1.00
O146   O     0.91810   0.30819   0.33815   0.00000  Uiso   1.00
O147   O     0.89524   0.24755   0.25586   0.00000  Uiso   1.00
O148   O     0.75848   0.15960   0.31840   0.00000  Uiso   1.00
O149   O     0.85908   0.16908   0.32793   0.00000  Uiso   1.00
O150   O     0.77142   0.08578   0.24413   0.00000  Uiso   1.00
O151   O     0.87203   0.09526   0.25367   0.00000  Uiso   1.00
O152   O     0.80758   0.16425   0.17207   0.00000  Uiso   1.00
O153   O     0.90819   0.17373   0.18160   0.00000  Uiso   1.00
O154   O     0.97004   0.13227   0.36747   0.00000  Uiso   1.00
S155   S     0.99652   0.09525   0.39192   0.00000  Uiso   1.00
S156   S     0.89807   0.01829   0.30597   0.00000  Uiso   1.00
C157   C     0.18053   0.59972   0.25317   0.00000  Uiso   1.00
C158   C     0.11152   0.49295   0.40440   0.00000  Uiso   1.00
C159   C     0.18381   0.65439   0.26244   0.00000  Uiso   1.00
C160   C     0.13257   0.49696   0.34762   0.00000  Uiso   1.00
C161   C     0.14812   0.34532   0.24148   0.00000  Uiso   1.00
C162   C     0.15232   0.40024   0.24815   0.00000  Uiso   1.00
C163   C     0.20073   0.50364   0.15303   0.00000  Uiso   1.00
C164   C     0.29280   0.55717   0.02684   0.00000  Uiso   1.00
C165   C     0.22127   0.51162   0.09815   0.00000  Uiso   1.00
C166   C     0.05091   0.46393   0.42704   0.00000  Uiso   1.00
C167   C     0.03384   0.45865   0.47966   0.00000  Uiso   1.00
C168   C     0.13946   0.50004   0.48895   0.00000  Uiso   1.00
C169   C     0.07710   0.47562   0.01004   0.00000  Uiso   1.00
C170   C     0.15475   0.51352   0.43693   0.00000  Uiso   1.00
C171   C     0.18672   0.51269   0.01848   0.00000  Uiso   1.00
C172   C     0.24623   0.54366   0.49778   0.00000  Uiso   1.00
C173   C     0.25797   0.56184   0.44880   0.00000  Uiso   1.00
C174   C     0.21291   0.54752   0.41932   0.00000  Uiso   1.00
C175   C     0.17670   0.49509   0.06804   0.00000  Uiso   1.00
C176   C     0.28015   0.54164   0.07709   0.00000  Uiso   1.00
Cl177  Cl    0.10047   0.64823   0.19830   0.00000  Uiso   1.00
Cu178  Cu    0.10710   0.49439   0.24435   0.00000  Uiso   1.00
Cu179  Cu    0.22623   0.50561   0.25564   0.00000  Uiso   1.00
H180   H     0.31519   0.55478   0.09995   0.00000  Uiso   1.00
H181   H     0.28725   0.36000   0.43614   0.00000  Uiso   1.00
H182   H     0.29403   0.63744   0.31957   0.00000  Uiso   1.00
H183   H     0.00344   0.53879   0.28963   0.00000  Uiso   1.00
H184   H     0.33018   0.46183   0.20982   0.00000  Uiso   1.00
H185   H     0.30236   0.58718   0.43299   0.00000  Uiso   1.00
H186   H     0.00500   0.58094   0.01113   0.00000  Uiso   1.00
H187   H     0.13389   0.46889   0.08473   0.00000  Uiso   1.00
H188   H     0.05975   0.46956   0.05027   0.00000  Uiso   1.00
H189   H     0.32029   0.43903   0.49768   0.00000  Uiso   1.00
H190   H     0.22447   0.56461   0.38292   0.00000  Uiso   1.00
N191   N     0.31574   0.51407   0.26416   0.00000  Uiso   1.00
N192   N     0.01759   0.48593   0.23584   0.00000  Uiso   1.00
O193   O     0.12797   0.57141   0.24633   0.00000  Uiso   1.00
O194   O     0.02986   0.39568   0.35143   0.00000  Uiso   1.00
O195   O     0.26982   0.38986   0.42981   0.00000  Uiso   1.00
O196   O     0.29075   0.38405   0.27648   0.00000  Uiso   1.00
O197   O     0.19626   0.38564   0.34393   0.00000  Uiso   1.00
O198   O     0.25143   0.64152   0.33815   0.00000  Uiso   1.00
O199   O     0.22858   0.58089   0.25586   0.00000  Uiso   1.00
O200   O     0.09181   0.49293   0.31840   0.00000  Uiso   1.00
O201   O     0.19242   0.50241   0.32793   0.00000  Uiso   1.00
O202   O     0.10476   0.41911   0.24413   0.00000  Uiso   1.00
O203   O     0.20536   0.42859   0.25367   0.00000  Uiso   1.00
O204   O     0.14092   0.49759   0.17207   0.00000  Uiso   1.00
O205   O     0.24152   0.50707   0.18160   0.00000  Uiso   1.00
O206   O     0.30337   0.46560   0.36747   0.00000  Uiso   1.00
S207   S     0.32985   0.42858   0.39192   0.00000  Uiso   1.00
S208   S     0.23140   0.35163   0.30597   0.00000  Uiso   1.00
C209   C     0.51386   0.59972   0.25317   0.00000  Uiso   1.00
C210   C     0.44485   0.49295   0.40440   0.00000  Uiso   1.00
C211   C     0.51714   0.65439   0.26244   0.00000  Uiso   1.00
C212   C     0.46590   0.49696   0.34762   0.00000  Uiso   1.00
C213   C     0.48146   0.34532   0.24148   0.00000  Uiso   1.00
C214   C     0.48565   0.40024   0.24815   0.00000  Uiso   1.00
C215   C     0.53406   0.50364   0.15303   0.00000  Uiso   1.00
C216   C     0.62613   0.55717   0.02684   0.00000  Uiso   1.00
C217   C     0.55461   0.51162   0.09815   0.00000  Uiso   1.00
C218   C     0.38424   0.46393   0.42704   0.00000  Uiso   1.00
C219   C     0.36718   0.45865   0.47966   0.00000  Uiso   1.00
C220   C     0.47280   0.50004   0.48895   0.00000  Uiso   1.00
C221   C     0.41043   0.47562   0.01004   0.00000  Uiso   1.00
C222   C     0.48808   0.51352   0.43693   0.00000  Uiso   1.00
C223   C     0.52005   0.51269   0.01848   0.00000  Uiso   1.00
C224   C     0.57956   0.54366   0.49778   0.00000  Uiso   1.00
C225   C     0.59130   0.56184   0.44880   0.00000  Uiso   1.00
C226   C     0.54624   0.54752   0.41932   0.00000  Uiso   1.00
C227   C     0.51003   0.49509   0.06804   0.00000  Uiso   1.00
C228   C     0.61348   0.54164   0.07709   0.00000  Uiso   1.00
Cl229  Cl    0.43380   0.64823   0.19830   0.00000  Uiso   1.00
Cu230  Cu    0.44043   0.49439   0.24435   0.00000  Uiso   1.00
Cu231  Cu    0.55957   0.50561   0.25564   0.00000  Uiso   1.00
H232   H     0.64852   0.55478   0.09995   0.00000  Uiso   1.00
H233   H     0.62059   0.36000   0.43614   0.00000  Uiso   1.00
H234   H     0.62737   0.63744   0.31957   0.00000  Uiso   1.00
H235   H     0.33678   0.53879   0.28963   0.00000  Uiso   1.00
H236   H     0.66352   0.46183   0.20982   0.00000  Uiso   1.00
H237   H     0.63569   0.58718   0.43299   0.00000  Uiso   1.00
H238   H     0.33834   0.58094   0.01113   0.00000  Uiso   1.00
H239   H     0.46722   0.46889   0.08473   0.00000  Uiso   1.00
H240   H     0.39309   0.46956   0.05027   0.00000  Uiso   1.00
H241   H     0.65362   0.43903   0.49768   0.00000  Uiso   1.00
H242   H     0.55781   0.56461   0.38292   0.00000  Uiso   1.00
N243   N     0.64908   0.51407   0.26416   0.00000  Uiso   1.00
N244   N     0.35092   0.48593   0.23584   0.00000  Uiso   1.00
O245   O     0.46131   0.57141   0.24633   0.00000  Uiso   1.00
O246   O     0.36319   0.39568   0.35143   0.00000  Uiso   1.00
O247   O     0.60316   0.38986   0.42981   0.00000  Uiso   1.00
O248   O     0.62408   0.38405   0.27648   0.00000  Uiso   1.00
O249   O     0.52959   0.38564   0.34393   0.00000  Uiso   1.00
O250   O     0.58476   0.64152   0.33815   0.00000  Uiso   1.00
O251   O     0.56191   0.58089   0.25586   0.00000  Uiso   1.00
O252   O     0.42515   0.49293   0.31840   0.00000  Uiso   1.00
O253   O     0.52575   0.50241   0.32793   0.00000  Uiso   1.00
O254   O     0.43809   0.41911   0.24413   0.00000  Uiso   1.00
O255   O     0.53869   0.42859   0.25367   0.00000  Uiso   1.00
O256   O     0.47425   0.49759   0.17207   0.00000  Uiso   1.00
O257   O     0.57485   0.50707   0.18160   0.00000  Uiso   1.00
O258   O     0.63670   0.46560   0.36747   0.00000  Uiso   1.00
S259   S     0.66319   0.42858   0.39192   0.00000  Uiso   1.00
S260   S     0.56474   0.35163   0.30597   0.00000  Uiso   1.00
C261   C     0.84720   0.59972   0.25317   0.00000  Uiso   1.00
C262   C     0.77819   0.49295   0.40440   0.00000  Uiso   1.00
C263   C     0.85048   0.65439   0.26244   0.00000  Uiso   1.00
C264   C     0.79924   0.49696   0.34762   0.00000  Uiso   1.00
C265   C     0.81479   0.34532   0.24148   0.00000  Uiso   1.00
C266   C     0.81898   0.40024   0.24815   0.00000  Uiso   1.00
C267   C     0.86740   0.50364   0.15303   0.00000  Uiso   1.00
C268   C     0.95946   0.55717   0.02684   0.00000  Uiso   1.00
C269   C     0.88794   0.51162   0.09815   0.00000  Uiso   1.00
C270   C     0.71757   0.46393   0.42704   0.00000  Uiso   1.00
C271   C     0.70051   0.45865   0.47966   0.00000  Uiso   1.00
C272   C     0.80613   0.50004   0.48895   0.00000  Uiso   1.00
C273   C     0.74377   0.47562   0.01004   0.00000  Uiso   1.00
C274   C     0.82142   0.51352   0.43693   0.00000  Uiso   1.00
C275   C     0.85339   0.51269   0.01848   0.00000  Uiso   1.00
C276   C     0.91290   0.54366   0.49778   0.00000  Uiso   1.00
C277   C     0.92464   0.56184   0.44880   0.00000  Uiso   1.00
C278   C     0.87958   0.54752   0.41932   0.00000  Uiso   1.00
C279   C     0.84336   0.49509   0.06804   0.00000  Uiso   1.00
C280   C     0.94681   0.54164   0.07709   0.00000  Uiso   1.00
Cl281  Cl    0.76713   0.64823   0.19830   0.00000  Uiso   1.00
Cu282  Cu    0.77377   0.49439   0.24435   0.00000  Uiso   1.00
Cu283  Cu    0.89290   0.50561   0.25564   0.00000  Uiso   1.00
H284   H     0.98185   0.55478   0.09995   0.00000  Uiso   1.00
H285   H     0.95392   0.36000   0.43614   0.00000  Uiso   1.00
H286   H     0.96070   0.63744   0.31957   0.00000  Uiso   1.00
H287   H     0.67011   0.53879   0.28963   0.00000  Uiso   1.00
H288   H     0.99685   0.46183   0.20982   0.00000  Uiso   1.00
H289   H     0.96903   0.58718   0.43299   0.00000  Uiso   1.00
H290   H     0.67167   0.58094   0.01113   0.00000  Uiso   1.00
H291   H     0.80055   0.46889   0.08473   0.00000  Uiso   1.00
H292   H     0.72642   0.46956   0.05027   0.00000  Uiso   1.00
H293   H     0.98696   0.43903   0.49768   0.00000  Uiso   1.00
H294   H     0.89114   0.56461   0.38292   0.00000  Uiso   1.00
N295   N     0.98241   0.51407   0.26416   0.00000  Uiso   1.00
N296   N     0.68426   0.48593   0.23584   0.00000  Uiso   1.00
O297   O     0.79464   0.57141   0.24633   0.00000  Uiso   1.00
O298   O     0.69652   0.39568   0.35143   0.00000  Uiso   1.00
O299   O     0.93649   0.38986   0.42981   0.00000  Uiso   1.00
O300   O     0.95742   0.38405   0.27648   0.00000  Uiso   1.00
O301   O     0.86293   0.38564   0.34393   0.00000  Uiso   1.00
O302   O     0.91810   0.64152   0.33815   0.00000  Uiso   1.00
O303   O     0.89524   0.58089   0.25586   0.00000  Uiso   1.00
O304   O     0.75848   0.49293   0.31840   0.00000  Uiso   1.00
O305   O     0.85908   0.50241   0.32793   0.00000  Uiso   1.00
O306   O     0.77142   0.41911   0.24413   0.00000  Uiso   1.00
O307   O     0.87203   0.42859   0.25367   0.00000  Uiso   1.00
O308   O     0.80758   0.49759   0.17207   0.00000  Uiso   1.00
O309   O     0.90819   0.50707   0.18160   0.00000  Uiso   1.00
O310   O     0.97004   0.46560   0.36747   0.00000  Uiso   1.00
S311   S     0.99652   0.42858   0.39192   0.00000  Uiso   1.00
S312   S     0.89807   0.35163   0.30597   0.00000  Uiso   1.00
C313   C     0.18053   0.93306   0.25317   0.00000  Uiso   1.00
C314   C     0.11152   0.82628   0.40440   0.00000  Uiso   1.00
C315   C     0.18381   0.98772   0.26244   0.00000  Uiso   1.00
C316   C     0.13257   0.83030   0.34762   0.00000  Uiso   1.00
C317   C     0.14812   0.67865   0.24148   0.00000  Uiso   1.00
C318   C     0.15232   0.73357   0.24815   0.00000  Uiso   1.00
C319   C     0.20073   0.83697   0.15303   0.00000  Uiso   1.00
C320   C     0.29280   0.89050   0.02684   0.00000  Uiso   1.00
C321   C     0.22127   0.84495   0.09815   0.00000  Uiso   1.00
C322   C     0.05091   0.79727   0.42704   0.00000  Uiso   1.00
C323   C     0.03384   0.79198   0.47966   0.00000  Uiso   1.00
C324   C     0.13946   0.83337   0.48895   0.00000  Uiso   1.00
C325   C     0.07710   0.80895   0.01004   0.00000  Uiso   1.00
C326   C     0.15475   0.84686   0.43693   0.00000  Uiso   1.00
C327   C     0.18672   0.84602   0.01848   0.00000  Uiso   1.00
C328   C     0.24623   0.87699   0.49778   0.00000  Uiso   1.00
C329   C     0.25797   0.89517   0.44880   0.00000  Uiso   1.00
C330   C     0.21291   0.88086   0.41932   0.00000  Uiso   1.00
C331   C     0.17670   0.82842   0.06804   0.00000  Uiso   1.00
C332   C     0.28015   0.87497   0.07709   0.00000  Uiso   1.00
Cl333  Cl    0.10047   0.98156   0.19830   0.00000  Uiso   1.00
Cu334  Cu    0.10710   0.82772   0.24435   0.00000  Uiso   1.00
Cu335  Cu    0.22623   0.83895   0.25564   0.00000  Uiso   1.00
H336   H     0.31519   0.88812   0.09995   0.00000  Uiso   1.00
H337   H     0.28725   0.69333   0.43614   0.00000  Uiso   1.00
H338   H     0.29403   0.97077   0.31957   0.00000  Uiso   1.00
H339   H     0.00344   0.87213   0.28963   0.00000  Uiso   1.00
H340   H     0.33018   0.79516   0.20982   0.00000  Uiso   1.00
H341   H     0.30236   0.92052   0.43299   0.00000  Uiso   1.00
H342   H     0.00500   0.91427   0.01113   0.00000  Uiso   1.00
H343   H     0.13389   0.80222   0.08473   0.00000  Uiso   1.00
H344   H     0.05975   0.80289   0.05027   0.00000  Uiso   1.00
H345   H     0.32029   0.77236   0.49768   0.00000  Uiso   1.00
H346   H     0.22447   0.89795   0.38292   0.00000  Uiso   1.00
N347   N     0.31574   0.84741   0.26416   0.00000  Uiso   1.00
N348   N     0.01759   0.81926   0.23584   0.00000  Uiso   1.00
O349   O     0.12797   0.90474   0.24633   0.00000  Uiso   1.00
O350   O     0.02986   0.72901   0.35143   0.00000  Uiso   1.00
O351   O     0.26982   0.72320   0.42981   0.00000  Uiso   1.00
O352   O     0.29075   0.71739   0.27648   0.00000  Uiso   1.00
O353   O     0.19626   0.71898   0.34393   0.00000  Uiso   1.00
O354   O     0.25143   0.97485   0.33815   0.00000  Uiso   1.00
O355   O     0.22858   0.91422   0.25586   0.00000  Uiso   1.00
O356   O     0.09181   0.82627   0.31840   0.00000  Uiso   1.00
O357   O     0.19242   0.83575   0.32793   0.00000  Uiso   1.00
O358   O     0.10476   0.75245   0.24413   0.00000  Uiso   1.00
O359   O     0.20536   0.76193   0.25367   0.00000  Uiso   1.00
O360   O     0.14092   0.83092   0.17207   0.00000  Uiso   1.00
O361   O     0.24152   0.84040   0.18160   0.00000  Uiso   1.00
O362   O     0.30337   0.79894   0.36747   0.00000  Uiso   1.00
S363   S     0.32985   0.76191   0.39192   0.00000  Uiso   1.00
S364   S     0.23140   0.68496   0.30597   0.00000  Uiso   1.00
C365   C     0.51386   0.93306   0.25317   0.00000  Uiso   1.00
C366   C     0.44485   0.82628   0.40440   0.00000  Uiso   1.00
C367   C     0.51714   0.98772   0.26244   0.00000  Uiso   1.00
C368   C     0.46590   0.83030   0.34762   0.00000  Uiso   1.00
C369   C     0.48146   0.67865   0.24148   0.00000  Uiso   1.00
C370   C     0.48565   0.73357   0.24815   0.00000  Uiso   1.00
C371   C     0.53406   0.83697   0.15303   0.00000  Uiso   1.00
C372   C     0.62613   0.89050   0.02684   0.00000  Uiso   1.00
C373   C     0.55461   0.84495   0.09815   0.00000  Uiso   1.00
C374   C     0.38424   0.79727   0.42704   0.00000  Uiso   1.00
C375   C     0.36718   0.79198   0.47966   0.00000  Uiso   1.00
C376   C     0.47280   0.83337   0.48895   0.00000  Uiso   1.00
C377   C     0.41043   0.80895   0.01004   0.00000  Uiso   1.00
C378   C     0.48808   0.84686   0.43693   0.00000  Uiso   1.00
C379   C     0.52005   0.84602   0.01848   0.00000  Uiso   1.00
C380   C     0.57956   0.87699   0.49778   0.00000  Uiso   1.00
C381   C     0.59130   0.89517   0.44880   0.00000  Uiso   1.00
C382   C     0.54624   0.88086   0.41932   0.00000  Uiso   1.00
C383   C     0.51003   0.82842   0.06804   0.00000  Uiso   1.00
C384   C     0.61348   0.87497   0.07709   0.00000  Uiso   1.00
Cl385  Cl    0.43380   0.98156   0.19830   0.00000  Uiso   1.00
Cu386  Cu    0.44043   0.82772   0.24435   0.00000  Uiso   1.00
Cu387  Cu    0.55957   0.83895   0.25564   0.00000  Uiso   1.00
H388   H     0.64852   0.88812   0.09995   0.00000  Uiso   1.00
H389   H     0.62059   0.69333   0.43614   0.00000  Uiso   1.00
H390   H     0.62737   0.97077   0.31957   0.00000  Uiso   1.00
H391   H     0.33678   0.87213   0.28963   0.00000  Uiso   1.00
H392   H     0.66352   0.79516   0.20982   0.00000  Uiso   1.00
H393   H     0.63569   0.92052   0.43299   0.00000  Uiso   1.00
H394   H     0.33834   0.91427   0.01113   0.00000  Uiso   1.00
H395   H     0.46722   0.80222   0.08473   0.00000  Uiso   1.00
H396   H     0.39309   0.80289   0.05027   0.00000  Uiso   1.00
H397   H     0.65362   0.77236   0.49768   0.00000  Uiso   1.00
H398   H     0.55781   0.89795   0.38292   0.00000  Uiso   1.00
N399   N     0.64908   0.84741   0.26416   0.00000  Uiso   1.00
N400   N     0.35092   0.81926   0.23584   0.00000  Uiso   1.00
O401   O     0.46131   0.90474   0.24633   0.00000  Uiso   1.00
O402   O     0.36319   0.72901   0.35143   0.00000  Uiso   1.00
O403   O     0.60316   0.72320   0.42981   0.00000  Uiso   1.00
O404   O     0.62408   0.71739   0.27648   0.00000  Uiso   1.00
O405   O     0.52959   0.71898   0.34393   0.00000  Uiso   1.00
O406   O     0.58476   0.97485   0.33815   0.00000  Uiso   1.00
O407   O     0.56191   0.91422   0.25586   0.00000  Uiso   1.00
O408   O     0.42515   0.82627   0.31840   0.00000  Uiso   1.00
O409   O     0.52575   0.83575   0.32793   0.00000  Uiso   1.00
O410   O     0.43809   0.75245   0.24413   0.00000  Uiso   1.00
O411   O     0.53869   0.76193   0.25367   0.00000  Uiso   1.00
O412   O     0.47425   0.83092   0.17207   0.00000  Uiso   1.00
O413   O     0.57485   0.84040   0.18160   0.00000  Uiso   1.00
O414   O     0.63670   0.79894   0.36747   0.00000  Uiso   1.00
S415   S     0.66319   0.76191   0.39192   0.00000  Uiso   1.00
S416   S     0.56474   0.68496   0.30597   0.00000  Uiso   1.00
C417   C     0.84720   0.93306   0.25317   0.00000  Uiso   1.00
C418   C     0.77819   0.82628   0.40440   0.00000  Uiso   1.00
C419   C     0.85048   0.98772   0.26244   0.00000  Uiso   1.00
C420   C     0.79924   0.83030   0.34762   0.00000  Uiso   1.00
C421   C     0.81479   0.67865   0.24148   0.00000  Uiso   1.00
C422   C     0.81898   0.73357   0.24815   0.00000  Uiso   1.00
C423   C     0.86740   0.83697   0.15303   0.00000  Uiso   1.00
C424   C     0.95946   0.89050   0.02684   0.00000  Uiso   1.00
C425   C     0.88794   0.84495   0.09815   0.00000  Uiso   1.00
C426   C     0.71757   0.79727   0.42704   0.00000  Uiso   1.00
C427   C     0.70051   0.79198   0.47966   0.00000  Uiso   1.00
C428   C     0.80613   0.83337   0.48895   0.00000  Uiso   1.00
C429   C     0.74377   0.80895   0.01004   0.00000  Uiso   1.00
C430   C     0.82142   0.84686   0.43693   0.00000  Uiso   1.00
C431   C     0.85339   0.84602   0.01848   0.00000  Uiso   1.00
C432   C     0.91290   0.87699   0.49778   0.00000  Uiso   1.00
C433   C     0.92464   0.89517   0.44880   0.00000  Uiso   1.00
C434   C     0.87958   0.88086   0.41932   0.00000  Uiso   1.00
C435   C     0.84336   0.82842   0.06804   0.00000  Uiso   1.00
C436   C     0.94681   0.87497   0.07709   0.00000  Uiso   1.00
Cl437  Cl    0.76713   0.98156   0.19830   0.00000  Uiso   1.00
Cu438  Cu    0.77377   0.82772   0.24435   0.00000  Uiso   1.00
Cu439  Cu    0.89290   0.83895   0.25564   0.00000  Uiso   1.00
H440   H     0.98185   0.88812   0.09995   0.00000  Uiso   1.00
H441   H     0.95392   0.69333   0.43614   0.00000  Uiso   1.00
H442   H     0.96070   0.97077   0.31957   0.00000  Uiso   1.00
H443   H     0.67011   0.87213   0.28963   0.00000  Uiso   1.00
H444   H     0.99685   0.79516   0.20982   0.00000  Uiso   1.00
H445   H     0.96903   0.92052   0.43299   0.00000  Uiso   1.00
H446   H     0.67167   0.91427   0.01113   0.00000  Uiso   1.00
H447   H     0.80055   0.80222   0.08473   0.00000  Uiso   1.00
H448   H     0.72642   0.80289   0.05027   0.00000  Uiso   1.00
H449   H     0.98696   0.77236   0.49768   0.00000  Uiso   1.00
H450   H     0.89114   0.89795   0.38292   0.00000  Uiso   1.00
N451   N     0.98241   0.84741   0.26416   0.00000  Uiso   1.00
N452   N     0.68426   0.81926   0.23584   0.00000  Uiso   1.00
O453   O     0.79464   0.90474   0.24633   0.00000  Uiso   1.00
O454   O     0.69652   0.72901   0.35143   0.00000  Uiso   1.00
O455   O     0.93649   0.72320   0.42981   0.00000  Uiso   1.00
O456   O     0.95742   0.71739   0.27648   0.00000  Uiso   1.00
O457   O     0.86293   0.71898   0.34393   0.00000  Uiso   1.00
O458   O     0.91810   0.97485   0.33815   0.00000  Uiso   1.00
O459   O     0.89524   0.91422   0.25586   0.00000  Uiso   1.00
O460   O     0.75848   0.82627   0.31840   0.00000  Uiso   1.00
O461   O     0.85908   0.83575   0.32793   0.00000  Uiso   1.00
O462   O     0.77142   0.75245   0.24413   0.00000  Uiso   1.00
O463   O     0.87203   0.76193   0.25367   0.00000  Uiso   1.00
O464   O     0.80758   0.83092   0.17207   0.00000  Uiso   1.00
O465   O     0.90819   0.84040   0.18160   0.00000  Uiso   1.00
O466   O     0.97004   0.79894   0.36747   0.00000  Uiso   1.00
S467   S     0.99652   0.76191   0.39192   0.00000  Uiso   1.00
S468   S     0.89807   0.68496   0.30597   0.00000  Uiso   1.00
C469   C     0.18053   0.26639   0.75317   0.00000  Uiso   1.00
C470   C     0.11152   0.15961   0.90440   0.00000  Uiso   1.00
C471   C     0.18381   0.32106   0.76244   0.00000  Uiso   1.00
C472   C     0.13257   0.16363   0.84762   0.00000  Uiso   1.00
C473   C     0.14812   0.01199   0.74148   0.00000  Uiso   1.00
C474   C     0.15232   0.06691   0.74815   0.00000  Uiso   1.00
C475   C     0.20073   0.17030   0.65303   0.00000  Uiso   1.00
C476   C     0.29280   0.22384   0.52684   0.00000  Uiso   1.00
C477   C     0.22127   0.17829   0.59815   0.00000  Uiso   1.00
C478   C     0.05091   0.13060   0.92704   0.00000  Uiso   1.00
C479   C     0.03384   0.12532   0.97966   0.00000  Uiso   1.00
C480   C     0.13946   0.16671   0.98895   0.00000  Uiso   1.00
C481   C     0.07710   0.14229   0.51004   0.00000  Uiso   1.00
C482   C     0.15475   0.18019   0.93693   0.00000  Uiso   1.00
C483   C     0.18672   0.17936   0.51848   0.00000  Uiso   1.00
C484   C     0.24623   0.21032   0.99778   0.00000  Uiso   1.00
C485   C     0.25797   0.22851   0.94880   0.00000  Uiso   1.00
C486   C     0.21291   0.21419   0.91932   0.00000  Uiso   1.00
C487   C     0.17670   0.16175   0.56804   0.00000  Uiso   1.00
C488   C     0.28015   0.20830   0.57709   0.00000  Uiso   1.00
Cl489  Cl    0.10047   0.31490   0.69830   0.00000  Uiso   1.00
Cu490  Cu    0.10710   0.16105   0.74435   0.00000  Uiso   1.00
Cu491  Cu    0.22623   0.17228   0.75564   0.00000  Uiso   1.00
H492   H     0.31519   0.22145   0.59995   0.00000  Uiso   1.00
H493   H     0.28725   0.02666   0.93614   0.00000  Uiso   1.00
H494   H     0.29403   0.30411   0.81957   0.00000  Uiso   1.00
H495   H     0.00344   0.20546   0.78963   0.00000  Uiso   1.00
H496   H     0.33018   0.12849   0.70982   0.00000  Uiso   1.00
H497   H     0.30236   0.25385   0.93299   0.00000  Uiso   1.00
H498   H     0.00500   0.24760   0.51113   0.00000  Uiso   1.00
H499   H     0.13389   0.13556   0.58473   0.00000  Uiso   1.00
H500   H     0.05975   0.13622   0.55027   0.00000  Uiso   1.00
H501   H     0.32029   0.10569   0.99768   0.00000  Uiso   1.00
H502   H     0.22447   0.23128   0.88292   0.00000  Uiso   1.00
N503   N     0.31574   0.18074   0.76416   0.00000  Uiso   1.00
N504   N     0.01759   0.15259   0.73584   0.00000  Uiso   1.00
O505   O     0.12797   0.23807   0.74633   0.00000  Uiso   1.00
O506   O     0.02986   0.06234   0.85143   0.00000  Uiso   1.00
O507   O     0.26982   0.05653   0.92981   0.00000  Uiso   1.00
O508   O     0.29075   0.05072   0.77648   0.00000  Uiso   1.00
O509   O     0.19626   0.05231   0.84393   0.00000  Uiso   1.00
O510   O     0.25143   0.30819   0.83815   0.00000  Uiso   1.00
O511   O     0.22858   0.24755   0.75586   0.00000  Uiso   1.00
O512   O     0.09181   0.15960   0.81840   0.00000  Uiso   1.00
O513   O     0.19242   0.16908   0.82793   0.00000  Uiso   1.00
O514   O     0.10476   0.08578   0.74413   0.00000  Uiso   1.00
O515   O     0.20536   0.09526   0.75367   0.00000  Uiso   1.00
O516   O     0.14092   0.16425   0.67207   0.00000  Uiso   1.00
O517   O     0.24152   0.17373   0.68160   0.00000  Uiso   1.00
O518   O     0.30337   0.13227   0.86747   0.00000  Uiso   1.00
S519   S     0.32985   0.09525   0.89192   0.00000  Uiso   1.00
S520   S     0.23140   0.01829   0.80597   0.00000  Uiso   1.00
C521   C     0.51386   0.26639   0.75317   0.00000  Uiso   1.00
C522   C     0.44485   0.15961   0.90440   0.00000  Uiso   1.00
C523   C     0.51714   0.32106   0.76244   0.00000  Uiso   1.00
C524   C     0.46590   0.16363   0.84762   0.00000  Uiso   1.00
C525   C     0.48146   0.01199   0.74148   0.00000  Uiso   1.00
C526   C     0.48565   0.06691   0.74815   0.00000  Uiso   1.00
C527   C     0.53406   0.17030   0.65303   0.00000  Uiso   1.00
C528   C     0.62613   0.22384   0.52684   0.00000  Uiso   1.00
C529   C     0.55461   0.17829   0.59815   0.00000  Uiso   1.00
C530   C     0.38424   0.13060   0.92704   0.00000  Uiso   1.00
C531   C     0.36718   0.12532   0.97966   0.00000  Uiso   1.00
C532   C     0.47280   0.16671   0.98895   0.00000  Uiso   1.00
C533   C     0.41043   0.14229   0.51004   0.00000  Uiso   1.00
C534   C     0.48808   0.18019   0.93693   0.00000  Uiso   1.00
C535   C     0.52005   0.17936   0.51848   0.00000  Uiso   1.00
C536   C     0.57956   0.21032   0.99778   0.00000  Uiso   1.00
C537   C     0.59130   0.22851   0.94880   0.00000  Uiso   1.00
C538   C     0.54624   0.21419   0.91932   0.00000  Uiso   1.00
C539   C     0.51003   0.16175   0.56804   0.00000  Uiso   1.00
C540   C     0.61348   0.20830   0.57709   0.00000  Uiso   1.00
Cl541  Cl    0.43380   0.31490   0.69830   0.00000  Uiso   1.00
Cu542  Cu    0.44043   0.16105   0.74435   0.00000  Uiso   1.00
Cu543  Cu    0.55957   0.17228   0.75564   0.00000  Uiso   1.00
H544   H     0.64852   0.22145   0.59995   0.00000  Uiso   1.00
H545   H     0.62059   0.02666   0.93614   0.00000  Uiso   1.00
H546   H     0.62737   0.30411   0.81957   0.00000  Uiso   1.00
H547   H     0.33678   0.20546   0.78963   0.00000  Uiso   1.00
H548   H     0.66352   0.12849   0.70982   0.00000  Uiso   1.00
H549   H     0.63569   0.25385   0.93299   0.00000  Uiso   1.00
H550   H     0.33834   0.24760   0.51113   0.00000  Uiso   1.00
H551   H     0.46722   0.13556   0.58473   0.00000  Uiso   1.00
H552   H     0.39309   0.13622   0.55027   0.00000  Uiso   1.00
H553   H     0.65362   0.10569   0.99768   0.00000  Uiso   1.00
H554   H     0.55781   0.23128   0.88292   0.00000  Uiso   1.00
N555   N     0.64908   0.18074   0.76416   0.00000  Uiso   1.00
N556   N     0.35092   0.15259   0.73584   0.00000  Uiso   1.00
O557   O     0.46131   0.23807   0.74633   0.00000  Uiso   1.00
O558   O     0.36319   0.06234   0.85143   0.00000  Uiso   1.00
O559   O     0.60316   0.05653   0.92981   0.00000  Uiso   1.00
O560   O     0.62408   0.05072   0.77648   0.00000  Uiso   1.00
O561   O     0.52959   0.05231   0.84393   0.00000  Uiso   1.00
O562   O     0.58476   0.30819   0.83815   0.00000  Uiso   1.00
O563   O     0.56191   0.24755   0.75586   0.00000  Uiso   1.00
O564   O     0.42515   0.15960   0.81840   0.00000  Uiso   1.00
O565   O     0.52575   0.16908   0.82793   0.00000  Uiso   1.00
O566   O     0.43809   0.08578   0.74413   0.00000  Uiso   1.00
O567   O     0.53869   0.09526   0.75367   0.00000  Uiso   1.00
O568   O     0.47425   0.16425   0.67207   0.00000  Uiso   1.00
O569   O     0.57485   0.17373   0.68160   0.00000  Uiso   1.00
O570   O     0.63670   0.13227   0.86747   0.00000  Uiso   1.00
S571   S     0.66319   0.09525   0.89192   0.00000  Uiso   1.00
S572   S     0.56474   0.01829   0.80597   0.00000  Uiso   1.00
C573   C     0.84720   0.26639   0.75317   0.00000  Uiso   1.00
C574   C     0.77819   0.15961   0.90440   0.00000  Uiso   1.00
C575   C     0.85048   0.32106   0.76244   0.00000  Uiso   1.00
C576   C     0.79924   0.16363   0.84762   0.00000  Uiso   1.00
C577   C     0.81479   0.01199   0.74148   0.00000  Uiso   1.00
C578   C     0.81898   0.06691   0.74815   0.00000  Uiso   1.00
C579   C     0.86740   0.17030   0.65303   0.00000  Uiso   1.00
C580   C     0.95946   0.22384   0.52684   0.00000  Uiso   1.00
C581   C     0.88794   0.17829   0.59815   0.00000  Uiso   1.00
C582   C     0.71757   0.13060   0.92704   0.00000  Uiso   1.00
C583   C     0.70051   0.12532   0.97966   0.00000  Uiso   1.00
C584   C     0.80613   0.16671   0.98895   0.00000  Uiso   1.00
C585   C     0.74377   0.14229   0.51004   0.00000  Uiso   1.00
C586   C     0.82142   0.18019   0.93693   0.00000  Uiso   1.00
C587   C     0.85339   0.17936   0.51848   0.00000  Uiso   1.00
C588   C     0.91290   0.21032   0.99778   0.00000  Uiso   1.00
C589   C     0.92464   0.22851   0.94880   0.00000  Uiso   1.00
C590   C     0.87958   0.21419   0.91932   0.00000  Uiso   1.00
C591   C     0.84336   0.16175   0.56804   0.00000  Uiso   1.00
C592   C     0.94681   0.20830   0.57709   0.00000  Uiso   1.00
Cl593  Cl    0.76713   0.31490   0.69830   0.00000  Uiso   1.00
Cu594  Cu    0.77377   0.16105   0.74435   0.00000  Uiso   1.00
Cu595  Cu    0.89290   0.17228   0.75564   0.00000  Uiso   1.00
H596   H     0.98185   0.22145   0.59995   0.00000  Uiso   1.00
H597   H     0.95392   0.02666   0.93614   0.00000  Uiso   1.00
H598   H     0.96070   0.30411   0.81957   0.00000  Uiso   1.00
H599   H     0.67011   0.20546   0.78963   0.00000  Uiso   1.00
H600   H     0.99685   0.12849   0.70982   0.00000  Uiso   1.00
H601   H     0.96903   0.25385   0.93299   0.00000  Uiso   1.00
H602   H     0.67167   0.24760   0.51113   0.00000  Uiso   1.00
H603   H     0.80055   0.13556   0.58473   0.00000  Uiso   1.00
H604   H     0.72642   0.13622   0.55027   0.00000  Uiso   1.00
H605   H     0.98696   0.10569   0.99768   0.00000  Uiso   1.00
H606   H     0.89114   0.23128   0.88292   0.00000  Uiso   1.00
N607   N     0.98241   0.18074   0.76416   0.00000  Uiso   1.00
N608   N     0.68426   0.15259   0.73584   0.00000  Uiso   1.00
O609   O     0.79464   0.23807   0.74633   0.00000  Uiso   1.00
O610   O     0.69652   0.06234   0.85143   0.00000  Uiso   1.00
O611   O     0.93649   0.05653   0.92981   0.00000  Uiso   1.00
O612   O     0.95742   0.05072   0.77648   0.00000  Uiso   1.00
O613   O     0.86293   0.05231   0.84393   0.00000  Uiso   1.00
O614   O     0.91810   0.30819   0.83815   0.00000  Uiso   1.00
O615   O     0.89524   0.24755   0.75586   0.00000  Uiso   1.00
O616   O     0.75848   0.15960   0.81840   0.00000  Uiso   1.00
O617   O     0.85908   0.16908   0.82793   0.00000  Uiso   1.00
O618   O     0.77142   0.08578   0.74413   0.00000  Uiso   1.00
O619   O     0.87203   0.09526   0.75367   0.00000  Uiso   1.00
O620   O     0.80758   0.16425   0.67207   0.00000  Uiso   1.00
O621   O     0.90819   0.17373   0.68160   0.00000  Uiso   1.00
O622   O     0.97004   0.13227   0.86747   0.00000  Uiso   1.00
S623   S     0.99652   0.09525   0.89192   0.00000  Uiso   1.00
S624   S     0.89807   0.01829   0.80597   0.00000  Uiso   1.00
C625   C     0.18053   0.59972   0.75317   0.00000  Uiso   1.00
C626   C     0.11152   0.49295   0.90440   0.00000  Uiso   1.00
C627   C     0.18381   0.65439   0.76244   0.00000  Uiso   1.00
C628   C     0.13257   0.49696   0.84762   0.00000  Uiso   1.00
C629   C     0.14812   0.34532   0.74148   0.00000  Uiso   1.00
C630   C     0.15232   0.40024   0.74815   0.00000  Uiso   1.00
C631   C     0.20073   0.50364   0.65303   0.00000  Uiso   1.00
C632   C     0.29280   0.55717   0.52684   0.00000  Uiso   1.00
C633   C     0.22127   0.51162   0.59815   0.00000  Uiso   1.00
C634   C     0.05091   0.46393   0.92704   0.00000  Uiso   1.00
C635   C     0.03384   0.45865   0.97966   0.00000  Uiso   1.00
C636   C     0.13946   0.50004   0.98895   0.00000  Uiso   1.00
C637   C     0.07710   0.47562   0.51004   0.00000  Uiso   1.00
C638   C     0.15475   0.51352   0.93693   0.00000  Uiso   1.00
C639   C     0.18672   0.51269   0.51848   0.00000  Uiso   1.00
C640   C     0.24623   0.54366   0.99778   0.00000  Uiso   1.00
C641   C     0.25797   0.56184   0.94880   0.00000  Uiso   1.00
C642   C     0.21291   0.54752   0.91932   0.00000  Uiso   1.00
C643   C     0.17670   0.49509   0.56804   0.00000  Uiso   1.00
C644   C     0.28015   0.54164   0.57709   0.00000  Uiso   1.00
Cl645  Cl    0.10047   0.64823   0.69830   0.00000  Uiso   1.00
Cu646  Cu    0.10710   0.49439   0.74435   0.00000  Uiso   1.00
Cu647  Cu    0.22623   0.50561   0.75564   0.00000  Uiso   1.00
H648   H     0.31519   0.55478   0.59995   0.00000  Uiso   1.00
H649   H     0.28725   0.36000   0.93614   0.00000  Uiso   1.00
H650   H     0.29403   0.63744   0.81957   0.00000  Uiso   1.00
H651   H     0.00344   0.53879   0.78963   0.00000  Uiso   1.00
H652   H     0.33018   0.46183   0.70982   0.00000  Uiso   1.00
H653   H     0.30236   0.58718   0.93299   0.00000  Uiso   1.00
H654   H     0.00500   0.58094   0.51113   0.00000  Uiso   1.00
H655   H     0.13389   0.46889   0.58473   0.00000  Uiso   1.00
H656   H     0.05975   0.46956   0.55027   0.00000  Uiso   1.00
H657   H     0.32029   0.43903   0.99768   0.00000  Uiso   1.00
H658   H     0.22447   0.56461   0.88292   0.00000  Uiso   1.00
N659   N     0.31574   0.51407   0.76416   0.00000  Uiso   1.00
N660   N     0.01759   0.48593   0.73584   0.00000  Uiso   1.00
O661   O     0.12797   0.57141   0.74633   0.00000  Uiso   1.00
O662   O     0.02986   0.39568   0.85143   0.00000  Uiso   1.00
O663   O     0.26982   0.38986   0.92981   0.00000  Uiso   1.00
O664   O     0.29075   0.38405   0.77648   0.00000  Uiso   1.00
O665   O     0.19626   0.38564   0.84393   0.00000  Uiso   1.00
O666   O     0.25143   0.64152   0.83815   0.00000  Uiso   1.00
O667   O     0.22858   0.58089   0.75586   0.00000  Uiso   1.00
O668   O     0.09181   0.49293   0.81840   0.00000  Uiso   1.00
O669   O     0.19242   0.50241   0.82793   0.00000  Uiso   1.00
O670   O     0.10476   0.41911   0.74413   0.00000  Uiso   1.00
O671   O     0.20536   0.42859   0.75367   0.00000  Uiso   1.00
O672   O     0.14092   0.49759   0.67207   0.00000  Uiso   1.00
O673   O     0.24152   0.50707   0.68160   0.00000  Uiso   1.00
O674   O     0.30337   0.46560   0.86747   0.00000  Uiso   1.00
S675   S     0.32985   0.42858   0.89192   0.00000  Uiso   1.00
S676   S     0.23140   0.35163   0.80597   0.00000  Uiso   1.00
C677   C     0.51386   0.59972   0.75317   0.00000  Uiso   1.00
C678   C     0.44485   0.49295   0.90440   0.00000  Uiso   1.00
C679   C     0.51714   0.65439   0.76244   0.00000  Uiso   1.00
C680   C     0.46590   0.49696   0.84762   0.00000  Uiso   1.00
C681   C     0.48146   0.34532   0.74148   0.00000  Uiso   1.00
C682   C     0.48565   0.40024   0.74815   0.00000  Uiso   1.00
C683   C     0.53406   0.50364   0.65303   0.00000  Uiso   1.00
C684   C     0.62613   0.55717   0.52684   0.00000  Uiso   1.00
C685   C     0.55461   0.51162   0.59815   0.00000  Uiso   1.00
C686   C     0.38424   0.46393   0.92704   0.00000  Uiso   1.00
C687   C     0.36718   0.45865   0.97966   0.00000  Uiso   1.00
C688   C     0.47280   0.50004   0.98895   0.00000  Uiso   1.00
C689   C     0.41043   0.47562   0.51004   0.00000  Uiso   1.00
C690   C     0.48808   0.51352   0.93693   0.00000  Uiso   1.00
C691   C     0.52005   0.51269   0.51848   0.00000  Uiso   1.00
C692   C     0.57956   0.54366   0.99778   0.00000  Uiso   1.00
C693   C     0.59130   0.56184   0.94880   0.00000  Uiso   1.00
C694   C     0.54624   0.54752   0.91932   0.00000  Uiso   1.00
C695   C     0.51003   0.49509   0.56804   0.00000  Uiso   1.00
C696   C     0.61348   0.54164   0.57709   0.00000  Uiso   1.00
Cl697  Cl    0.43380   0.64823   0.69830   0.00000  Uiso   1.00
Cu698  Cu    0.44043   0.49439   0.74435   0.00000  Uiso   1.00
Cu699  Cu    0.55957   0.50561   0.75564   0.00000  Uiso   1.00
H700   H     0.64852   0.55478   0.59995   0.00000  Uiso   1.00
H701   H     0.62059   0.36000   0.93614   0.00000  Uiso   1.00
H702   H     0.62737   0.63744   0.81957   0.00000  Uiso   1.00
H703   H     0.33678   0.53879   0.78963   0.00000  Uiso   1.00
H704   H     0.66352   0.46183   0.70982   0.00000  Uiso   1.00
H705   H     0.63569   0.58718   0.93299   0.00000  Uiso   1.00
H706   H     0.33834   0.58094   0.51113   0.00000  Uiso   1.00
H707   H     0.46722   0.46889   0.58473   0.00000  Uiso   1.00
H708   H     0.39309   0.46956   0.55027   0.00000  Uiso   1.00
H709   H     0.65362   0.43903   0.99768   0.00000  Uiso   1.00
H710   H     0.55781   0.56461   0.88292   0.00000  Uiso   1.00
N711   N     0.64908   0.51407   0.76416   0.00000  Uiso   1.00
N712   N     0.35092   0.48593   0.73584   0.00000  Uiso   1.00
O713   O     0.46131   0.57141   0.74633   0.00000  Uiso   1.00
O714   O     0.36319   0.39568   0.85143   0.00000  Uiso   1.00
O715   O     0.60316   0.38986   0.92981   0.00000  Uiso   1.00
O716   O     0.62408   0.38405   0.77648   0.00000  Uiso   1.00
O717   O     0.52959   0.38564   0.84393   0.00000  Uiso   1.00
O718   O     0.58476   0.64152   0.83815   0.00000  Uiso   1.00
O719   O     0.56191   0.58089   0.75586   0.00000  Uiso   1.00
O720   O     0.42515   0.49293   0.81840   0.00000  Uiso   1.00
O721   O     0.52575   0.50241   0.82793   0.00000  Uiso   1.00
O722   O     0.43809   0.41911   0.74413   0.00000  Uiso   1.00
O723   O     0.53869   0.42859   0.75367   0.00000  Uiso   1.00
O724   O     0.47425   0.49759   0.67207   0.00000  Uiso   1.00
O725   O     0.57485   0.50707   0.68160   0.00000  Uiso   1.00
O726   O     0.63670   0.46560   0.86747   0.00000  Uiso   1.00
S727   S     0.66319   0.42858   0.89192   0.00000  Uiso   1.00
S728   S     0.56474   0.35163   0.80597   0.00000  Uiso   1.00
C729   C     0.84720   0.59972   0.75317   0.00000  Uiso   1.00
C730   C     0.77819   0.49295   0.90440   0.00000  Uiso   1.00
C731   C     0.85048   0.65439   0.76244   0.00000  Uiso   1.00
C732   C     0.79924   0.49696   0.84762   0.00000  Uiso   1.00
C733   C     0.81479   0.34532   0.74148   0.00000  Uiso   1.00
C734   C     0.81898   0.40024   0.74815   0.00000  Uiso   1.00
C735   C     0.86740   0.50364   0.65303   0.00000  Uiso   1.00
C736   C     0.95946   0.55717   0.52684   0.00000  Uiso   1.00
C737   C     0.88794   0.51162   0.59815   0.00000  Uiso   1.00
C738   C     0.71757   0.46393   0.92704   0.00000  Uiso   1.00
C739   C     0.70051   0.45865   0.97966   0.00000  Uiso   1.00
C740   C     0.80613   0.50004   0.98895   0.00000  Uiso   1.00
C741   C     0.74377   0.47562   0.51004   0.00000  Uiso   1.00
C742   C     0.82142   0.51352   0.93693   0.00000  Uiso   1.00
C743   C     0.85339   0.51269   0.51848   0.00000  Uiso   1.00
C744   C     0.91290   0.54366   0.99778   0.00000  Uiso   1.00
C745   C     0.92464   0.56184   0.94880   0.00000  Uiso   1.00
C746   C     0.87958   0.54752   0.91932   0.00000  Uiso   1.00
C747   C     0.84336   0.49509   0.56804   0.00000  Uiso   1.00
C748   C     0.94681   0.54164   0.57709   0.00000  Uiso   1.00
Cl749  Cl    0.76713   0.64823   0.69830   0.00000  Uiso   1.00
Cu750  Cu    0.77377   0.49439   0.74435   0.00000  Uiso   1.00
Cu751  Cu    0.89290   0.50561   0.75564   0.00000  Uiso   1.00
H752   H     0.98185   0.55478   0.59995   0.00000  Uiso   1.00
H753   H     0.95392   0.36000   0.93614   0.00000  Uiso   1.00
H754   H     0.96070   0.63744   0.81957   0.00000  Uiso   1.00
H755   H     0.67011   0.53879   0.78963   0.00000  Uiso   1.00
H756   H     0.99685   0.46183   0.70982   0.00000  Uiso   1.00
H757   H     0.96903   0.58718   0.93299   0.00000  Uiso   1.00
H758   H     0.67167   0.58094   0.51113   0.00000  Uiso   1.00
H759   H     0.80055   0.46889   0.58473   0.00000  Uiso   1.00
H760   H     0.72642   0.46956   0.55027   0.00000  Uiso   1.00
H761   H     0.98696   0.43903   0.99768   0.00000  Uiso   1.00
H762   H     0.89114   0.56461   0.88292   0.00000  Uiso   1.00
N763   N     0.98241   0.51407   0.76416   0.00000  Uiso   1.00
N764   N     0.68426   0.48593   0.73584   0.00000  Uiso   1.00
O765   O     0.79464   0.57141   0.74633   0.00000  Uiso   1.00
O766   O     0.69652   0.39568   0.85143   0.00000  Uiso   1.00
O767   O     0.93649   0.38986   0.92981   0.00000  Uiso   1.00
O768   O     0.95742   0.38405   0.77648   0.00000  Uiso   1.00
O769   O     0.86293   0.38564   0.84393   0.00000  Uiso   1.00
O770   O     0.91810   0.64152   0.83815   0.00000  Uiso   1.00
O771   O     0.89524   0.58089   0.75586   0.00000  Uiso   1.00
O772   O     0.75848   0.49293   0.81840   0.00000  Uiso   1.00
O773   O     0.85908   0.50241   0.82793   0.00000  Uiso   1.00
O774   O     0.77142   0.41911   0.74413   0.00000  Uiso   1.00
O775   O     0.87203   0.42859   0.75367   0.00000  Uiso   1.00
O776   O     0.80758   0.49759   0.67207   0.00000  Uiso   1.00
O777   O     0.90819   0.50707   0.68160   0.00000  Uiso   1.00
O778   O     0.97004   0.46560   0.86747   0.00000  Uiso   1.00
S779   S     0.99652   0.42858   0.89192   0.00000  Uiso   1.00
S780   S     0.89807   0.35163   0.80597   0.00000  Uiso   1.00
C781   C     0.18053   0.93306   0.75317   0.00000  Uiso   1.00
C782   C     0.11152   0.82628   0.90440   0.00000  Uiso   1.00
C783   C     0.18381   0.98772   0.76244   0.00000  Uiso   1.00
C784   C     0.13257   0.83030   0.84762   0.00000  Uiso   1.00
C785   C     0.14812   0.67865   0.74148   0.00000  Uiso   1.00
C786   C     0.15232   0.73357   0.74815   0.00000  Uiso   1.00
C787   C     0.20073   0.83697   0.65303   0.00000  Uiso   1.00
C788   C     0.29280   0.89050   0.52684   0.00000  Uiso   1.00
C789   C     0.22127   0.84495   0.59815   0.00000  Uiso   1.00
C790   C     0.05091   0.79727   0.92704   0.00000  Uiso   1.00
C791   C     0.03384   0.79198   0.97966   0.00000  Uiso   1.00
C792   C     0.13946   0.83337   0.98895   0.00000  Uiso   1.00
C793   C     0.07710   0.80895   0.51004   0.00000  Uiso   1.00
C794   C     0.15475   0.84686   0.93693   0.00000  Uiso   1.00
C795   C     0.18672   0.84602   0.51848   0.00000  Uiso   1.00
C796   C     0.24623   0.87699   0.99778   0.00000  Uiso   1.00
C797   C     0.25797   0.89517   0.94880   0.00000  Uiso   1.00
C798   C     0.21291   0.88086   0.91932   0.00000  Uiso   1.00
C799   C     0.17670   0.82842   0.56804   0.00000  Uiso   1.00
C800   C     0.28015   0.87497   0.57709   0.00000  Uiso   1.00
Cl801  Cl    0.10047   0.98156   0.69830   0.00000  Uiso   1.00
Cu802  Cu    0.10710   0.82772   0.74435   0.00000  Uiso   1.00
Cu803  Cu    0.22623   0.83895   0.75564   0.00000  Uiso   1.00
H804   H     0.31519   0.88812   0.59995   0.00000  Uiso   1.00
H805   H     0.28725   0.69333   0.93614   0.00000  Uiso   1.00
H806   H     0.29403   0.97077   0.81957   0.00000  Uiso   1.00
H807   H     0.00344   0.87213   0.78963   0.00000  Uiso   1.00
H808   H     0.33018   0.79516   0.70982   0.00000  Uiso   1.00
H809   H     0.30236   0.92052   0.93299   0.00000  Uiso   1.00
H810   H     0.00500   0.91427   0.51113   0.00000  Uiso   1.00
H811   H     0.13389   0.80222   0.58473   0.00000  Uiso   1.00
H812   H     0.05975   0.80289   0.55027   0.00000  Uiso   1.00
H813   H     0.32029   0.77236   0.99768   0.00000  Uiso   1.00
H814   H     0.22447   0.89795   0.88292   0.00000  Uiso   1.00
N815   N     0.31574   0.84741   0.76416   0.00000  Uiso   1.00
N816   N     0.01759   0.81926   0.73584   0.00000  Uiso   1.00
O817   O     0.12797   0.90474   0.74633   0.00000  Uiso   1.00
O818   O     0.02986   0.72901   0.85143   0.00000  Uiso   1.00
O819   O     0.26982   0.72320   0.92981   0.00000  Uiso   1.00
O820   O     0.29075   0.71739   0.77648   0.00000  Uiso   1.00
O821   O     0.19626   0.71898   0.84393   0.00000  Uiso   1.00
O822   O     0.25143   0.97485   0.83815   0.00000  Uiso   1.00
O823   O     0.22858   0.91422   0.75586   0.00000  Uiso   1.00
O824   O     0.09181   0.82627   0.81840   0.00000  Uiso   1.00
O825   O     0.19242   0.83575   0.82793   0.00000  Uiso   1.00
O826   O     0.10476   0.75245   0.74413   0.00000  Uiso   1.00
O827   O     0.20536   0.76193   0.75367   0.00000  Uiso   1.00
O828   O     0.14092   0.83092   0.67207   0.00000  Uiso   1.00
O829   O     0.24152   0.84040   0.68160   0.00000  Uiso   1.00
O830   O     0.30337   0.79894   0.86747   0.00000  Uiso   1.00
S831   S     0.32985   0.76191   0.89192   0.00000  Uiso   1.00
S832   S     0.23140   0.68496   0.80597   0.00000  Uiso   1.00
C833   C     0.51386   0.93306   0.75317   0.00000  Uiso   1.00
C834   C     0.44485   0.82628   0.90440   0.00000  Uiso   1.00
C835   C     0.51714   0.98772   0.76244   0.00000  Uiso   1.00
C836   C     0.46590   0.83030   0.84762   0.00000  Uiso   1.00
C837   C     0.48146   0.67865   0.74148   0.00000  Uiso   1.00
C838   C     0.48565   0.73357   0.74815   0.00000  Uiso   1.00
C839   C     0.53406   0.83697   0.65303   0.00000  Uiso   1.00
C840   C     0.62613   0.89050   0.52684   0.00000  Uiso   1.00
C841   C     0.55461   0.84495   0.59815   0.00000  Uiso   1.00
C842   C     0.38424   0.79727   0.92704   0.00000  Uiso   1.00
C843   C     0.36718   0.79198   0.97966   0.00000  Uiso   1.00
C844   C     0.47280   0.83337   0.98895   0.00000  Uiso   1.00
C845   C     0.41043   0.80895   0.51004   0.00000  Uiso   1.00
C846   C     0.48808   0.84686   0.93693   0.00000  Uiso   1.00
C847   C     0.52005   0.84602   0.51848   0.00000  Uiso   1.00
C848   C     0.57956   0.87699   0.99778   0.00000  Uiso   1.00
C849   C     0.59130   0.89517   0.94880   0.00000  Uiso   1.00
C850   C     0.54624   0.88086   0.91932   0.00000  Uiso   1.00
C851   C     0.51003   0.82842   0.56804   0.00000  Uiso   1.00
C852   C     0.61348   0.87497   0.57709   0.00000  Uiso   1.00
Cl853  Cl    0.43380   0.98156   0.69830   0.00000  Uiso   1.00
Cu854  Cu    0.44043   0.82772   0.74435   0.00000  Uiso   1.00
Cu855  Cu    0.55957   0.83895   0.75564   0.00000  Uiso   1.00
H856   H     0.64852   0.88812   0.59995   0.00000  Uiso   1.00
H857   H     0.62059   0.69333   0.93614   0.00000  Uiso   1.00
H858   H     0.62737   0.97077   0.81957   0.00000  Uiso   1.00
H859   H     0.33678   0.87213   0.78963   0.00000  Uiso   1.00
H860   H     0.66352   0.79516   0.70982   0.00000  Uiso   1.00
H861   H     0.63569   0.92052   0.93299   0.00000  Uiso   1.00
H862   H     0.33834   0.91427   0.51113   0.00000  Uiso   1.00
H863   H     0.46722   0.80222   0.58473   0.00000  Uiso   1.00
H864   H     0.39309   0.80289   0.55027   0.00000  Uiso   1.00
H865   H     0.65362   0.77236   0.99768   0.00000  Uiso   1.00
H866   H     0.55781   0.89795   0.88292   0.00000  Uiso   1.00
N867   N     0.64908   0.84741   0.76416   0.00000  Uiso   1.00
N868   N     0.35092   0.81926   0.73584   0.00000  Uiso   1.00
O869   O     0.46131   0.90474   0.74633   0.00000  Uiso   1.00
O870   O     0.36319   0.72901   0.85143   0.00000  Uiso   1.00
O871   O     0.60316   0.72320   0.92981   0.00000  Uiso   1.00
O872   O     0.62408   0.71739   0.77648   0.00000  Uiso   1.00
O873   O     0.52959   0.71898   0.84393   0.00000  Uiso   1.00
O874   O     0.58476   0.97485   0.83815   0.00000  Uiso   1.00
O875   O     0.56191   0.91422   0.75586   0.00000  Uiso   1.00
O876   O     0.42515   0.82627   0.81840   0.00000  Uiso   1.00
O877   O     0.52575   0.83575   0.82793   0.00000  Uiso   1.00
O878   O     0.43809   0.75245   0.74413   0.00000  Uiso   1.00
O879   O     0.53869   0.76193   0.75367   0.00000  Uiso   1.00
O880   O     0.47425   0.83092   0.67207   0.00000  Uiso   1.00
O881   O     0.57485   0.84040   0.68160   0.00000  Uiso   1.00
O882   O     0.63670   0.79894   0.86747   0.00000  Uiso   1.00
S883   S     0.66319   0.76191   0.89192   0.00000  Uiso   1.00
S884   S     0.56474   0.68496   0.80597   0.00000  Uiso   1.00
C885   C     0.84720   0.93306   0.75317   0.00000  Uiso   1.00
C886   C     0.77819   0.82628   0.90440   0.00000  Uiso   1.00
C887   C     0.85048   0.98772   0.76244   0.00000  Uiso   1.00
C888   C     0.79924   0.83030   0.84762   0.00000  Uiso   1.00
C889   C     0.81479   0.67865   0.74148   0.00000  Uiso   1.00
C890   C     0.81898   0.73357   0.74815   0.00000  Uiso   1.00
C891   C     0.86740   0.83697   0.65303   0.00000  Uiso   1.00
C892   C     0.95946   0.89050   0.52684   0.00000  Uiso   1.00
C893   C     0.88794   0.84495   0.59815   0.00000  Uiso   1.00
C894   C     0.71757   0.79727   0.92704   0.00000  Uiso   1.00
C895   C     0.70051   0.79198   0.97966   0.00000  Uiso   1.00
C896   C     0.80613   0.83337   0.98895   0.00000  Uiso   1.00
C897   C     0.74377   0.80895   0.51004   0.00000  Uiso   1.00
C898   C     0.82142   0.84686   0.93693   0.00000  Uiso   1.00
C899   C     0.85339   0.84602   0.51848   0.00000  Uiso   1.00
C900   C     0.91290   0.87699   0.99778   0.00000  Uiso   1.00
C901   C     0.92464   0.89517   0.94880   0.00000  Uiso   1.00
C902   C     0.87958   0.88086   0.91932   0.00000  Uiso   1.00
C903   C     0.84336   0.82842   0.56804   0.00000  Uiso   1.00
C904   C     0.94681   0.87497   0.57709   0.00000  Uiso   1.00
Cl905  Cl    0.76713   0.98156   0.69830   0.00000  Uiso   1.00
Cu906  Cu    0.77377   0.82772   0.74435   0.00000  Uiso   1.00
Cu907  Cu    0.89290   0.83895   0.75564   0.00000  Uiso   1.00
H908   H     0.98185   0.88812   0.59995   0.00000  Uiso   1.00
H909   H     0.95392   0.69333   0.93614   0.00000  Uiso   1.00
H910   H     0.96070   0.97077   0.81957   0.00000  Uiso   1.00
H911   H     0.67011   0.87213   0.78963   0.00000  Uiso   1.00
H912   H     0.99685   0.79516   0.70982   0.00000  Uiso   1.00
H913   H     0.96903   0.92052   0.93299   0.00000  Uiso   1.00
H914   H     0.67167   0.91427   0.51113   0.00000  Uiso   1.00
H915   H     0.80055   0.80222   0.58473   0.00000  Uiso   1.00
H916   H     0.72642   0.80289   0.55027   0.00000  Uiso   1.00
H917   H     0.98696   0.77236   0.99768   0.00000  Uiso   1.00
H918   H     0.89114   0.89795   0.88292   0.00000  Uiso   1.00
N919   N     0.98241   0.84741   0.76416   0.00000  Uiso   1.00
N920   N     0.68426   0.81926   0.73584   0.00000  Uiso   1.00
O921   O     0.79464   0.90474   0.74633   0.00000  Uiso   1.00
O922   O     0.69652   0.72901   0.85143   0.00000  Uiso   1.00
O923   O     0.93649   0.72320   0.92981   0.00000  Uiso   1.00
O924   O     0.95742   0.71739   0.77648   0.00000  Uiso   1.00
O925   O     0.86293   0.71898   0.84393   0.00000  Uiso   1.00
O926   O     0.91810   0.97485   0.83815   0.00000  Uiso   1.00
O927   O     0.89524   0.91422   0.75586   0.00000  Uiso   1.00
O928   O     0.75848   0.82627   0.81840   0.00000  Uiso   1.00
O929   O     0.85908   0.83575   0.82793   0.00000  Uiso   1.00
O930   O     0.77142   0.75245   0.74413   0.00000  Uiso   1.00
O931   O     0.87203   0.76193   0.75367   0.00000  Uiso   1.00
O932   O     0.80758   0.83092   0.67207   0.00000  Uiso   1.00
O933   O     0.90819   0.84040   0.68160   0.00000  Uiso   1.00
O934   O     0.97004   0.79894   0.86747   0.00000  Uiso   1.00
S935   S     0.99652   0.76191   0.89192   0.00000  Uiso   1.00
S936   S     0.89807   0.68496   0.80597   0.00000  Uiso   1.00
loop_
_geom_bond_atom_site_label_1
_geom_bond_atom_site_label_2
_geom_bond_distance
_geom_bond_site_symmetry_2
_ccdc_geom_bond_type
C1     O37     1.288   .     A
C1     O43     1.289   .     A
C1     C3      1.434   .     S
C2     C4      1.501   .     S
C2     C14     1.438   .     A
C2     C10     1.427   .     A
C3     C161    1.354   .     S
C3     S208    1.786   .     S
C4     O44     1.311   .     A
C4     O45     1.298   .     A
C5     C6      1.432   .     S
C5     C315    1.354   1_545 S
C5     Cl333   1.779   1_545 S
C6     O46     1.289   .     A
C6     O47     1.287   .     A
C7     O48     1.293   .     A
C7     O49     1.300   .     A
C7     C9      1.464   .     S
C8     C20     1.394   .     A
C8     C484    1.405   1_554 S
C8     H82     1.084   .     S
C9     C20     1.398   .     A
C9     C19     1.397   .     A
C10    C11     1.392   .     A
C10    S155    1.767   1_455 S
C11    C481    1.381   .     S
C11    H137    1.082   1_455 S
C12    C14     1.420   .     A
C12    C481    1.408   .     S
C12    C483    1.425   .     S
C13    H32     1.078   .     S
C13    C480    1.408   1_554 S
C13    C479    1.381   1_554 S
C14    C18     1.413   .     A
C15    C19     1.402   .     A
C15    C480    1.425   1_554 S
C15    C484    1.416   1_554 S
C16    C17     1.389   .     A
C16    C483    1.416   .     S
C16    C476    1.405   .     S
C17    H29     1.084   .     S
C17    C18     1.388   .     A
C18    H34     1.066   .     S
C19    H31     1.077   .     S
C20    H24     1.083   .     S
Cl21   C161    1.779   .     S
Cu22   O37     1.985   .     S
Cu22   O46     1.976   .     S
Cu22   O48     1.925   .     S
Cu22   N36     2.017   .     S
Cu22   Cu23    2.685   .     S
Cu22   O44     1.948   .     S
Cu23   O45     1.925   .     S
Cu23   N35     2.017   .     S
Cu23   O49     1.948   .     S
Cu23   O47     1.985   .     S
Cu23   O43     1.976   .     S
H25    O39     0.991   .     S
H26    O42     0.991   .     S
H27    N139    1.029   1_455 S
H28    N88     1.029   .     S
H30    C112    1.084   1_455 S
H33    C63     1.082   .     S
N35    H79     1.029   .     S
N35    N88     1.280   .     S
N36    N139    1.280   1_455 S
N36    H132    1.029   1_455 S
O38    S155    1.503   1_455 S
O39    S51     1.683   .     S
O40    S52     1.502   .     D
O41    S52     1.503   .     D
O42    S208    1.676   .     S
O50    S51     1.502   .     D
S51    C62     1.767   .     S
S51    O90     1.503   .     S
S52    O354    1.676   1_545 S
S52    C315    1.786   1_545 S
C53    O89     1.288   .     A
C53    O95     1.289   .     A
C53    C55     1.434   .     S
C54    C56     1.501   .     S
C54    C66     1.438   .     A
C54    C62     1.427   .     A
C55    C213    1.354   .     S
C55    S260    1.786   .     S
C56    O96     1.311   .     A
C56    O97     1.298   .     A
C57    C58     1.432   .     S
C57    C367    1.354   1_545 S
C57    Cl385   1.779   1_545 S
C58    O98     1.289   .     A
C58    O99     1.287   .     A
C59    O100    1.293   .     A
C59    O101    1.300   .     A
C59    C61     1.464   .     S
C60    C72     1.394   .     A
C60    C536    1.405   1_554 S
C60    H134    1.084   .     S
C61    C72     1.398   .     A
C61    C71     1.397   .     A
C62    C63     1.392   .     A
C63    C533    1.381   .     S
C64    C66     1.420   .     A
C64    C533    1.408   .     S
C64    C535    1.425   .     S
C65    H84     1.078   .     S
C65    C532    1.408   1_554 S
C65    C531    1.381   1_554 S
C66    C70     1.413   .     A
C67    C71     1.402   .     A
C67    C532    1.425   1_554 S
C67    C536    1.416   1_554 S
C68    C69     1.389   .     A
C68    C535    1.416   .     S
C68    C528    1.405   .     S
C69    H81     1.084   .     S
C69    C70     1.388   .     A
C70    H86     1.066   .     S
C71    H83     1.077   .     S
C72    H76     1.083   .     S
Cl73   C213    1.779   .     S
Cu74   O89     1.985   .     S
Cu74   O98     1.976   .     S
Cu74   O100    1.925   .     S
Cu74   N88     2.017   .     S
Cu74   Cu75    2.685   .     S
Cu74   O96     1.948   .     S
Cu75   O97     1.925   .     S
Cu75   N87     2.017   .     S
Cu75   O101    1.948   .     S
Cu75   O99     1.985   .     S
Cu75   O95     1.976   .     S
H77    O91     0.991   .     S
H78    O94     0.991   .     S
H80    N140    1.029   .     S
H85    C115    1.082   .     S
N87    H131    1.029   .     S
N87    N140    1.280   .     S
O91    S103    1.683   .     S
O92    S104    1.502   .     D
O93    S104    1.503   .     D
O94    S260    1.676   .     S
O102   S103    1.502   .     D
S103   C114    1.767   .     S
S103   O142    1.503   .     S
S104   O406    1.676   1_545 S
S104   C367    1.786   1_545 S
C105   O141    1.288   .     A
C105   O147    1.289   .     A
C105   C107    1.434   .     S
C106   C108    1.501   .     S
C106   C118    1.438   .     A
C106   C114    1.427   .     A
C107   C265    1.354   .     S
C107   S312    1.786   .     S
C108   O148    1.311   .     A
C108   O149    1.298   .     A
C109   C110    1.432   .     S
C109   C419    1.354   1_545 S
C109   Cl437   1.779   1_545 S
C110   O150    1.289   .     A
C110   O151    1.287   .     A
C111   O152    1.293   .     A
C111   O153    1.300   .     A
C111   C113    1.464   .     S
C112   C124    1.394   .     A
C112   C588    1.405   1_554 S
C112   H30     1.084   1_655 S
C113   C124    1.398   .     A
C113   C123    1.397   .     A
C114   C115    1.392   .     A
C115   C585    1.381   .     S
C116   C118    1.420   .     A
C116   C585    1.408   .     S
C116   C587    1.425   .     S
C117   H136    1.078   .     S
C117   C584    1.408   1_554 S
C117   C583    1.381   1_554 S
C118   C122    1.413   .     A
C119   C123    1.402   .     A
C119   C584    1.425   1_554 S
C119   C588    1.416   1_554 S
C120   C121    1.389   .     A
C120   C587    1.416   .     S
C120   C580    1.405   .     S
C121   H133    1.084   .     S
C121   C122    1.388   .     A
C122   H138    1.066   .     S
C123   H135    1.077   .     S
C124   H128    1.083   .     S
Cl125  C265    1.779   .     S
Cu126  O141    1.985   .     S
Cu126  O150    1.976   .     S
Cu126  O152    1.925   .     S
Cu126  N140    2.017   .     S
Cu126  Cu127   2.685   .     S
Cu126  O148    1.948   .     S
Cu127  O149    1.925   .     S
Cu127  N139    2.017   .     S
Cu127  O153    1.948   .     S
Cu127  O151    1.985   .     S
Cu127  O147    1.976   .     S
H129   O143    0.991   .     S
H130   O146    0.991   .     S
H132   N36     1.029   1_655 S
H137   C11     1.082   1_655 S
N139   H27     1.029   1_655 S
N139   N36     1.280   1_655 S
O143   S155    1.683   .     S
O144   S156    1.502   .     D
O145   S156    1.503   .     D
O146   S312    1.676   .     S
O154   S155    1.502   .     D
S155   C10     1.767   1_655 S
S155   O38     1.503   1_655 S
S156   O458    1.676   1_545 S
S156   C419    1.786   1_545 S
C157   O193    1.288   .     A
C157   O199    1.289   .     A
C157   C159    1.434   .     S
C158   C160    1.501   .     S
C158   C170    1.438   .     A
C158   C166    1.427   .     A
C159   C317    1.354   .     S
C159   S364    1.786   .     S
C160   O200    1.311   .     A
C160   O201    1.298   .     A
C161   C162    1.432   .     S
C162   O202    1.289   .     A
C162   O203    1.287   .     A
C163   O204    1.293   .     A
C163   O205    1.300   .     A
C163   C165    1.464   .     S
C164   C176    1.394   .     A
C164   C640    1.405   1_554 S
C164   H238    1.084   .     S
C165   C176    1.398   .     A
C165   C175    1.397   .     A
C166   C167    1.392   .     A
C166   S311    1.767   1_455 S
C167   C637    1.381   .     S
C167   H293    1.082   1_455 S
C168   C170    1.420   .     A
C168   C637    1.408   .     S
C168   C639    1.425   .     S
C169   H188    1.078   .     S
C169   C636    1.408   1_554 S
C169   C635    1.381   1_554 S
C170   C174    1.413   .     A
C171   C175    1.402   .     A
C171   C636    1.425   1_554 S
C171   C640    1.416   1_554 S
C172   C173    1.389   .     A
C172   C639    1.416   .     S
C172   C632    1.405   .     S
C173   H185    1.084   .     S
C173   C174    1.388   .     A
C174   H190    1.066   .     S
C175   H187    1.077   .     S
C176   H180    1.083   .     S
Cl177  C317    1.779   .     S
Cu178  O193    1.985   .     S
Cu178  O202    1.976   .     S
Cu178  O204    1.925   .     S
Cu178  N192    2.017   .     S
Cu178  Cu179   2.685   .     S
Cu178  O200    1.948   .     S
Cu179  O201    1.925   .     S
Cu179  N191    2.017   .     S
Cu179  O205    1.948   .     S
Cu179  O203    1.985   .     S
Cu179  O199    1.976   .     S
H181   O195    0.991   .     S
H182   O198    0.991   .     S
H183   N295    1.029   1_455 S
H184   N244    1.029   .     S
H186   C268    1.084   1_455 S
H189   C219    1.082   .     S
N191   H235    1.029   .     S
N191   N244    1.280   .     S
N192   N295    1.280   1_455 S
N192   H288    1.029   1_455 S
O194   S311    1.503   1_455 S
O195   S207    1.683   .     S
O196   S208    1.502   .     D
O197   S208    1.503   .     D
O198   S364    1.676   .     S
O206   S207    1.502   .     D
S207   C218    1.767   .     S
S207   O246    1.503   .     S
C209   O245    1.288   .     A
C209   O251    1.289   .     A
C209   C211    1.434   .     S
C210   C212    1.501   .     S
C210   C222    1.438   .     A
C210   C218    1.427   .     A
C211   C369    1.354   .     S
C211   S416    1.786   .     S
C212   O252    1.311   .     A
C212   O253    1.298   .     A
C213   C214    1.432   .     S
C214   O254    1.289   .     A
C214   O255    1.287   .     A
C215   O256    1.293   .     A
C215   O257    1.300   .     A
C215   C217    1.464   .     S
C216   C228    1.394   .     A
C216   C692    1.405   1_554 S
C216   H290    1.084   .     S
C217   C228    1.398   .     A
C217   C227    1.397   .     A
C218   C219    1.392   .     A
C219   C689    1.381   .     S
C220   C222    1.420   .     A
C220   C689    1.408   .     S
C220   C691    1.425   .     S
C221   H240    1.078   .     S
C221   C688    1.408   1_554 S
C221   C687    1.381   1_554 S
C222   C226    1.413   .     A
C223   C227    1.402   .     A
C223   C688    1.425   1_554 S
C223   C692    1.416   1_554 S
C224   C225    1.389   .     A
C224   C691    1.416   .     S
C224   C684    1.405   .     S
C225   H237    1.084   .     S
C225   C226    1.388   .     A
C226   H242    1.066   .     S
C227   H239    1.077   .     S
C228   H232    1.083   .     S
Cl229  C369    1.779   .     S
Cu230  O245    1.985   .     S
Cu230  O254    1.976   .     S
Cu230  O256    1.925   .     S
Cu230  N244    2.017   .     S
Cu230  Cu231   2.685   .     S
Cu230  O252    1.948   .     S
Cu231  O253    1.925   .     S
Cu231  N243    2.017   .     S
Cu231  O257    1.948   .     S
Cu231  O255    1.985   .     S
Cu231  O251    1.976   .     S
H233   O247    0.991   .     S
H234   O250    0.991   .     S
H236   N296    1.029   .     S
H241   C271    1.082   .     S
N243   H287    1.029   .     S
N243   N296    1.280   .     S
O247   S259    1.683   .     S
O248   S260    1.502   .     D
O249   S260    1.503   .     D
O250   S416    1.676   .     S
O258   S259    1.502   .     D
S259   C270    1.767   .     S
S259   O298    1.503   .     S
C261   O297    1.288   .     A
C261   O303    1.289   .     A
C261   C263    1.434   .     S
C262   C264    1.501   .     S
C262   C274    1.438   .     A
C262   C270    1.427   .     A
C263   C421    1.354   .     S
C263   S468    1.786   .     S
C264   O304    1.311   .     A
C264   O305    1.298   .     A
C265   C266    1.432   .     S
C266   O306    1.289   .     A
C266   O307    1.287   .     A
C267   O308    1.293   .     A
C267   O309    1.300   .     A
C267   C269    1.464   .     S
C268   C280    1.394   .     A
C268   C744    1.405   1_554 S
C268   H186    1.084   1_655 S
C269   C280    1.398   .     A
C269   C279    1.397   .     A
C270   C271    1.392   .     A
C271   C741    1.381   .     S
C272   C274    1.420   .     A
C272   C741    1.408   .     S
C272   C743    1.425   .     S
C273   H292    1.078   .     S
C273   C740    1.408   1_554 S
C273   C739    1.381   1_554 S
C274   C278    1.413   .     A
C275   C279    1.402   .     A
C275   C740    1.425   1_554 S
C275   C744    1.416   1_554 S
C276   C277    1.389   .     A
C276   C743    1.416   .     S
C276   C736    1.405   .     S
C277   H289    1.084   .     S
C277   C278    1.388   .     A
C278   H294    1.066   .     S
C279   H291    1.077   .     S
C280   H284    1.083   .     S
Cl281  C421    1.779   .     S
Cu282  O297    1.985   .     S
Cu282  O306    1.976   .     S
Cu282  O308    1.925   .     S
Cu282  N296    2.017   .     S
Cu282  Cu283   2.685   .     S
Cu282  O304    1.948   .     S
Cu283  O305    1.925   .     S
Cu283  N295    2.017   .     S
Cu283  O309    1.948   .     S
Cu283  O307    1.985   .     S
Cu283  O303    1.976   .     S
H285   O299    0.991   .     S
H286   O302    0.991   .     S
H288   N192    1.029   1_655 S
H293   C167    1.082   1_655 S
N295   H183    1.029   1_655 S
N295   N192    1.280   1_655 S
O299   S311    1.683   .     S
O300   S312    1.502   .     D
O301   S312    1.503   .     D
O302   S468    1.676   .     S
O310   S311    1.502   .     D
S311   C166    1.767   1_655 S
S311   O194    1.503   1_655 S
C313   O349    1.288   .     A
C313   O355    1.289   .     A
C313   C315    1.434   .     S
C314   C316    1.501   .     S
C314   C326    1.438   .     A
C314   C322    1.427   .     A
C315   C5      1.354   1_565 S
C315   S52     1.786   1_565 S
C316   O356    1.311   .     A
C316   O357    1.298   .     A
C317   C318    1.432   .     S
C318   O358    1.289   .     A
C318   O359    1.287   .     A
C319   O360    1.293   .     A
C319   O361    1.300   .     A
C319   C321    1.464   .     S
C320   C332    1.394   .     A
C320   C796    1.405   1_554 S
C320   H394    1.084   .     S
C321   C332    1.398   .     A
C321   C331    1.397   .     A
C322   C323    1.392   .     A
C322   S467    1.767   1_455 S
C323   C793    1.381   .     S
C323   H449    1.082   1_455 S
C324   C326    1.420   .     A
C324   C793    1.408   .     S
C324   C795    1.425   .     S
C325   H344    1.078   .     S
C325   C792    1.408   1_554 S
C325   C791    1.381   1_554 S
C326   C330    1.413   .     A
C327   C331    1.402   .     A
C327   C792    1.425   1_554 S
C327   C796    1.416   1_554 S
C328   C329    1.389   .     A
C328   C795    1.416   .     S
C328   C788    1.405   .     S
C329   H341    1.084   .     S
C329   C330    1.388   .     A
C330   H346    1.066   .     S
C331   H343    1.077   .     S
C332   H336    1.083   .     S
Cl333  C5      1.779   1_565 S
Cu334  O349    1.985   .     S
Cu334  O358    1.976   .     S
Cu334  O360    1.925   .     S
Cu334  N348    2.017   .     S
Cu334  Cu335   2.685   .     S
Cu334  O356    1.948   .     S
Cu335  O357    1.925   .     S
Cu335  N347    2.017   .     S
Cu335  O361    1.948   .     S
Cu335  O359    1.985   .     S
Cu335  O355    1.976   .     S
H337   O351    0.991   .     S
H338   O354    0.991   .     S
H339   N451    1.029   1_455 S
H340   N400    1.029   .     S
H342   C424    1.084   1_455 S
H345   C375    1.082   .     S
N347   H391    1.029   .     S
N347   N400    1.280   .     S
N348   N451    1.280   1_455 S
N348   H444    1.029   1_455 S
O350   S467    1.503   1_455 S
O351   S363    1.683   .     S
O352   S364    1.502   .     D
O353   S364    1.503   .     D
O354   S52     1.676   1_565 S
O362   S363    1.502   .     D
S363   C374    1.767   .     S
S363   O402    1.503   .     S
C365   O401    1.288   .     A
C365   O407    1.289   .     A
C365   C367    1.434   .     S
C366   C368    1.501   .     S
C366   C378    1.438   .     A
C366   C374    1.427   .     A
C367   C57     1.354   1_565 S
C367   S104    1.786   1_565 S
C368   O408    1.311   .     A
C368   O409    1.298   .     A
C369   C370    1.432   .     S
C370   O410    1.289   .     A
C370   O411    1.287   .     A
C371   O412    1.293   .     A
C371   O413    1.300   .     A
C371   C373    1.464   .     S
C372   C384    1.394   .     A
C372   C848    1.405   1_554 S
C372   H446    1.084   .     S
C373   C384    1.398   .     A
C373   C383    1.397   .     A
C374   C375    1.392   .     A
C375   C845    1.381   .     S
C376   C378    1.420   .     A
C376   C845    1.408   .     S
C376   C847    1.425   .     S
C377   H396    1.078   .     S
C377   C844    1.408   1_554 S
C377   C843    1.381   1_554 S
C378   C382    1.413   .     A
C379   C383    1.402   .     A
C379   C844    1.425   1_554 S
C379   C848    1.416   1_554 S
C380   C381    1.389   .     A
C380   C847    1.416   .     S
C380   C840    1.405   .     S
C381   H393    1.084   .     S
C381   C382    1.388   .     A
C382   H398    1.066   .     S
C383   H395    1.077   .     S
C384   H388    1.083   .     S
Cl385  C57     1.779   1_565 S
Cu386  O401    1.985   .     S
Cu386  O410    1.976   .     S
Cu386  O412    1.925   .     S
Cu386  N400    2.017   .     S
Cu386  Cu387   2.685   .     S
Cu386  O408    1.948   .     S
Cu387  O409    1.925   .     S
Cu387  N399    2.017   .     S
Cu387  O413    1.948   .     S
Cu387  O411    1.985   .     S
Cu387  O407    1.976   .     S
H389   O403    0.991   .     S
H390   O406    0.991   .     S
H392   N452    1.029   .     S
H397   C427    1.082   .     S
N399   H443    1.029   .     S
N399   N452    1.280   .     S
O403   S415    1.683   .     S
O404   S416    1.502   .     D
O405   S416    1.503   .     D
O406   S104    1.676   1_565 S
O414   S415    1.502   .     D
S415   C426    1.767   .     S
S415   O454    1.503   .     S
C417   O453    1.288   .     A
C417   O459    1.289   .     A
C417   C419    1.434   .     S
C418   C420    1.501   .     S
C418   C430    1.438   .     A
C418   C426    1.427   .     A
C419   C109    1.354   1_565 S
C419   S156    1.786   1_565 S
C420   O460    1.311   .     A
C420   O461    1.298   .     A
C421   C422    1.432   .     S
C422   O462    1.289   .     A
C422   O463    1.287   .     A
C423   O464    1.293   .     A
C423   O465    1.300   .     A
C423   C425    1.464   .     S
C424   C436    1.394   .     A
C424   C900    1.405   1_554 S
C424   H342    1.084   1_655 S
C425   C436    1.398   .     A
C425   C435    1.397   .     A
C426   C427    1.392   .     A
C427   C897    1.381   .     S
C428   C430    1.420   .     A
C428   C897    1.408   .     S
C428   C899    1.425   .     S
C429   H448    1.078   .     S
C429   C896    1.408   1_554 S
C429   C895    1.381   1_554 S
C430   C434    1.413   .     A
C431   C435    1.402   .     A
C431   C896    1.425   1_554 S
C431   C900    1.416   1_554 S
C432   C433    1.389   .     A
C432   C899    1.416   .     S
C432   C892    1.405   .     S
C433   H445    1.084   .     S
C433   C434    1.388   .     A
C434   H450    1.066   .     S
C435   H447    1.077   .     S
C436   H440    1.083   .     S
Cl437  C109    1.779   1_565 S
Cu438  O453    1.985   .     S
Cu438  O462    1.976   .     S
Cu438  O464    1.925   .     S
Cu438  N452    2.017   .     S
Cu438  Cu439   2.685   .     S
Cu438  O460    1.948   .     S
Cu439  O461    1.925   .     S
Cu439  N451    2.017   .     S
Cu439  O465    1.948   .     S
Cu439  O463    1.985   .     S
Cu439  O459    1.976   .     S
H441   O455    0.991   .     S
H442   O458    0.991   .     S
H444   N348    1.029   1_655 S
H449   C323    1.082   1_655 S
N451   H339    1.029   1_655 S
N451   N348    1.280   1_655 S
O455   S467    1.683   .     S
O456   S468    1.502   .     D
O457   S468    1.503   .     D
O458   S156    1.676   1_565 S
O466   S467    1.502   .     D
S467   C322    1.767   1_655 S
S467   O350    1.503   1_655 S
C469   O505    1.288   .     A
C469   O511    1.289   .     A
C469   C471    1.434   .     S
C470   C472    1.501   .     S
C470   C482    1.438   .     A
C470   C478    1.427   .     A
C471   C629    1.354   .     S
C471   S676    1.786   .     S
C472   O512    1.311   .     A
C472   O513    1.298   .     A
C473   C474    1.432   .     S
C473   C783    1.354   1_545 S
C473   Cl801   1.779   1_545 S
C474   O514    1.289   .     A
C474   O515    1.287   .     A
C475   O516    1.293   .     A
C475   O517    1.300   .     A
C475   C477    1.464   .     S
C476   C488    1.394   .     A
C476   H550    1.084   .     S
C477   C488    1.398   .     A
C477   C487    1.397   .     A
C478   C479    1.392   .     A
C478   S623    1.767   1_455 S
C479   C13     1.381   1_556 S
C479   H605    1.082   1_455 S
C480   C482    1.420   .     A
C480   C13     1.408   1_556 S
C480   C15     1.425   1_556 S
C481   H500    1.078   .     S
C482   C486    1.413   .     A
C483   C487    1.402   .     A
C484   C485    1.389   .     A
C484   C15     1.416   1_556 S
C484   C8      1.405   1_556 S
C485   H497    1.084   .     S
C485   C486    1.388   .     A
C486   H502    1.066   .     S
C487   H499    1.077   .     S
C488   H492    1.083   .     S
Cl489  C629    1.779   .     S
Cu490  O505    1.985   .     S
Cu490  O514    1.976   .     S
Cu490  O516    1.925   .     S
Cu490  N504    2.017   .     S
Cu490  Cu491   2.685   .     S
Cu490  O512    1.948   .     S
Cu491  O513    1.925   .     S
Cu491  N503    2.017   .     S
Cu491  O517    1.948   .     S
Cu491  O515    1.985   .     S
Cu491  O511    1.976   .     S
H493   O507    0.991   .     S
H494   O510    0.991   .     S
H495   N607    1.029   1_455 S
H496   N556    1.029   .     S
H498   C580    1.084   1_455 S
H501   C531    1.082   .     S
N503   H547    1.029   .     S
N503   N556    1.280   .     S
N504   N607    1.280   1_455 S
N504   H600    1.029   1_455 S
O506   S623    1.503   1_455 S
O507   S519    1.683   .     S
O508   S520    1.502   .     D
O509   S520    1.503   .     D
O510   S676    1.676   .     S
O518   S519    1.502   .     D
S519   C530    1.767   .     S
S519   O558    1.503   .     S
S520   O822    1.676   1_545 S
S520   C783    1.786   1_545 S
C521   O557    1.288   .     A
C521   O563    1.289   .     A
C521   C523    1.434   .     S
C522   C524    1.501   .     S
C522   C534    1.438   .     A
C522   C530    1.427   .     A
C523   C681    1.354   .     S
C523   S728    1.786   .     S
C524   O564    1.311   .     A
C524   O565    1.298   .     A
C525   C526    1.432   .     S
C525   C835    1.354   1_545 S
C525   Cl853   1.779   1_545 S
C526   O566    1.289   .     A
C526   O567    1.287   .     A
C527   O568    1.293   .     A
C527   O569    1.300   .     A
C527   C529    1.464   .     S
C528   C540    1.394   .     A
C528   H602    1.084   .     S
C529   C540    1.398   .     A
C529   C539    1.397   .     A
C530   C531    1.392   .     A
C531   C65     1.381   1_556 S
C532   C534    1.420   .     A
C532   C65     1.408   1_556 S
C532   C67     1.425   1_556 S
C533   H552    1.078   .     S
C534   C538    1.413   .     A
C535   C539    1.402   .     A
C536   C537    1.389   .     A
C536   C67     1.416   1_556 S
C536   C60     1.405   1_556 S
C537   H549    1.084   .     S
C537   C538    1.388   .     A
C538   H554    1.066   .     S
C539   H551    1.077   .     S
C540   H544    1.083   .     S
Cl541  C681    1.779   .     S
Cu542  O557    1.985   .     S
Cu542  O566    1.976   .     S
Cu542  O568    1.925   .     S
Cu542  N556    2.017   .     S
Cu542  Cu543   2.685   .     S
Cu542  O564    1.948   .     S
Cu543  O565    1.925   .     S
Cu543  N555    2.017   .     S
Cu543  O569    1.948   .     S
Cu543  O567    1.985   .     S
Cu543  O563    1.976   .     S
H545   O559    0.991   .     S
H546   O562    0.991   .     S
H548   N608    1.029   .     S
H553   C583    1.082   .     S
N555   H599    1.029   .     S
N555   N608    1.280   .     S
O559   S571    1.683   .     S
O560   S572    1.502   .     D
O561   S572    1.503   .     D
O562   S728    1.676   .     S
O570   S571    1.502   .     D
S571   C582    1.767   .     S
S571   O610    1.503   .     S
S572   O874    1.676   1_545 S
S572   C835    1.786   1_545 S
C573   O609    1.288   .     A
C573   O615    1.289   .     A
C573   C575    1.434   .     S
C574   C576    1.501   .     S
C574   C586    1.438   .     A
C574   C582    1.427   .     A
C575   C733    1.354   .     S
C575   S780    1.786   .     S
C576   O616    1.311   .     A
C576   O617    1.298   .     A
C577   C578    1.432   .     S
C577   C887    1.354   1_545 S
C577   Cl905   1.779   1_545 S
C578   O618    1.289   .     A
C578   O619    1.287   .     A
C579   O620    1.293   .     A
C579   O621    1.300   .     A
C579   C581    1.464   .     S
C580   C592    1.394   .     A
C580   H498    1.084   1_655 S
C581   C592    1.398   .     A
C581   C591    1.397   .     A
C582   C583    1.392   .     A
C583   C117    1.381   1_556 S
C584   C586    1.420   .     A
C584   C117    1.408   1_556 S
C584   C119    1.425   1_556 S
C585   H604    1.078   .     S
C586   C590    1.413   .     A
C587   C591    1.402   .     A
C588   C589    1.389   .     A
C588   C119    1.416   1_556 S
C588   C112    1.405   1_556 S
C589   H601    1.084   .     S
C589   C590    1.388   .     A
C590   H606    1.066   .     S
C591   H603    1.077   .     S
C592   H596    1.083   .     S
Cl593  C733    1.779   .     S
Cu594  O609    1.985   .     S
Cu594  O618    1.976   .     S
Cu594  O620    1.925   .     S
Cu594  N608    2.017   .     S
Cu594  Cu595   2.685   .     S
Cu594  O616    1.948   .     S
Cu595  O617    1.925   .     S
Cu595  N607    2.017   .     S
Cu595  O621    1.948   .     S
Cu595  O619    1.985   .     S
Cu595  O615    1.976   .     S
H597   O611    0.991   .     S
H598   O614    0.991   .     S
H600   N504    1.029   1_655 S
H605   C479    1.082   1_655 S
N607   H495    1.029   1_655 S
N607   N504    1.280   1_655 S
O611   S623    1.683   .     S
O612   S624    1.502   .     D
O613   S624    1.503   .     D
O614   S780    1.676   .     S
O622   S623    1.502   .     D
S623   C478    1.767   1_655 S
S623   O506    1.503   1_655 S
S624   O926    1.676   1_545 S
S624   C887    1.786   1_545 S
C625   O661    1.288   .     A
C625   O667    1.289   .     A
C625   C627    1.434   .     S
C626   C628    1.501   .     S
C626   C638    1.438   .     A
C626   C634    1.427   .     A
C627   C785    1.354   .     S
C627   S832    1.786   .     S
C628   O668    1.311   .     A
C628   O669    1.298   .     A
C629   C630    1.432   .     S
C630   O670    1.289   .     A
C630   O671    1.287   .     A
C631   O672    1.293   .     A
C631   O673    1.300   .     A
C631   C633    1.464   .     S
C632   C644    1.394   .     A
C632   H706    1.084   .     S
C633   C644    1.398   .     A
C633   C643    1.397   .     A
C634   C635    1.392   .     A
C634   S779    1.767   1_455 S
C635   C169    1.381   1_556 S
C635   H761    1.082   1_455 S
C636   C638    1.420   .     A
C636   C169    1.408   1_556 S
C636   C171    1.425   1_556 S
C637   H656    1.078   .     S
C638   C642    1.413   .     A
C639   C643    1.402   .     A
C640   C641    1.389   .     A
C640   C171    1.416   1_556 S
C640   C164    1.405   1_556 S
C641   H653    1.084   .     S
C641   C642    1.388   .     A
C642   H658    1.066   .     S
C643   H655    1.077   .     S
C644   H648    1.083   .     S
Cl645  C785    1.779   .     S
Cu646  O661    1.985   .     S
Cu646  O670    1.976   .     S
Cu646  O672    1.925   .     S
Cu646  N660    2.017   .     S
Cu646  Cu647   2.685   .     S
Cu646  O668    1.948   .     S
Cu647  O669    1.925   .     S
Cu647  N659    2.017   .     S
Cu647  O673    1.948   .     S
Cu647  O671    1.985   .     S
Cu647  O667    1.976   .     S
H649   O663    0.991   .     S
H650   O666    0.991   .     S
H651   N763    1.029   1_455 S
H652   N712    1.029   .     S
H654   C736    1.084   1_455 S
H657   C687    1.082   .     S
N659   H703    1.029   .     S
N659   N712    1.280   .     S
N660   N763    1.280   1_455 S
N660   H756    1.029   1_455 S
O662   S779    1.503   1_455 S
O663   S675    1.683   .     S
O664   S676    1.502   .     D
O665   S676    1.503   .     D
O666   S832    1.676   .     S
O674   S675    1.502   .     D
S675   C686    1.767   .     S
S675   O714    1.503   .     S
C677   O713    1.288   .     A
C677   O719    1.289   .     A
C677   C679    1.434   .     S
C678   C680    1.501   .     S
C678   C690    1.438   .     A
C678   C686    1.427   .     A
C679   C837    1.354   .     S
C679   S884    1.786   .     S
C680   O720    1.311   .     A
C680   O721    1.298   .     A
C681   C682    1.432   .     S
C682   O722    1.289   .     A
C682   O723    1.287   .     A
C683   O724    1.293   .     A
C683   O725    1.300   .     A
C683   C685    1.464   .     S
C684   C696    1.394   .     A
C684   H758    1.084   .     S
C685   C696    1.398   .     A
C685   C695    1.397   .     A
C686   C687    1.392   .     A
C687   C221    1.381   1_556 S
C688   C690    1.420   .     A
C688   C221    1.408   1_556 S
C688   C223    1.425   1_556 S
C689   H708    1.078   .     S
C690   C694    1.413   .     A
C691   C695    1.402   .     A
C692   C693    1.389   .     A
C692   C223    1.416   1_556 S
C692   C216    1.405   1_556 S
C693   H705    1.084   .     S
C693   C694    1.388   .     A
C694   H710    1.066   .     S
C695   H707    1.077   .     S
C696   H700    1.083   .     S
Cl697  C837    1.779   .     S
Cu698  O713    1.985   .     S
Cu698  O722    1.976   .     S
Cu698  O724    1.925   .     S
Cu698  N712    2.017   .     S
Cu698  Cu699   2.685   .     S
Cu698  O720    1.948   .     S
Cu699  O721    1.925   .     S
Cu699  N711    2.017   .     S
Cu699  O725    1.948   .     S
Cu699  O723    1.985   .     S
Cu699  O719    1.976   .     S
H701   O715    0.991   .     S
H702   O718    0.991   .     S
H704   N764    1.029   .     S
H709   C739    1.082   .     S
N711   H755    1.029   .     S
N711   N764    1.280   .     S
O715   S727    1.683   .     S
O716   S728    1.502   .     D
O717   S728    1.503   .     D
O718   S884    1.676   .     S
O726   S727    1.502   .     D
S727   C738    1.767   .     S
S727   O766    1.503   .     S
C729   O765    1.288   .     A
C729   O771    1.289   .     A
C729   C731    1.434   .     S
C730   C732    1.501   .     S
C730   C742    1.438   .     A
C730   C738    1.427   .     A
C731   C889    1.354   .     S
C731   S936    1.786   .     S
C732   O772    1.311   .     A
C732   O773    1.298   .     A
C733   C734    1.432   .     S
C734   O774    1.289   .     A
C734   O775    1.287   .     A
C735   O776    1.293   .     A
C735   O777    1.300   .     A
C735   C737    1.464   .     S
C736   C748    1.394   .     A
C736   H654    1.084   1_655 S
C737   C748    1.398   .     A
C737   C747    1.397   .     A
C738   C739    1.392   .     A
C739   C273    1.381   1_556 S
C740   C742    1.420   .     A
C740   C273    1.408   1_556 S
C740   C275    1.425   1_556 S
C741   H760    1.078   .     S
C742   C746    1.413   .     A
C743   C747    1.402   .     A
C744   C745    1.389   .     A
C744   C275    1.416   1_556 S
C744   C268    1.405   1_556 S
C745   H757    1.084   .     S
C745   C746    1.388   .     A
C746   H762    1.066   .     S
C747   H759    1.077   .     S
C748   H752    1.083   .     S
Cl749  C889    1.779   .     S
Cu750  O765    1.985   .     S
Cu750  O774    1.976   .     S
Cu750  O776    1.925   .     S
Cu750  N764    2.017   .     S
Cu750  Cu751   2.685   .     S
Cu750  O772    1.948   .     S
Cu751  O773    1.925   .     S
Cu751  N763    2.017   .     S
Cu751  O777    1.948   .     S
Cu751  O775    1.985   .     S
Cu751  O771    1.976   .     S
H753   O767    0.991   .     S
H754   O770    0.991   .     S
H756   N660    1.029   1_655 S
H761   C635    1.082   1_655 S
N763   H651    1.029   1_655 S
N763   N660    1.280   1_655 S
O767   S779    1.683   .     S
O768   S780    1.502   .     D
O769   S780    1.503   .     D
O770   S936    1.676   .     S
O778   S779    1.502   .     D
S779   C634    1.767   1_655 S
S779   O662    1.503   1_655 S
C781   O817    1.288   .     A
C781   O823    1.289   .     A
C781   C783    1.434   .     S
C782   C784    1.501   .     S
C782   C794    1.438   .     A
C782   C790    1.427   .     A
C783   C473    1.354   1_565 S
C783   S520    1.786   1_565 S
C784   O824    1.311   .     A
C784   O825    1.298   .     A
C785   C786    1.432   .     S
C786   O826    1.289   .     A
C786   O827    1.287   .     A
C787   O828    1.293   .     A
C787   O829    1.300   .     A
C787   C789    1.464   .     S
C788   C800    1.394   .     A
C788   H862    1.084   .     S
C789   C800    1.398   .     A
C789   C799    1.397   .     A
C790   C791    1.392   .     A
C790   S935    1.767   1_455 S
C791   C325    1.381   1_556 S
C791   H917    1.082   1_455 S
C792   C794    1.420   .     A
C792   C325    1.408   1_556 S
C792   C327    1.425   1_556 S
C793   H812    1.078   .     S
C794   C798    1.413   .     A
C795   C799    1.402   .     A
C796   C797    1.389   .     A
C796   C327    1.416   1_556 S
C796   C320    1.405   1_556 S
C797   H809    1.084   .     S
C797   C798    1.388   .     A
C798   H814    1.066   .     S
C799   H811    1.077   .     S
C800   H804    1.083   .     S
Cl801  C473    1.779   1_565 S
Cu802  O817    1.985   .     S
Cu802  O826    1.976   .     S
Cu802  O828    1.925   .     S
Cu802  N816    2.017   .     S
Cu802  Cu803   2.685   .     S
Cu802  O824    1.948   .     S
Cu803  O825    1.925   .     S
Cu803  N815    2.017   .     S
Cu803  O829    1.948   .     S
Cu803  O827    1.985   .     S
Cu803  O823    1.976   .     S
H805   O819    0.991   .     S
H806   O822    0.991   .     S
H807   N919    1.029   1_455 S
H808   N868    1.029   .     S
H810   C892    1.084   1_455 S
H813   C843    1.082   .     S
N815   H859    1.029   .     S
N815   N868    1.280   .     S
N816   N919    1.280   1_455 S
N816   H912    1.029   1_455 S
O818   S935    1.503   1_455 S
O819   S831    1.683   .     S
O820   S832    1.502   .     D
O821   S832    1.503   .     D
O822   S520    1.676   1_565 S
O830   S831    1.502   .     D
S831   C842    1.767   .     S
S831   O870    1.503   .     S
C833   O869    1.288   .     A
C833   O875    1.289   .     A
C833   C835    1.434   .     S
C834   C836    1.501   .     S
C834   C846    1.438   .     A
C834   C842    1.427   .     A
C835   C525    1.354   1_565 S
C835   S572    1.786   1_565 S
C836   O876    1.311   .     A
C836   O877    1.298   .     A
C837   C838    1.432   .     S
C838   O878    1.289   .     A
C838   O879    1.287   .     A
C839   O880    1.293   .     A
C839   O881    1.300   .     A
C839   C841    1.464   .     S
C840   C852    1.394   .     A
C840   H914    1.084   .     S
C841   C852    1.398   .     A
C841   C851    1.397   .     A
C842   C843    1.392   .     A
C843   C377    1.381   1_556 S
C844   C846    1.420   .     A
C844   C377    1.408   1_556 S
C844   C379    1.425   1_556 S
C845   H864    1.078   .     S
C846   C850    1.413   .     A
C847   C851    1.402   .     A
C848   C849    1.389   .     A
C848   C379    1.416   1_556 S
C848   C372    1.405   1_556 S
C849   H861    1.084   .     S
C849   C850    1.388   .     A
C850   H866    1.066   .     S
C851   H863    1.077   .     S
C852   H856    1.083   .     S
Cl853  C525    1.779   1_565 S
Cu854  O869    1.985   .     S
Cu854  O878    1.976   .     S
Cu854  O880    1.925   .     S
Cu854  N868    2.017   .     S
Cu854  Cu855   2.685   .     S
Cu854  O876    1.948   .     S
Cu855  O877    1.925   .     S
Cu855  N867    2.017   .     S
Cu855  O881    1.948   .     S
Cu855  O879    1.985   .     S
Cu855  O875    1.976   .     S
H857   O871    0.991   .     S
H858   O874    0.991   .     S
H860   N920    1.029   .     S
H865   C895    1.082   .     S
N867   H911    1.029   .     S
N867   N920    1.280   .     S
O871   S883    1.683   .     S
O872   S884    1.502   .     D
O873   S884    1.503   .     D
O874   S572    1.676   1_565 S
O882   S883    1.502   .     D
S883   C894    1.767   .     S
S883   O922    1.503   .     S
C885   O921    1.288   .     A
C885   O927    1.289   .     A
C885   C887    1.434   .     S
C886   C888    1.501   .     S
C886   C898    1.438   .     A
C886   C894    1.427   .     A
C887   C577    1.354   1_565 S
C887   S624    1.786   1_565 S
C888   O928    1.311   .     A
C888   O929    1.298   .     A
C889   C890    1.432   .     S
C890   O930    1.289   .     A
C890   O931    1.287   .     A
C891   O932    1.293   .     A
C891   O933    1.300   .     A
C891   C893    1.464   .     S
C892   C904    1.394   .     A
C892   H810    1.084   1_655 S
C893   C904    1.398   .     A
C893   C903    1.397   .     A
C894   C895    1.392   .     A
C895   C429    1.381   1_556 S
C896   C898    1.420   .     A
C896   C429    1.408   1_556 S
C896   C431    1.425   1_556 S
C897   H916    1.078   .     S
C898   C902    1.413   .     A
C899   C903    1.402   .     A
C900   C901    1.389   .     A
C900   C431    1.416   1_556 S
C900   C424    1.405   1_556 S
C901   H913    1.084   .     S
C901   C902    1.388   .     A
C902   H918    1.066   .     S
C903   H915    1.077   .     S
C904   H908    1.083   .     S
Cl905  C577    1.779   1_565 S
Cu906  O921    1.985   .     S
Cu906  O930    1.976   .     S
Cu906  O932    1.925   .     S
Cu906  N920    2.017   .     S
Cu906  Cu907   2.685   .     S
Cu906  O928    1.948   .     S
Cu907  O929    1.925   .     S
Cu907  N919    2.017   .     S
Cu907  O933    1.948   .     S
Cu907  O931    1.985   .     S
Cu907  O927    1.976   .     S
H909   O923    0.991   .     S
H910   O926    0.991   .     S
H912   N816    1.029   1_655 S
H917   C791    1.082   1_655 S
N919   H807    1.029   1_655 S
N919   N816    1.280   1_655 S
O923   S935    1.683   .     S
O924   S936    1.502   .     D
O925   S936    1.503   .     D
O926   S624    1.676   1_565 S
O934   S935    1.502   .     D
S935   C790    1.767   1_655 S
S935   O818    1.503   1_655 S
