data_str_m2_o1_o17_pcu_sym.71
_audit_creation_date              2020-01-03
_audit_creation_method            'Materials Studio'
_symmetry_space_group_name_H-M    'P1'
_symmetry_Int_Tables_number       1
_symmetry_cell_setting            triclinic
loop_
_symmetry_equiv_pos_as_xyz
  x,y,z
_cell_length_a                    32.6050
_cell_length_b                    28.5125
_cell_length_c                    30.1915
_cell_angle_alpha                 89.9957
_cell_angle_beta                  89.5802
_cell_angle_gamma                 89.9968
loop_
_atom_site_label
_atom_site_type_symbol
_atom_site_fract_x
_atom_site_fract_y
_atom_site_fract_z
_atom_site_U_iso_or_equiv
_atom_site_adp_type
_atom_site_occupancy
C1     C     0.08733   0.16664   0.24939   0.00000  Uiso   1.00
C2     C     0.04273   0.16655   0.24884   0.00000  Uiso   1.00
C3     C     0.14048   0.02482   0.22348   0.00000  Uiso   1.00
C4     C     0.19285   0.30850   0.27653   0.00000  Uiso   1.00
C5     C     0.19285   0.02482   0.27652   0.00000  Uiso   1.00
C6     C     0.14048   0.30851   0.22347   0.00000  Uiso   1.00
C7     C     0.16697   0.16672   0.16440   0.00000  Uiso   1.00
C8     C     0.16637   0.16672   0.33560   0.00000  Uiso   1.00
C9     C     0.20275   0.16685   0.40641   0.00000  Uiso   1.00
C10    C     0.13060   0.16672   0.09359   0.00000  Uiso   1.00
C11    C     0.16547   0.16728   0.38392   0.00000  Uiso   1.00
C12    C     0.24600   0.16664   0.25059   0.00000  Uiso   1.00
C13    C     0.16787   0.16729   0.11608   0.00000  Uiso   1.00
C14    C     0.12813   0.17157   0.40743   0.00000  Uiso   1.00
C15    C     0.20521   0.17177   0.09258   0.00000  Uiso   1.00
C16    C     0.12856   0.17458   0.45434   0.00000  Uiso   1.00
C17    C     0.20478   0.17474   0.04567   0.00000  Uiso   1.00
C18    C     0.16626   0.17021   0.47668   0.00000  Uiso   1.00
C19    C     0.16709   0.17022   0.02333   0.00000  Uiso   1.00
C20    C     0.20340   0.16906   0.45260   0.00000  Uiso   1.00
C21    C     0.12995   0.16894   0.04740   0.00000  Uiso   1.00
C22    C     0.09292   0.18491   0.47977   0.00000  Uiso   1.00
C23    C     0.09289   0.17538   0.02522   0.00000  Uiso   1.00
C24    C     0.24040   0.18514   0.02023   0.00000  Uiso   1.00
C25    C     0.08863   0.16898   0.38373   0.00000  Uiso   1.00
C26    C     0.07279   0.20896   0.36288   0.00000  Uiso   1.00
C27    C     0.03190   0.20963   0.34945   0.00000  Uiso   1.00
C28    C     0.00738   0.16969   0.35449   0.00000  Uiso   1.00
C29    C     0.02386   0.12880   0.37259   0.00000  Uiso   1.00
C30    C     0.06428   0.12854   0.38765   0.00000  Uiso   1.00
C31    C     0.24471   0.16953   0.11632   0.00000  Uiso   1.00
C32    C     0.26023   0.20966   0.13719   0.00000  Uiso   1.00
C33    C     0.30111   0.21073   0.15066   0.00000  Uiso   1.00
C34    C     0.24044   0.17560   0.47478   0.00000  Uiso   1.00
C35    C     0.32595   0.17105   0.14559   0.00000  Uiso   1.00
C36    C     0.30979   0.13001   0.12747   0.00000  Uiso   1.00
C37    C     0.26938   0.12933   0.11240   0.00000  Uiso   1.00
C38    C     0.06501   0.22270   0.46501   0.00000  Uiso   1.00
C39    C     0.08071   0.26846   0.46066   0.00000  Uiso   1.00
C40    C     0.05541   0.30525   0.44721   0.00000  Uiso   1.00
C41    C     0.01424   0.29673   0.43790   0.00000  Uiso   1.00
C42    C     0.33169   0.25147   0.44214   0.00000  Uiso   1.00
C43    C     0.02354   0.21441   0.45598   0.00000  Uiso   1.00
C44    C     0.26834   0.22289   0.03499   0.00000  Uiso   1.00
C45    C     0.02126   0.12394   0.24944   0.00000  Uiso   1.00
C46    C     0.25265   0.26864   0.03949   0.00000  Uiso   1.00
C47    C     0.27801   0.30540   0.05289   0.00000  Uiso   1.00
C48    C     0.31922   0.29686   0.06200   0.00000  Uiso   1.00
C49    C     0.00175   0.25160   0.05762   0.00000  Uiso   1.00
C50    C     0.30983   0.21458   0.04384   0.00000  Uiso   1.00
C51    C     0.31210   0.20911   0.25131   0.00000  Uiso   1.00
C52    C     0.31208   0.12393   0.25028   0.00000  Uiso   1.00
C53    C     0.02123   0.20911   0.24879   0.00000  Uiso   1.00
C54    C     0.29061   0.16654   0.25109   0.00000  Uiso   1.00
Cu55   Cu    0.16667   0.21355   0.25000   0.00000  Uiso   1.00
Cu56   Cu    0.16667   0.11978   0.25000   0.00000  Uiso   1.00
H57    H     0.23131   0.16611   0.38773   0.00000  Uiso   1.00
H58    H     0.21381   0.28975   0.29777   0.00000  Uiso   1.00
H59    H     0.21381   0.04356   0.29777   0.00000  Uiso   1.00
H60    H     0.11953   0.28977   0.20223   0.00000  Uiso   1.00
H61    H     0.09104   0.24058   0.36019   0.00000  Uiso   1.00
H62    H     0.01894   0.24152   0.33610   0.00000  Uiso   1.00
H63    H     0.30890   0.17051   0.34463   0.00000  Uiso   1.00
H64    H     0.00491   0.09788   0.37637   0.00000  Uiso   1.00
H65    H     0.07611   0.09754   0.40390   0.00000  Uiso   1.00
H66    H     0.24173   0.24109   0.13990   0.00000  Uiso   1.00
H67    H     0.31381   0.24273   0.16408   0.00000  Uiso   1.00
H68    H     0.10204   0.16585   0.11227   0.00000  Uiso   1.00
H69    H     0.02443   0.17219   0.15545   0.00000  Uiso   1.00
H70    H     0.32900   0.09929   0.12367   0.00000  Uiso   1.00
H71    H     0.25780   0.09823   0.09613   0.00000  Uiso   1.00
H72    H     0.11263   0.27559   0.46778   0.00000  Uiso   1.00
H73    H     0.06775   0.00700   0.44392   0.00000  Uiso   1.00
H74    H     0.32799   0.32517   0.42725   0.00000  Uiso   1.00
H75    H     0.29990   0.24540   0.43422   0.00000  Uiso   1.00
H76    H     0.01103   0.17940   0.45904   0.00000  Uiso   1.00
H77    H     0.22071   0.27579   0.03250   0.00000  Uiso   1.00
H78    H     0.26569   0.00714   0.05629   0.00000  Uiso   1.00
H79    H     0.06490   0.17939   0.04417   0.00000  Uiso   1.00
H80    H     0.00551   0.32528   0.07259   0.00000  Uiso   1.00
H81    H     0.03357   0.24551   0.06534   0.00000  Uiso   1.00
H82    H     0.32234   0.17958   0.04065   0.00000  Uiso   1.00
H83    H     0.26843   0.17964   0.45583   0.00000  Uiso   1.00
H84    H     0.03723   0.09063   0.24932   0.00000  Uiso   1.00
H85    H     0.29615   0.24242   0.25211   0.00000  Uiso   1.00
H86    H     0.29611   0.09063   0.25025   0.00000  Uiso   1.00
H87    H     0.03717   0.24244   0.24815   0.00000  Uiso   1.00
H88    H     0.11952   0.04357   0.20223   0.00000  Uiso   1.00
N89    N     0.16667   0.28402   0.25000   0.00000  Uiso   1.00
N90    N     0.16667   0.04931   0.25000   0.00000  Uiso   1.00
O91    O     0.10655   0.20625   0.25000   0.00000  Uiso   1.00
O92    O     0.22679   0.12709   0.25001   0.00000  Uiso   1.00
O93    O     0.22679   0.20625   0.25001   0.00000  Uiso   1.00
O94    O     0.10655   0.12709   0.25000   0.00000  Uiso   1.00
O95    O     0.16666   0.20627   0.18513   0.00000  Uiso   1.00
O96    O     0.16668   0.12707   0.31487   0.00000  Uiso   1.00
O97    O     0.16668   0.20627   0.31487   0.00000  Uiso   1.00
O98    O     0.16666   0.12707   0.18513   0.00000  Uiso   1.00
C99    C     0.42066   0.16664   0.24939   0.00000  Uiso   1.00
C100   C     0.37606   0.16655   0.24884   0.00000  Uiso   1.00
C101   C     0.47381   0.02482   0.22348   0.00000  Uiso   1.00
C102   C     0.52618   0.30850   0.27653   0.00000  Uiso   1.00
C103   C     0.52619   0.02482   0.27652   0.00000  Uiso   1.00
C104   C     0.47382   0.30851   0.22347   0.00000  Uiso   1.00
C105   C     0.50030   0.16672   0.16440   0.00000  Uiso   1.00
C106   C     0.49970   0.16672   0.33560   0.00000  Uiso   1.00
C107   C     0.53609   0.16685   0.40641   0.00000  Uiso   1.00
C108   C     0.46393   0.16672   0.09359   0.00000  Uiso   1.00
C109   C     0.49881   0.16728   0.38392   0.00000  Uiso   1.00
C110   C     0.57934   0.16664   0.25059   0.00000  Uiso   1.00
C111   C     0.50121   0.16729   0.11608   0.00000  Uiso   1.00
C112   C     0.46146   0.17157   0.40743   0.00000  Uiso   1.00
C113   C     0.53854   0.17177   0.09258   0.00000  Uiso   1.00
C114   C     0.46189   0.17458   0.45434   0.00000  Uiso   1.00
C115   C     0.53811   0.17474   0.04567   0.00000  Uiso   1.00
C116   C     0.49960   0.17021   0.47668   0.00000  Uiso   1.00
C117   C     0.50042   0.17022   0.02333   0.00000  Uiso   1.00
C118   C     0.53673   0.16906   0.45260   0.00000  Uiso   1.00
C119   C     0.46328   0.16894   0.04740   0.00000  Uiso   1.00
C120   C     0.42625   0.18491   0.47977   0.00000  Uiso   1.00
C121   C     0.42623   0.17538   0.02522   0.00000  Uiso   1.00
C122   C     0.57373   0.18514   0.02023   0.00000  Uiso   1.00
C123   C     0.42196   0.16898   0.38373   0.00000  Uiso   1.00
C124   C     0.40612   0.20896   0.36288   0.00000  Uiso   1.00
C125   C     0.36523   0.20963   0.34945   0.00000  Uiso   1.00
C126   C     0.34071   0.16969   0.35449   0.00000  Uiso   1.00
C127   C     0.35720   0.12880   0.37259   0.00000  Uiso   1.00
C128   C     0.39762   0.12854   0.38765   0.00000  Uiso   1.00
C129   C     0.57804   0.16953   0.11632   0.00000  Uiso   1.00
C130   C     0.59357   0.20966   0.13719   0.00000  Uiso   1.00
C131   C     0.63444   0.21073   0.15066   0.00000  Uiso   1.00
C132   C     0.57377   0.17560   0.47478   0.00000  Uiso   1.00
C133   C     0.65929   0.17105   0.14559   0.00000  Uiso   1.00
C134   C     0.64313   0.13001   0.12747   0.00000  Uiso   1.00
C135   C     0.60271   0.12933   0.11240   0.00000  Uiso   1.00
C136   C     0.39835   0.22270   0.46501   0.00000  Uiso   1.00
C137   C     0.41405   0.26846   0.46066   0.00000  Uiso   1.00
C138   C     0.38874   0.30525   0.44721   0.00000  Uiso   1.00
C139   C     0.34757   0.29673   0.43790   0.00000  Uiso   1.00
C140   C     0.66502   0.25147   0.44214   0.00000  Uiso   1.00
C141   C     0.35688   0.21441   0.45598   0.00000  Uiso   1.00
C142   C     0.60167   0.22289   0.03499   0.00000  Uiso   1.00
C143   C     0.35460   0.12394   0.24944   0.00000  Uiso   1.00
C144   C     0.58599   0.26864   0.03949   0.00000  Uiso   1.00
C145   C     0.61134   0.30540   0.05289   0.00000  Uiso   1.00
C146   C     0.65255   0.29686   0.06200   0.00000  Uiso   1.00
C147   C     0.33508   0.25160   0.05762   0.00000  Uiso   1.00
C148   C     0.64317   0.21458   0.04384   0.00000  Uiso   1.00
C149   C     0.64543   0.20911   0.25131   0.00000  Uiso   1.00
C150   C     0.64541   0.12393   0.25028   0.00000  Uiso   1.00
C151   C     0.35456   0.20911   0.24879   0.00000  Uiso   1.00
C152   C     0.62394   0.16654   0.25109   0.00000  Uiso   1.00
Cu153  Cu    0.50000   0.21355   0.25000   0.00000  Uiso   1.00
Cu154  Cu    0.50000   0.11978   0.25000   0.00000  Uiso   1.00
H155   H     0.56465   0.16611   0.38773   0.00000  Uiso   1.00
H156   H     0.54714   0.28975   0.29777   0.00000  Uiso   1.00
H157   H     0.54714   0.04356   0.29777   0.00000  Uiso   1.00
H158   H     0.45286   0.28977   0.20223   0.00000  Uiso   1.00
H159   H     0.42437   0.24058   0.36019   0.00000  Uiso   1.00
H160   H     0.35227   0.24152   0.33610   0.00000  Uiso   1.00
H161   H     0.64223   0.17051   0.34463   0.00000  Uiso   1.00
H162   H     0.33824   0.09788   0.37637   0.00000  Uiso   1.00
H163   H     0.40945   0.09754   0.40390   0.00000  Uiso   1.00
H164   H     0.57507   0.24109   0.13990   0.00000  Uiso   1.00
H165   H     0.64714   0.24273   0.16408   0.00000  Uiso   1.00
H166   H     0.43537   0.16585   0.11227   0.00000  Uiso   1.00
H167   H     0.35777   0.17219   0.15545   0.00000  Uiso   1.00
H168   H     0.66234   0.09929   0.12367   0.00000  Uiso   1.00
H169   H     0.59113   0.09823   0.09613   0.00000  Uiso   1.00
H170   H     0.44596   0.27559   0.46778   0.00000  Uiso   1.00
H171   H     0.40108   0.00700   0.44392   0.00000  Uiso   1.00
H172   H     0.66132   0.32517   0.42725   0.00000  Uiso   1.00
H173   H     0.63323   0.24540   0.43422   0.00000  Uiso   1.00
H174   H     0.34437   0.17940   0.45904   0.00000  Uiso   1.00
H175   H     0.55404   0.27579   0.03250   0.00000  Uiso   1.00
H176   H     0.59902   0.00714   0.05629   0.00000  Uiso   1.00
H177   H     0.39823   0.17939   0.04417   0.00000  Uiso   1.00
H178   H     0.33885   0.32528   0.07259   0.00000  Uiso   1.00
H179   H     0.36691   0.24551   0.06534   0.00000  Uiso   1.00
H180   H     0.65567   0.17958   0.04065   0.00000  Uiso   1.00
H181   H     0.60176   0.17964   0.45583   0.00000  Uiso   1.00
H182   H     0.37057   0.09063   0.24932   0.00000  Uiso   1.00
H183   H     0.62949   0.24242   0.25211   0.00000  Uiso   1.00
H184   H     0.62944   0.09063   0.25025   0.00000  Uiso   1.00
H185   H     0.37051   0.24244   0.24815   0.00000  Uiso   1.00
H186   H     0.45286   0.04357   0.20223   0.00000  Uiso   1.00
N187   N     0.50000   0.28402   0.25000   0.00000  Uiso   1.00
N188   N     0.50000   0.04931   0.25000   0.00000  Uiso   1.00
O189   O     0.43988   0.20625   0.25000   0.00000  Uiso   1.00
O190   O     0.56012   0.12709   0.25001   0.00000  Uiso   1.00
O191   O     0.56012   0.20625   0.25001   0.00000  Uiso   1.00
O192   O     0.43988   0.12709   0.25000   0.00000  Uiso   1.00
O193   O     0.49999   0.20627   0.18513   0.00000  Uiso   1.00
O194   O     0.50001   0.12707   0.31487   0.00000  Uiso   1.00
O195   O     0.50001   0.20627   0.31487   0.00000  Uiso   1.00
O196   O     0.49999   0.12707   0.18513   0.00000  Uiso   1.00
C197   C     0.75400   0.16664   0.24939   0.00000  Uiso   1.00
C198   C     0.70939   0.16655   0.24884   0.00000  Uiso   1.00
C199   C     0.80715   0.02482   0.22348   0.00000  Uiso   1.00
C200   C     0.85952   0.30850   0.27653   0.00000  Uiso   1.00
C201   C     0.85952   0.02482   0.27652   0.00000  Uiso   1.00
C202   C     0.80715   0.30851   0.22347   0.00000  Uiso   1.00
C203   C     0.83364   0.16672   0.16440   0.00000  Uiso   1.00
C204   C     0.83303   0.16672   0.33560   0.00000  Uiso   1.00
C205   C     0.86942   0.16685   0.40641   0.00000  Uiso   1.00
C206   C     0.79726   0.16672   0.09359   0.00000  Uiso   1.00
C207   C     0.83214   0.16728   0.38392   0.00000  Uiso   1.00
C208   C     0.91267   0.16664   0.25059   0.00000  Uiso   1.00
C209   C     0.83454   0.16729   0.11608   0.00000  Uiso   1.00
C210   C     0.79479   0.17157   0.40743   0.00000  Uiso   1.00
C211   C     0.87188   0.17177   0.09258   0.00000  Uiso   1.00
C212   C     0.79522   0.17458   0.45434   0.00000  Uiso   1.00
C213   C     0.87145   0.17474   0.04567   0.00000  Uiso   1.00
C214   C     0.83293   0.17021   0.47668   0.00000  Uiso   1.00
C215   C     0.83375   0.17022   0.02333   0.00000  Uiso   1.00
C216   C     0.87007   0.16906   0.45260   0.00000  Uiso   1.00
C217   C     0.79662   0.16894   0.04740   0.00000  Uiso   1.00
C218   C     0.75959   0.18491   0.47977   0.00000  Uiso   1.00
C219   C     0.75956   0.17538   0.02522   0.00000  Uiso   1.00
C220   C     0.90706   0.18514   0.02023   0.00000  Uiso   1.00
C221   C     0.75530   0.16898   0.38373   0.00000  Uiso   1.00
C222   C     0.73946   0.20896   0.36288   0.00000  Uiso   1.00
C223   C     0.69857   0.20963   0.34945   0.00000  Uiso   1.00
C224   C     0.67405   0.16969   0.35449   0.00000  Uiso   1.00
C225   C     0.69053   0.12880   0.37259   0.00000  Uiso   1.00
C226   C     0.73095   0.12854   0.38765   0.00000  Uiso   1.00
C227   C     0.91138   0.16953   0.11632   0.00000  Uiso   1.00
C228   C     0.92690   0.20966   0.13719   0.00000  Uiso   1.00
C229   C     0.96778   0.21073   0.15066   0.00000  Uiso   1.00
C230   C     0.90710   0.17560   0.47478   0.00000  Uiso   1.00
C231   C     0.99262   0.17105   0.14559   0.00000  Uiso   1.00
C232   C     0.97646   0.13001   0.12747   0.00000  Uiso   1.00
C233   C     0.93604   0.12933   0.11240   0.00000  Uiso   1.00
C234   C     0.73168   0.22270   0.46501   0.00000  Uiso   1.00
C235   C     0.74738   0.26846   0.46066   0.00000  Uiso   1.00
C236   C     0.72207   0.30525   0.44721   0.00000  Uiso   1.00
C237   C     0.68091   0.29673   0.43790   0.00000  Uiso   1.00
C238   C     0.99836   0.25147   0.44214   0.00000  Uiso   1.00
C239   C     0.69021   0.21441   0.45598   0.00000  Uiso   1.00
C240   C     0.93500   0.22289   0.03499   0.00000  Uiso   1.00
C241   C     0.68793   0.12394   0.24944   0.00000  Uiso   1.00
C242   C     0.91932   0.26864   0.03949   0.00000  Uiso   1.00
C243   C     0.94468   0.30540   0.05289   0.00000  Uiso   1.00
C244   C     0.98588   0.29686   0.06200   0.00000  Uiso   1.00
C245   C     0.66842   0.25160   0.05762   0.00000  Uiso   1.00
C246   C     0.97650   0.21458   0.04384   0.00000  Uiso   1.00
C247   C     0.97877   0.20911   0.25131   0.00000  Uiso   1.00
C248   C     0.97874   0.12393   0.25028   0.00000  Uiso   1.00
C249   C     0.68790   0.20911   0.24879   0.00000  Uiso   1.00
C250   C     0.95728   0.16654   0.25109   0.00000  Uiso   1.00
Cu251  Cu    0.83333   0.21355   0.25000   0.00000  Uiso   1.00
Cu252  Cu    0.83333   0.11978   0.25000   0.00000  Uiso   1.00
H253   H     0.89798   0.16611   0.38773   0.00000  Uiso   1.00
H254   H     0.88047   0.28975   0.29777   0.00000  Uiso   1.00
H255   H     0.88048   0.04356   0.29777   0.00000  Uiso   1.00
H256   H     0.78619   0.28977   0.20223   0.00000  Uiso   1.00
H257   H     0.75771   0.24058   0.36019   0.00000  Uiso   1.00
H258   H     0.68560   0.24152   0.33610   0.00000  Uiso   1.00
H259   H     0.97556   0.17051   0.34463   0.00000  Uiso   1.00
H260   H     0.67157   0.09788   0.37637   0.00000  Uiso   1.00
H261   H     0.74278   0.09754   0.40390   0.00000  Uiso   1.00
H262   H     0.90840   0.24109   0.13990   0.00000  Uiso   1.00
H263   H     0.98047   0.24273   0.16408   0.00000  Uiso   1.00
H264   H     0.76870   0.16585   0.11227   0.00000  Uiso   1.00
H265   H     0.69110   0.17219   0.15545   0.00000  Uiso   1.00
H266   H     0.99567   0.09929   0.12367   0.00000  Uiso   1.00
H267   H     0.92447   0.09823   0.09613   0.00000  Uiso   1.00
H268   H     0.77930   0.27559   0.46778   0.00000  Uiso   1.00
H269   H     0.73441   0.00700   0.44392   0.00000  Uiso   1.00
H270   H     0.99465   0.32517   0.42725   0.00000  Uiso   1.00
H271   H     0.96657   0.24540   0.43422   0.00000  Uiso   1.00
H272   H     0.67770   0.17940   0.45904   0.00000  Uiso   1.00
H273   H     0.88738   0.27579   0.03250   0.00000  Uiso   1.00
H274   H     0.93235   0.00714   0.05629   0.00000  Uiso   1.00
H275   H     0.73157   0.17939   0.04417   0.00000  Uiso   1.00
H276   H     0.67218   0.32528   0.07259   0.00000  Uiso   1.00
H277   H     0.70024   0.24551   0.06534   0.00000  Uiso   1.00
H278   H     0.98900   0.17958   0.04065   0.00000  Uiso   1.00
H279   H     0.93509   0.17964   0.45583   0.00000  Uiso   1.00
H280   H     0.70390   0.09063   0.24932   0.00000  Uiso   1.00
H281   H     0.96282   0.24242   0.25211   0.00000  Uiso   1.00
H282   H     0.96278   0.09063   0.25025   0.00000  Uiso   1.00
H283   H     0.70384   0.24244   0.24815   0.00000  Uiso   1.00
H284   H     0.78619   0.04357   0.20223   0.00000  Uiso   1.00
N285   N     0.83333   0.28402   0.25000   0.00000  Uiso   1.00
N286   N     0.83333   0.04931   0.25000   0.00000  Uiso   1.00
O287   O     0.77321   0.20625   0.25000   0.00000  Uiso   1.00
O288   O     0.89345   0.12709   0.25001   0.00000  Uiso   1.00
O289   O     0.89345   0.20625   0.25001   0.00000  Uiso   1.00
O290   O     0.77321   0.12709   0.25000   0.00000  Uiso   1.00
O291   O     0.83332   0.20627   0.18513   0.00000  Uiso   1.00
O292   O     0.83334   0.12707   0.31487   0.00000  Uiso   1.00
O293   O     0.83334   0.20627   0.31487   0.00000  Uiso   1.00
O294   O     0.83332   0.12707   0.18513   0.00000  Uiso   1.00
C295   C     0.08733   0.49998   0.24939   0.00000  Uiso   1.00
C296   C     0.04273   0.49988   0.24884   0.00000  Uiso   1.00
C297   C     0.14048   0.35816   0.22348   0.00000  Uiso   1.00
C298   C     0.19285   0.64184   0.27653   0.00000  Uiso   1.00
C299   C     0.19285   0.35815   0.27652   0.00000  Uiso   1.00
C300   C     0.14048   0.64184   0.22347   0.00000  Uiso   1.00
C301   C     0.16697   0.50006   0.16440   0.00000  Uiso   1.00
C302   C     0.16637   0.50005   0.33560   0.00000  Uiso   1.00
C303   C     0.20275   0.50019   0.40641   0.00000  Uiso   1.00
C304   C     0.13060   0.50005   0.09359   0.00000  Uiso   1.00
C305   C     0.16547   0.50061   0.38392   0.00000  Uiso   1.00
C306   C     0.24600   0.49997   0.25059   0.00000  Uiso   1.00
C307   C     0.16787   0.50063   0.11608   0.00000  Uiso   1.00
C308   C     0.12813   0.50491   0.40743   0.00000  Uiso   1.00
C309   C     0.20521   0.50511   0.09258   0.00000  Uiso   1.00
C310   C     0.12856   0.50791   0.45434   0.00000  Uiso   1.00
C311   C     0.20478   0.50807   0.04567   0.00000  Uiso   1.00
C312   C     0.16626   0.50354   0.47668   0.00000  Uiso   1.00
C313   C     0.16709   0.50355   0.02333   0.00000  Uiso   1.00
C314   C     0.20340   0.50239   0.45260   0.00000  Uiso   1.00
C315   C     0.12995   0.50228   0.04740   0.00000  Uiso   1.00
C316   C     0.09292   0.51824   0.47977   0.00000  Uiso   1.00
C317   C     0.09289   0.50872   0.02522   0.00000  Uiso   1.00
C318   C     0.24040   0.51848   0.02023   0.00000  Uiso   1.00
C319   C     0.08863   0.50232   0.38373   0.00000  Uiso   1.00
C320   C     0.07279   0.54229   0.36288   0.00000  Uiso   1.00
C321   C     0.03190   0.54296   0.34945   0.00000  Uiso   1.00
C322   C     0.00738   0.50302   0.35449   0.00000  Uiso   1.00
C323   C     0.02386   0.46214   0.37259   0.00000  Uiso   1.00
C324   C     0.06428   0.46187   0.38765   0.00000  Uiso   1.00
C325   C     0.24471   0.50287   0.11632   0.00000  Uiso   1.00
C326   C     0.26023   0.54299   0.13719   0.00000  Uiso   1.00
C327   C     0.30111   0.54406   0.15066   0.00000  Uiso   1.00
C328   C     0.24044   0.50893   0.47478   0.00000  Uiso   1.00
C329   C     0.32595   0.50438   0.14559   0.00000  Uiso   1.00
C330   C     0.30979   0.46334   0.12747   0.00000  Uiso   1.00
C331   C     0.26938   0.46267   0.11240   0.00000  Uiso   1.00
C332   C     0.06501   0.55603   0.46501   0.00000  Uiso   1.00
C333   C     0.08071   0.60179   0.46066   0.00000  Uiso   1.00
C334   C     0.05541   0.63858   0.44721   0.00000  Uiso   1.00
C335   C     0.01424   0.63006   0.43790   0.00000  Uiso   1.00
C336   C     0.33169   0.58480   0.44214   0.00000  Uiso   1.00
C337   C     0.02354   0.54775   0.45598   0.00000  Uiso   1.00
C338   C     0.26834   0.55623   0.03499   0.00000  Uiso   1.00
C339   C     0.02126   0.45727   0.24944   0.00000  Uiso   1.00
C340   C     0.25265   0.60198   0.03949   0.00000  Uiso   1.00
C341   C     0.27801   0.63873   0.05289   0.00000  Uiso   1.00
C342   C     0.31922   0.63019   0.06200   0.00000  Uiso   1.00
C343   C     0.00175   0.58494   0.05762   0.00000  Uiso   1.00
C344   C     0.30983   0.54792   0.04384   0.00000  Uiso   1.00
C345   C     0.31210   0.54244   0.25131   0.00000  Uiso   1.00
C346   C     0.31208   0.45727   0.25028   0.00000  Uiso   1.00
C347   C     0.02123   0.54245   0.24879   0.00000  Uiso   1.00
C348   C     0.29061   0.49987   0.25109   0.00000  Uiso   1.00
Cu349  Cu    0.16667   0.54689   0.25000   0.00000  Uiso   1.00
Cu350  Cu    0.16667   0.45311   0.25000   0.00000  Uiso   1.00
H351   H     0.23131   0.49944   0.38773   0.00000  Uiso   1.00
H352   H     0.21381   0.62309   0.29777   0.00000  Uiso   1.00
H353   H     0.21381   0.37689   0.29777   0.00000  Uiso   1.00
H354   H     0.11953   0.62310   0.20223   0.00000  Uiso   1.00
H355   H     0.09104   0.57391   0.36019   0.00000  Uiso   1.00
H356   H     0.01894   0.57485   0.33610   0.00000  Uiso   1.00
H357   H     0.30890   0.50384   0.34463   0.00000  Uiso   1.00
H358   H     0.00491   0.43122   0.37637   0.00000  Uiso   1.00
H359   H     0.07611   0.43088   0.40390   0.00000  Uiso   1.00
H360   H     0.24173   0.57443   0.13990   0.00000  Uiso   1.00
H361   H     0.31381   0.57607   0.16408   0.00000  Uiso   1.00
H362   H     0.10204   0.49918   0.11227   0.00000  Uiso   1.00
H363   H     0.02443   0.50552   0.15545   0.00000  Uiso   1.00
H364   H     0.32900   0.43262   0.12367   0.00000  Uiso   1.00
H365   H     0.25780   0.43156   0.09613   0.00000  Uiso   1.00
H366   H     0.11263   0.60892   0.46778   0.00000  Uiso   1.00
H367   H     0.06775   0.34033   0.44392   0.00000  Uiso   1.00
H368   H     0.32799   0.65851   0.42725   0.00000  Uiso   1.00
H369   H     0.29990   0.57873   0.43422   0.00000  Uiso   1.00
H370   H     0.01103   0.51274   0.45904   0.00000  Uiso   1.00
H371   H     0.22071   0.60913   0.03250   0.00000  Uiso   1.00
H372   H     0.26569   0.34048   0.05629   0.00000  Uiso   1.00
H373   H     0.06490   0.51273   0.04417   0.00000  Uiso   1.00
H374   H     0.00551   0.65861   0.07259   0.00000  Uiso   1.00
H375   H     0.03357   0.57885   0.06534   0.00000  Uiso   1.00
H376   H     0.32234   0.51291   0.04065   0.00000  Uiso   1.00
H377   H     0.26843   0.51298   0.45583   0.00000  Uiso   1.00
H378   H     0.03723   0.42396   0.24932   0.00000  Uiso   1.00
H379   H     0.29615   0.57576   0.25211   0.00000  Uiso   1.00
H380   H     0.29611   0.42396   0.25025   0.00000  Uiso   1.00
H381   H     0.03717   0.57577   0.24815   0.00000  Uiso   1.00
H382   H     0.11952   0.37690   0.20223   0.00000  Uiso   1.00
N383   N     0.16667   0.61736   0.25000   0.00000  Uiso   1.00
N384   N     0.16667   0.38264   0.25000   0.00000  Uiso   1.00
O385   O     0.10655   0.53958   0.25000   0.00000  Uiso   1.00
O386   O     0.22679   0.46042   0.25001   0.00000  Uiso   1.00
O387   O     0.22679   0.53958   0.25001   0.00000  Uiso   1.00
O388   O     0.10655   0.46042   0.25000   0.00000  Uiso   1.00
O389   O     0.16666   0.53960   0.18513   0.00000  Uiso   1.00
O390   O     0.16668   0.46040   0.31487   0.00000  Uiso   1.00
O391   O     0.16668   0.53960   0.31487   0.00000  Uiso   1.00
O392   O     0.16666   0.46040   0.18513   0.00000  Uiso   1.00
C393   C     0.42066   0.49998   0.24939   0.00000  Uiso   1.00
C394   C     0.37606   0.49988   0.24884   0.00000  Uiso   1.00
C395   C     0.47381   0.35816   0.22348   0.00000  Uiso   1.00
C396   C     0.52618   0.64184   0.27653   0.00000  Uiso   1.00
C397   C     0.52619   0.35815   0.27652   0.00000  Uiso   1.00
C398   C     0.47382   0.64184   0.22347   0.00000  Uiso   1.00
C399   C     0.50030   0.50006   0.16440   0.00000  Uiso   1.00
C400   C     0.49970   0.50005   0.33560   0.00000  Uiso   1.00
C401   C     0.53609   0.50019   0.40641   0.00000  Uiso   1.00
C402   C     0.46393   0.50005   0.09359   0.00000  Uiso   1.00
C403   C     0.49881   0.50061   0.38392   0.00000  Uiso   1.00
C404   C     0.57934   0.49997   0.25059   0.00000  Uiso   1.00
C405   C     0.50121   0.50063   0.11608   0.00000  Uiso   1.00
C406   C     0.46146   0.50491   0.40743   0.00000  Uiso   1.00
C407   C     0.53854   0.50511   0.09258   0.00000  Uiso   1.00
C408   C     0.46189   0.50791   0.45434   0.00000  Uiso   1.00
C409   C     0.53811   0.50807   0.04567   0.00000  Uiso   1.00
C410   C     0.49960   0.50354   0.47668   0.00000  Uiso   1.00
C411   C     0.50042   0.50355   0.02333   0.00000  Uiso   1.00
C412   C     0.53673   0.50239   0.45260   0.00000  Uiso   1.00
C413   C     0.46328   0.50228   0.04740   0.00000  Uiso   1.00
C414   C     0.42625   0.51824   0.47977   0.00000  Uiso   1.00
C415   C     0.42623   0.50872   0.02522   0.00000  Uiso   1.00
C416   C     0.57373   0.51848   0.02023   0.00000  Uiso   1.00
C417   C     0.42196   0.50232   0.38373   0.00000  Uiso   1.00
C418   C     0.40612   0.54229   0.36288   0.00000  Uiso   1.00
C419   C     0.36523   0.54296   0.34945   0.00000  Uiso   1.00
C420   C     0.34071   0.50302   0.35449   0.00000  Uiso   1.00
C421   C     0.35720   0.46214   0.37259   0.00000  Uiso   1.00
C422   C     0.39762   0.46187   0.38765   0.00000  Uiso   1.00
C423   C     0.57804   0.50287   0.11632   0.00000  Uiso   1.00
C424   C     0.59357   0.54299   0.13719   0.00000  Uiso   1.00
C425   C     0.63444   0.54406   0.15066   0.00000  Uiso   1.00
C426   C     0.57377   0.50893   0.47478   0.00000  Uiso   1.00
C427   C     0.65929   0.50438   0.14559   0.00000  Uiso   1.00
C428   C     0.64313   0.46334   0.12747   0.00000  Uiso   1.00
C429   C     0.60271   0.46267   0.11240   0.00000  Uiso   1.00
C430   C     0.39835   0.55603   0.46501   0.00000  Uiso   1.00
C431   C     0.41405   0.60179   0.46066   0.00000  Uiso   1.00
C432   C     0.38874   0.63858   0.44721   0.00000  Uiso   1.00
C433   C     0.34757   0.63006   0.43790   0.00000  Uiso   1.00
C434   C     0.66502   0.58480   0.44214   0.00000  Uiso   1.00
C435   C     0.35688   0.54775   0.45598   0.00000  Uiso   1.00
C436   C     0.60167   0.55623   0.03499   0.00000  Uiso   1.00
C437   C     0.35460   0.45727   0.24944   0.00000  Uiso   1.00
C438   C     0.58599   0.60198   0.03949   0.00000  Uiso   1.00
C439   C     0.61134   0.63873   0.05289   0.00000  Uiso   1.00
C440   C     0.65255   0.63019   0.06200   0.00000  Uiso   1.00
C441   C     0.33508   0.58494   0.05762   0.00000  Uiso   1.00
C442   C     0.64317   0.54792   0.04384   0.00000  Uiso   1.00
C443   C     0.64543   0.54244   0.25131   0.00000  Uiso   1.00
C444   C     0.64541   0.45727   0.25028   0.00000  Uiso   1.00
C445   C     0.35456   0.54245   0.24879   0.00000  Uiso   1.00
C446   C     0.62394   0.49987   0.25109   0.00000  Uiso   1.00
Cu447  Cu    0.50000   0.54689   0.25000   0.00000  Uiso   1.00
Cu448  Cu    0.50000   0.45311   0.25000   0.00000  Uiso   1.00
H449   H     0.56465   0.49944   0.38773   0.00000  Uiso   1.00
H450   H     0.54714   0.62309   0.29777   0.00000  Uiso   1.00
H451   H     0.54714   0.37689   0.29777   0.00000  Uiso   1.00
H452   H     0.45286   0.62310   0.20223   0.00000  Uiso   1.00
H453   H     0.42437   0.57391   0.36019   0.00000  Uiso   1.00
H454   H     0.35227   0.57485   0.33610   0.00000  Uiso   1.00
H455   H     0.64223   0.50384   0.34463   0.00000  Uiso   1.00
H456   H     0.33824   0.43122   0.37637   0.00000  Uiso   1.00
H457   H     0.40945   0.43088   0.40390   0.00000  Uiso   1.00
H458   H     0.57507   0.57443   0.13990   0.00000  Uiso   1.00
H459   H     0.64714   0.57607   0.16408   0.00000  Uiso   1.00
H460   H     0.43537   0.49918   0.11227   0.00000  Uiso   1.00
H461   H     0.35777   0.50552   0.15545   0.00000  Uiso   1.00
H462   H     0.66234   0.43262   0.12367   0.00000  Uiso   1.00
H463   H     0.59113   0.43156   0.09613   0.00000  Uiso   1.00
H464   H     0.44596   0.60892   0.46778   0.00000  Uiso   1.00
H465   H     0.40108   0.34033   0.44392   0.00000  Uiso   1.00
H466   H     0.66132   0.65851   0.42725   0.00000  Uiso   1.00
H467   H     0.63323   0.57873   0.43422   0.00000  Uiso   1.00
H468   H     0.34437   0.51274   0.45904   0.00000  Uiso   1.00
H469   H     0.55404   0.60913   0.03250   0.00000  Uiso   1.00
H470   H     0.59902   0.34048   0.05629   0.00000  Uiso   1.00
H471   H     0.39823   0.51273   0.04417   0.00000  Uiso   1.00
H472   H     0.33885   0.65861   0.07259   0.00000  Uiso   1.00
H473   H     0.36691   0.57885   0.06534   0.00000  Uiso   1.00
H474   H     0.65567   0.51291   0.04065   0.00000  Uiso   1.00
H475   H     0.60176   0.51298   0.45583   0.00000  Uiso   1.00
H476   H     0.37057   0.42396   0.24932   0.00000  Uiso   1.00
H477   H     0.62949   0.57576   0.25211   0.00000  Uiso   1.00
H478   H     0.62944   0.42396   0.25025   0.00000  Uiso   1.00
H479   H     0.37051   0.57577   0.24815   0.00000  Uiso   1.00
H480   H     0.45286   0.37690   0.20223   0.00000  Uiso   1.00
N481   N     0.50000   0.61736   0.25000   0.00000  Uiso   1.00
N482   N     0.50000   0.38264   0.25000   0.00000  Uiso   1.00
O483   O     0.43988   0.53958   0.25000   0.00000  Uiso   1.00
O484   O     0.56012   0.46042   0.25001   0.00000  Uiso   1.00
O485   O     0.56012   0.53958   0.25001   0.00000  Uiso   1.00
O486   O     0.43988   0.46042   0.25000   0.00000  Uiso   1.00
O487   O     0.49999   0.53960   0.18513   0.00000  Uiso   1.00
O488   O     0.50001   0.46040   0.31487   0.00000  Uiso   1.00
O489   O     0.50001   0.53960   0.31487   0.00000  Uiso   1.00
O490   O     0.49999   0.46040   0.18513   0.00000  Uiso   1.00
C491   C     0.75400   0.49998   0.24939   0.00000  Uiso   1.00
C492   C     0.70939   0.49988   0.24884   0.00000  Uiso   1.00
C493   C     0.80715   0.35816   0.22348   0.00000  Uiso   1.00
C494   C     0.85952   0.64184   0.27653   0.00000  Uiso   1.00
C495   C     0.85952   0.35815   0.27652   0.00000  Uiso   1.00
C496   C     0.80715   0.64184   0.22347   0.00000  Uiso   1.00
C497   C     0.83364   0.50006   0.16440   0.00000  Uiso   1.00
C498   C     0.83303   0.50005   0.33560   0.00000  Uiso   1.00
C499   C     0.86942   0.50019   0.40641   0.00000  Uiso   1.00
C500   C     0.79726   0.50005   0.09359   0.00000  Uiso   1.00
C501   C     0.83214   0.50061   0.38392   0.00000  Uiso   1.00
C502   C     0.91267   0.49997   0.25059   0.00000  Uiso   1.00
C503   C     0.83454   0.50063   0.11608   0.00000  Uiso   1.00
C504   C     0.79479   0.50491   0.40743   0.00000  Uiso   1.00
C505   C     0.87188   0.50511   0.09258   0.00000  Uiso   1.00
C506   C     0.79522   0.50791   0.45434   0.00000  Uiso   1.00
C507   C     0.87145   0.50807   0.04567   0.00000  Uiso   1.00
C508   C     0.83293   0.50354   0.47668   0.00000  Uiso   1.00
C509   C     0.83375   0.50355   0.02333   0.00000  Uiso   1.00
C510   C     0.87007   0.50239   0.45260   0.00000  Uiso   1.00
C511   C     0.79662   0.50228   0.04740   0.00000  Uiso   1.00
C512   C     0.75959   0.51824   0.47977   0.00000  Uiso   1.00
C513   C     0.75956   0.50872   0.02522   0.00000  Uiso   1.00
C514   C     0.90706   0.51848   0.02023   0.00000  Uiso   1.00
C515   C     0.75530   0.50232   0.38373   0.00000  Uiso   1.00
C516   C     0.73946   0.54229   0.36288   0.00000  Uiso   1.00
C517   C     0.69857   0.54296   0.34945   0.00000  Uiso   1.00
C518   C     0.67405   0.50302   0.35449   0.00000  Uiso   1.00
C519   C     0.69053   0.46214   0.37259   0.00000  Uiso   1.00
C520   C     0.73095   0.46187   0.38765   0.00000  Uiso   1.00
C521   C     0.91138   0.50287   0.11632   0.00000  Uiso   1.00
C522   C     0.92690   0.54299   0.13719   0.00000  Uiso   1.00
C523   C     0.96778   0.54406   0.15066   0.00000  Uiso   1.00
C524   C     0.90710   0.50893   0.47478   0.00000  Uiso   1.00
C525   C     0.99262   0.50438   0.14559   0.00000  Uiso   1.00
C526   C     0.97646   0.46334   0.12747   0.00000  Uiso   1.00
C527   C     0.93604   0.46267   0.11240   0.00000  Uiso   1.00
C528   C     0.73168   0.55603   0.46501   0.00000  Uiso   1.00
C529   C     0.74738   0.60179   0.46066   0.00000  Uiso   1.00
C530   C     0.72207   0.63858   0.44721   0.00000  Uiso   1.00
C531   C     0.68091   0.63006   0.43790   0.00000  Uiso   1.00
C532   C     0.99836   0.58480   0.44214   0.00000  Uiso   1.00
C533   C     0.69021   0.54775   0.45598   0.00000  Uiso   1.00
C534   C     0.93500   0.55623   0.03499   0.00000  Uiso   1.00
C535   C     0.68793   0.45727   0.24944   0.00000  Uiso   1.00
C536   C     0.91932   0.60198   0.03949   0.00000  Uiso   1.00
C537   C     0.94468   0.63873   0.05289   0.00000  Uiso   1.00
C538   C     0.98588   0.63019   0.06200   0.00000  Uiso   1.00
C539   C     0.66842   0.58494   0.05762   0.00000  Uiso   1.00
C540   C     0.97650   0.54792   0.04384   0.00000  Uiso   1.00
C541   C     0.97877   0.54244   0.25131   0.00000  Uiso   1.00
C542   C     0.97874   0.45727   0.25028   0.00000  Uiso   1.00
C543   C     0.68790   0.54245   0.24879   0.00000  Uiso   1.00
C544   C     0.95728   0.49987   0.25109   0.00000  Uiso   1.00
Cu545  Cu    0.83333   0.54689   0.25000   0.00000  Uiso   1.00
Cu546  Cu    0.83333   0.45311   0.25000   0.00000  Uiso   1.00
H547   H     0.89798   0.49944   0.38773   0.00000  Uiso   1.00
H548   H     0.88047   0.62309   0.29777   0.00000  Uiso   1.00
H549   H     0.88048   0.37689   0.29777   0.00000  Uiso   1.00
H550   H     0.78619   0.62310   0.20223   0.00000  Uiso   1.00
H551   H     0.75771   0.57391   0.36019   0.00000  Uiso   1.00
H552   H     0.68560   0.57485   0.33610   0.00000  Uiso   1.00
H553   H     0.97556   0.50384   0.34463   0.00000  Uiso   1.00
H554   H     0.67157   0.43122   0.37637   0.00000  Uiso   1.00
H555   H     0.74278   0.43088   0.40390   0.00000  Uiso   1.00
H556   H     0.90840   0.57443   0.13990   0.00000  Uiso   1.00
H557   H     0.98047   0.57607   0.16408   0.00000  Uiso   1.00
H558   H     0.76870   0.49918   0.11227   0.00000  Uiso   1.00
H559   H     0.69110   0.50552   0.15545   0.00000  Uiso   1.00
H560   H     0.99567   0.43262   0.12367   0.00000  Uiso   1.00
H561   H     0.92447   0.43156   0.09613   0.00000  Uiso   1.00
H562   H     0.77930   0.60892   0.46778   0.00000  Uiso   1.00
H563   H     0.73441   0.34033   0.44392   0.00000  Uiso   1.00
H564   H     0.99465   0.65851   0.42725   0.00000  Uiso   1.00
H565   H     0.96657   0.57873   0.43422   0.00000  Uiso   1.00
H566   H     0.67770   0.51274   0.45904   0.00000  Uiso   1.00
H567   H     0.88738   0.60913   0.03250   0.00000  Uiso   1.00
H568   H     0.93235   0.34048   0.05629   0.00000  Uiso   1.00
H569   H     0.73157   0.51273   0.04417   0.00000  Uiso   1.00
H570   H     0.67218   0.65861   0.07259   0.00000  Uiso   1.00
H571   H     0.70024   0.57885   0.06534   0.00000  Uiso   1.00
H572   H     0.98900   0.51291   0.04065   0.00000  Uiso   1.00
H573   H     0.93509   0.51298   0.45583   0.00000  Uiso   1.00
H574   H     0.70390   0.42396   0.24932   0.00000  Uiso   1.00
H575   H     0.96282   0.57576   0.25211   0.00000  Uiso   1.00
H576   H     0.96278   0.42396   0.25025   0.00000  Uiso   1.00
H577   H     0.70384   0.57577   0.24815   0.00000  Uiso   1.00
H578   H     0.78619   0.37690   0.20223   0.00000  Uiso   1.00
N579   N     0.83333   0.61736   0.25000   0.00000  Uiso   1.00
N580   N     0.83333   0.38264   0.25000   0.00000  Uiso   1.00
O581   O     0.77321   0.53958   0.25000   0.00000  Uiso   1.00
O582   O     0.89345   0.46042   0.25001   0.00000  Uiso   1.00
O583   O     0.89345   0.53958   0.25001   0.00000  Uiso   1.00
O584   O     0.77321   0.46042   0.25000   0.00000  Uiso   1.00
O585   O     0.83332   0.53960   0.18513   0.00000  Uiso   1.00
O586   O     0.83334   0.46040   0.31487   0.00000  Uiso   1.00
O587   O     0.83334   0.53960   0.31487   0.00000  Uiso   1.00
O588   O     0.83332   0.46040   0.18513   0.00000  Uiso   1.00
C589   C     0.08733   0.83331   0.24939   0.00000  Uiso   1.00
C590   C     0.04273   0.83321   0.24884   0.00000  Uiso   1.00
C591   C     0.14048   0.69149   0.22348   0.00000  Uiso   1.00
C592   C     0.19285   0.97517   0.27653   0.00000  Uiso   1.00
C593   C     0.19285   0.69148   0.27652   0.00000  Uiso   1.00
C594   C     0.14048   0.97518   0.22347   0.00000  Uiso   1.00
C595   C     0.16697   0.83339   0.16440   0.00000  Uiso   1.00
C596   C     0.16637   0.83338   0.33560   0.00000  Uiso   1.00
C597   C     0.20275   0.83352   0.40641   0.00000  Uiso   1.00
C598   C     0.13060   0.83338   0.09359   0.00000  Uiso   1.00
C599   C     0.16547   0.83394   0.38392   0.00000  Uiso   1.00
C600   C     0.24600   0.83331   0.25059   0.00000  Uiso   1.00
C601   C     0.16787   0.83396   0.11608   0.00000  Uiso   1.00
C602   C     0.12813   0.83824   0.40743   0.00000  Uiso   1.00
C603   C     0.20521   0.83844   0.09258   0.00000  Uiso   1.00
C604   C     0.12856   0.84124   0.45434   0.00000  Uiso   1.00
C605   C     0.20478   0.84140   0.04567   0.00000  Uiso   1.00
C606   C     0.16626   0.83688   0.47668   0.00000  Uiso   1.00
C607   C     0.16709   0.83689   0.02333   0.00000  Uiso   1.00
C608   C     0.20340   0.83573   0.45260   0.00000  Uiso   1.00
C609   C     0.12995   0.83561   0.04740   0.00000  Uiso   1.00
C610   C     0.09292   0.85158   0.47977   0.00000  Uiso   1.00
C611   C     0.09289   0.84205   0.02522   0.00000  Uiso   1.00
C612   C     0.24040   0.85181   0.02023   0.00000  Uiso   1.00
C613   C     0.08863   0.83565   0.38373   0.00000  Uiso   1.00
C614   C     0.07279   0.87562   0.36288   0.00000  Uiso   1.00
C615   C     0.03190   0.87629   0.34945   0.00000  Uiso   1.00
C616   C     0.00738   0.83635   0.35449   0.00000  Uiso   1.00
C617   C     0.02386   0.79547   0.37259   0.00000  Uiso   1.00
C618   C     0.06428   0.79521   0.38765   0.00000  Uiso   1.00
C619   C     0.24471   0.83620   0.11632   0.00000  Uiso   1.00
C620   C     0.26023   0.87633   0.13719   0.00000  Uiso   1.00
C621   C     0.30111   0.87740   0.15066   0.00000  Uiso   1.00
C622   C     0.24044   0.84226   0.47478   0.00000  Uiso   1.00
C623   C     0.32595   0.83771   0.14559   0.00000  Uiso   1.00
C624   C     0.30979   0.79667   0.12747   0.00000  Uiso   1.00
C625   C     0.26938   0.79600   0.11240   0.00000  Uiso   1.00
C626   C     0.06501   0.88937   0.46501   0.00000  Uiso   1.00
C627   C     0.08071   0.93513   0.46066   0.00000  Uiso   1.00
C628   C     0.05541   0.97191   0.44721   0.00000  Uiso   1.00
C629   C     0.01424   0.96340   0.43790   0.00000  Uiso   1.00
C630   C     0.33169   0.91813   0.44214   0.00000  Uiso   1.00
C631   C     0.02354   0.88108   0.45598   0.00000  Uiso   1.00
C632   C     0.26834   0.88956   0.03499   0.00000  Uiso   1.00
C633   C     0.02126   0.79060   0.24944   0.00000  Uiso   1.00
C634   C     0.25265   0.93531   0.03949   0.00000  Uiso   1.00
C635   C     0.27801   0.97207   0.05289   0.00000  Uiso   1.00
C636   C     0.31922   0.96353   0.06200   0.00000  Uiso   1.00
C637   C     0.00175   0.91827   0.05762   0.00000  Uiso   1.00
C638   C     0.30983   0.88125   0.04384   0.00000  Uiso   1.00
C639   C     0.31210   0.87577   0.25131   0.00000  Uiso   1.00
C640   C     0.31208   0.79060   0.25028   0.00000  Uiso   1.00
C641   C     0.02123   0.87578   0.24879   0.00000  Uiso   1.00
C642   C     0.29061   0.83321   0.25109   0.00000  Uiso   1.00
Cu643  Cu    0.16667   0.88022   0.25000   0.00000  Uiso   1.00
Cu644  Cu    0.16667   0.78645   0.25000   0.00000  Uiso   1.00
H645   H     0.23131   0.83277   0.38773   0.00000  Uiso   1.00
H646   H     0.21381   0.95642   0.29777   0.00000  Uiso   1.00
H647   H     0.21381   0.71022   0.29777   0.00000  Uiso   1.00
H648   H     0.11953   0.95643   0.20223   0.00000  Uiso   1.00
H649   H     0.09104   0.90724   0.36019   0.00000  Uiso   1.00
H650   H     0.01894   0.90819   0.33610   0.00000  Uiso   1.00
H651   H     0.30890   0.83718   0.34463   0.00000  Uiso   1.00
H652   H     0.00491   0.76455   0.37637   0.00000  Uiso   1.00
H653   H     0.07611   0.76421   0.40390   0.00000  Uiso   1.00
H654   H     0.24173   0.90776   0.13990   0.00000  Uiso   1.00
H655   H     0.31381   0.90940   0.16408   0.00000  Uiso   1.00
H656   H     0.10204   0.83252   0.11227   0.00000  Uiso   1.00
H657   H     0.02443   0.83886   0.15545   0.00000  Uiso   1.00
H658   H     0.32900   0.76595   0.12367   0.00000  Uiso   1.00
H659   H     0.25780   0.76489   0.09613   0.00000  Uiso   1.00
H660   H     0.11263   0.94226   0.46778   0.00000  Uiso   1.00
H661   H     0.06775   0.67366   0.44392   0.00000  Uiso   1.00
H662   H     0.32799   0.99184   0.42725   0.00000  Uiso   1.00
H663   H     0.29990   0.91207   0.43422   0.00000  Uiso   1.00
H664   H     0.01103   0.84607   0.45904   0.00000  Uiso   1.00
H665   H     0.22071   0.94246   0.03250   0.00000  Uiso   1.00
H666   H     0.26569   0.67381   0.05629   0.00000  Uiso   1.00
H667   H     0.06490   0.84606   0.04417   0.00000  Uiso   1.00
H668   H     0.00551   0.99194   0.07259   0.00000  Uiso   1.00
H669   H     0.03357   0.91218   0.06534   0.00000  Uiso   1.00
H670   H     0.32234   0.84625   0.04065   0.00000  Uiso   1.00
H671   H     0.26843   0.84631   0.45583   0.00000  Uiso   1.00
H672   H     0.03723   0.75730   0.24932   0.00000  Uiso   1.00
H673   H     0.29615   0.90909   0.25211   0.00000  Uiso   1.00
H674   H     0.29611   0.75730   0.25025   0.00000  Uiso   1.00
H675   H     0.03717   0.90910   0.24815   0.00000  Uiso   1.00
H676   H     0.11952   0.71024   0.20223   0.00000  Uiso   1.00
N677   N     0.16667   0.95069   0.25000   0.00000  Uiso   1.00
N678   N     0.16667   0.71598   0.25000   0.00000  Uiso   1.00
O679   O     0.10655   0.87291   0.25000   0.00000  Uiso   1.00
O680   O     0.22679   0.79375   0.25001   0.00000  Uiso   1.00
O681   O     0.22679   0.87291   0.25001   0.00000  Uiso   1.00
O682   O     0.10655   0.79375   0.25000   0.00000  Uiso   1.00
O683   O     0.16666   0.87293   0.18513   0.00000  Uiso   1.00
O684   O     0.16668   0.79373   0.31487   0.00000  Uiso   1.00
O685   O     0.16668   0.87293   0.31487   0.00000  Uiso   1.00
O686   O     0.16666   0.79373   0.18513   0.00000  Uiso   1.00
C687   C     0.42066   0.83331   0.24939   0.00000  Uiso   1.00
C688   C     0.37606   0.83321   0.24884   0.00000  Uiso   1.00
C689   C     0.47381   0.69149   0.22348   0.00000  Uiso   1.00
C690   C     0.52618   0.97517   0.27653   0.00000  Uiso   1.00
C691   C     0.52619   0.69148   0.27652   0.00000  Uiso   1.00
C692   C     0.47382   0.97518   0.22347   0.00000  Uiso   1.00
C693   C     0.50030   0.83339   0.16440   0.00000  Uiso   1.00
C694   C     0.49970   0.83338   0.33560   0.00000  Uiso   1.00
C695   C     0.53609   0.83352   0.40641   0.00000  Uiso   1.00
C696   C     0.46393   0.83338   0.09359   0.00000  Uiso   1.00
C697   C     0.49881   0.83394   0.38392   0.00000  Uiso   1.00
C698   C     0.57934   0.83331   0.25059   0.00000  Uiso   1.00
C699   C     0.50121   0.83396   0.11608   0.00000  Uiso   1.00
C700   C     0.46146   0.83824   0.40743   0.00000  Uiso   1.00
C701   C     0.53854   0.83844   0.09258   0.00000  Uiso   1.00
C702   C     0.46189   0.84124   0.45434   0.00000  Uiso   1.00
C703   C     0.53811   0.84140   0.04567   0.00000  Uiso   1.00
C704   C     0.49960   0.83688   0.47668   0.00000  Uiso   1.00
C705   C     0.50042   0.83689   0.02333   0.00000  Uiso   1.00
C706   C     0.53673   0.83573   0.45260   0.00000  Uiso   1.00
C707   C     0.46328   0.83561   0.04740   0.00000  Uiso   1.00
C708   C     0.42625   0.85158   0.47977   0.00000  Uiso   1.00
C709   C     0.42623   0.84205   0.02522   0.00000  Uiso   1.00
C710   C     0.57373   0.85181   0.02023   0.00000  Uiso   1.00
C711   C     0.42196   0.83565   0.38373   0.00000  Uiso   1.00
C712   C     0.40612   0.87562   0.36288   0.00000  Uiso   1.00
C713   C     0.36523   0.87629   0.34945   0.00000  Uiso   1.00
C714   C     0.34071   0.83635   0.35449   0.00000  Uiso   1.00
C715   C     0.35720   0.79547   0.37259   0.00000  Uiso   1.00
C716   C     0.39762   0.79521   0.38765   0.00000  Uiso   1.00
C717   C     0.57804   0.83620   0.11632   0.00000  Uiso   1.00
C718   C     0.59357   0.87633   0.13719   0.00000  Uiso   1.00
C719   C     0.63444   0.87740   0.15066   0.00000  Uiso   1.00
C720   C     0.57377   0.84226   0.47478   0.00000  Uiso   1.00
C721   C     0.65929   0.83771   0.14559   0.00000  Uiso   1.00
C722   C     0.64313   0.79667   0.12747   0.00000  Uiso   1.00
C723   C     0.60271   0.79600   0.11240   0.00000  Uiso   1.00
C724   C     0.39835   0.88937   0.46501   0.00000  Uiso   1.00
C725   C     0.41405   0.93513   0.46066   0.00000  Uiso   1.00
C726   C     0.38874   0.97191   0.44721   0.00000  Uiso   1.00
C727   C     0.34757   0.96340   0.43790   0.00000  Uiso   1.00
C728   C     0.66502   0.91813   0.44214   0.00000  Uiso   1.00
C729   C     0.35688   0.88108   0.45598   0.00000  Uiso   1.00
C730   C     0.60167   0.88956   0.03499   0.00000  Uiso   1.00
C731   C     0.35460   0.79060   0.24944   0.00000  Uiso   1.00
C732   C     0.58599   0.93531   0.03949   0.00000  Uiso   1.00
C733   C     0.61134   0.97207   0.05289   0.00000  Uiso   1.00
C734   C     0.65255   0.96353   0.06200   0.00000  Uiso   1.00
C735   C     0.33508   0.91827   0.05762   0.00000  Uiso   1.00
C736   C     0.64317   0.88125   0.04384   0.00000  Uiso   1.00
C737   C     0.64543   0.87577   0.25131   0.00000  Uiso   1.00
C738   C     0.64541   0.79060   0.25028   0.00000  Uiso   1.00
C739   C     0.35456   0.87578   0.24879   0.00000  Uiso   1.00
C740   C     0.62394   0.83321   0.25109   0.00000  Uiso   1.00
Cu741  Cu    0.50000   0.88022   0.25000   0.00000  Uiso   1.00
Cu742  Cu    0.50000   0.78645   0.25000   0.00000  Uiso   1.00
H743   H     0.56465   0.83277   0.38773   0.00000  Uiso   1.00
H744   H     0.54714   0.95642   0.29777   0.00000  Uiso   1.00
H745   H     0.54714   0.71022   0.29777   0.00000  Uiso   1.00
H746   H     0.45286   0.95643   0.20223   0.00000  Uiso   1.00
H747   H     0.42437   0.90724   0.36019   0.00000  Uiso   1.00
H748   H     0.35227   0.90819   0.33610   0.00000  Uiso   1.00
H749   H     0.64223   0.83718   0.34463   0.00000  Uiso   1.00
H750   H     0.33824   0.76455   0.37637   0.00000  Uiso   1.00
H751   H     0.40945   0.76421   0.40390   0.00000  Uiso   1.00
H752   H     0.57507   0.90776   0.13990   0.00000  Uiso   1.00
H753   H     0.64714   0.90940   0.16408   0.00000  Uiso   1.00
H754   H     0.43537   0.83252   0.11227   0.00000  Uiso   1.00
H755   H     0.35777   0.83886   0.15545   0.00000  Uiso   1.00
H756   H     0.66234   0.76595   0.12367   0.00000  Uiso   1.00
H757   H     0.59113   0.76489   0.09613   0.00000  Uiso   1.00
H758   H     0.44596   0.94226   0.46778   0.00000  Uiso   1.00
H759   H     0.40108   0.67366   0.44392   0.00000  Uiso   1.00
H760   H     0.66132   0.99184   0.42725   0.00000  Uiso   1.00
H761   H     0.63323   0.91207   0.43422   0.00000  Uiso   1.00
H762   H     0.34437   0.84607   0.45904   0.00000  Uiso   1.00
H763   H     0.55404   0.94246   0.03250   0.00000  Uiso   1.00
H764   H     0.59902   0.67381   0.05629   0.00000  Uiso   1.00
H765   H     0.39823   0.84606   0.04417   0.00000  Uiso   1.00
H766   H     0.33885   0.99194   0.07259   0.00000  Uiso   1.00
H767   H     0.36691   0.91218   0.06534   0.00000  Uiso   1.00
H768   H     0.65567   0.84625   0.04065   0.00000  Uiso   1.00
H769   H     0.60176   0.84631   0.45583   0.00000  Uiso   1.00
H770   H     0.37057   0.75730   0.24932   0.00000  Uiso   1.00
H771   H     0.62949   0.90909   0.25211   0.00000  Uiso   1.00
H772   H     0.62944   0.75730   0.25025   0.00000  Uiso   1.00
H773   H     0.37051   0.90910   0.24815   0.00000  Uiso   1.00
H774   H     0.45286   0.71024   0.20223   0.00000  Uiso   1.00
N775   N     0.50000   0.95069   0.25000   0.00000  Uiso   1.00
N776   N     0.50000   0.71598   0.25000   0.00000  Uiso   1.00
O777   O     0.43988   0.87291   0.25000   0.00000  Uiso   1.00
O778   O     0.56012   0.79375   0.25001   0.00000  Uiso   1.00
O779   O     0.56012   0.87291   0.25001   0.00000  Uiso   1.00
O780   O     0.43988   0.79375   0.25000   0.00000  Uiso   1.00
O781   O     0.49999   0.87293   0.18513   0.00000  Uiso   1.00
O782   O     0.50001   0.79373   0.31487   0.00000  Uiso   1.00
O783   O     0.50001   0.87293   0.31487   0.00000  Uiso   1.00
O784   O     0.49999   0.79373   0.18513   0.00000  Uiso   1.00
C785   C     0.75400   0.83331   0.24939   0.00000  Uiso   1.00
C786   C     0.70939   0.83321   0.24884   0.00000  Uiso   1.00
C787   C     0.80715   0.69149   0.22348   0.00000  Uiso   1.00
C788   C     0.85952   0.97517   0.27653   0.00000  Uiso   1.00
C789   C     0.85952   0.69148   0.27652   0.00000  Uiso   1.00
C790   C     0.80715   0.97518   0.22347   0.00000  Uiso   1.00
C791   C     0.83364   0.83339   0.16440   0.00000  Uiso   1.00
C792   C     0.83303   0.83338   0.33560   0.00000  Uiso   1.00
C793   C     0.86942   0.83352   0.40641   0.00000  Uiso   1.00
C794   C     0.79726   0.83338   0.09359   0.00000  Uiso   1.00
C795   C     0.83214   0.83394   0.38392   0.00000  Uiso   1.00
C796   C     0.91267   0.83331   0.25059   0.00000  Uiso   1.00
C797   C     0.83454   0.83396   0.11608   0.00000  Uiso   1.00
C798   C     0.79479   0.83824   0.40743   0.00000  Uiso   1.00
C799   C     0.87188   0.83844   0.09258   0.00000  Uiso   1.00
C800   C     0.79522   0.84124   0.45434   0.00000  Uiso   1.00
C801   C     0.87145   0.84140   0.04567   0.00000  Uiso   1.00
C802   C     0.83293   0.83688   0.47668   0.00000  Uiso   1.00
C803   C     0.83375   0.83689   0.02333   0.00000  Uiso   1.00
C804   C     0.87007   0.83573   0.45260   0.00000  Uiso   1.00
C805   C     0.79662   0.83561   0.04740   0.00000  Uiso   1.00
C806   C     0.75959   0.85158   0.47977   0.00000  Uiso   1.00
C807   C     0.75956   0.84205   0.02522   0.00000  Uiso   1.00
C808   C     0.90706   0.85181   0.02023   0.00000  Uiso   1.00
C809   C     0.75530   0.83565   0.38373   0.00000  Uiso   1.00
C810   C     0.73946   0.87562   0.36288   0.00000  Uiso   1.00
C811   C     0.69857   0.87629   0.34945   0.00000  Uiso   1.00
C812   C     0.67405   0.83635   0.35449   0.00000  Uiso   1.00
C813   C     0.69053   0.79547   0.37259   0.00000  Uiso   1.00
C814   C     0.73095   0.79521   0.38765   0.00000  Uiso   1.00
C815   C     0.91138   0.83620   0.11632   0.00000  Uiso   1.00
C816   C     0.92690   0.87633   0.13719   0.00000  Uiso   1.00
C817   C     0.96778   0.87740   0.15066   0.00000  Uiso   1.00
C818   C     0.90710   0.84226   0.47478   0.00000  Uiso   1.00
C819   C     0.99262   0.83771   0.14559   0.00000  Uiso   1.00
C820   C     0.97646   0.79667   0.12747   0.00000  Uiso   1.00
C821   C     0.93604   0.79600   0.11240   0.00000  Uiso   1.00
C822   C     0.73168   0.88937   0.46501   0.00000  Uiso   1.00
C823   C     0.74738   0.93513   0.46066   0.00000  Uiso   1.00
C824   C     0.72207   0.97191   0.44721   0.00000  Uiso   1.00
C825   C     0.68091   0.96340   0.43790   0.00000  Uiso   1.00
C826   C     0.99836   0.91813   0.44214   0.00000  Uiso   1.00
C827   C     0.69021   0.88108   0.45598   0.00000  Uiso   1.00
C828   C     0.93500   0.88956   0.03499   0.00000  Uiso   1.00
C829   C     0.68793   0.79060   0.24944   0.00000  Uiso   1.00
C830   C     0.91932   0.93531   0.03949   0.00000  Uiso   1.00
C831   C     0.94468   0.97207   0.05289   0.00000  Uiso   1.00
C832   C     0.98588   0.96353   0.06200   0.00000  Uiso   1.00
C833   C     0.66842   0.91827   0.05762   0.00000  Uiso   1.00
C834   C     0.97650   0.88125   0.04384   0.00000  Uiso   1.00
C835   C     0.97877   0.87577   0.25131   0.00000  Uiso   1.00
C836   C     0.97874   0.79060   0.25028   0.00000  Uiso   1.00
C837   C     0.68790   0.87578   0.24879   0.00000  Uiso   1.00
C838   C     0.95728   0.83321   0.25109   0.00000  Uiso   1.00
Cu839  Cu    0.83333   0.88022   0.25000   0.00000  Uiso   1.00
Cu840  Cu    0.83333   0.78645   0.25000   0.00000  Uiso   1.00
H841   H     0.89798   0.83277   0.38773   0.00000  Uiso   1.00
H842   H     0.88047   0.95642   0.29777   0.00000  Uiso   1.00
H843   H     0.88048   0.71022   0.29777   0.00000  Uiso   1.00
H844   H     0.78619   0.95643   0.20223   0.00000  Uiso   1.00
H845   H     0.75771   0.90724   0.36019   0.00000  Uiso   1.00
H846   H     0.68560   0.90819   0.33610   0.00000  Uiso   1.00
H847   H     0.97556   0.83718   0.34463   0.00000  Uiso   1.00
H848   H     0.67157   0.76455   0.37637   0.00000  Uiso   1.00
H849   H     0.74278   0.76421   0.40390   0.00000  Uiso   1.00
H850   H     0.90840   0.90776   0.13990   0.00000  Uiso   1.00
H851   H     0.98047   0.90940   0.16408   0.00000  Uiso   1.00
H852   H     0.76870   0.83252   0.11227   0.00000  Uiso   1.00
H853   H     0.69110   0.83886   0.15545   0.00000  Uiso   1.00
H854   H     0.99567   0.76595   0.12367   0.00000  Uiso   1.00
H855   H     0.92447   0.76489   0.09613   0.00000  Uiso   1.00
H856   H     0.77930   0.94226   0.46778   0.00000  Uiso   1.00
H857   H     0.73441   0.67366   0.44392   0.00000  Uiso   1.00
H858   H     0.99465   0.99184   0.42725   0.00000  Uiso   1.00
H859   H     0.96657   0.91207   0.43422   0.00000  Uiso   1.00
H860   H     0.67770   0.84607   0.45904   0.00000  Uiso   1.00
H861   H     0.88738   0.94246   0.03250   0.00000  Uiso   1.00
H862   H     0.93235   0.67381   0.05629   0.00000  Uiso   1.00
H863   H     0.73157   0.84606   0.04417   0.00000  Uiso   1.00
H864   H     0.67218   0.99194   0.07259   0.00000  Uiso   1.00
H865   H     0.70024   0.91218   0.06534   0.00000  Uiso   1.00
H866   H     0.98900   0.84625   0.04065   0.00000  Uiso   1.00
H867   H     0.93509   0.84631   0.45583   0.00000  Uiso   1.00
H868   H     0.70390   0.75730   0.24932   0.00000  Uiso   1.00
H869   H     0.96282   0.90909   0.25211   0.00000  Uiso   1.00
H870   H     0.96278   0.75730   0.25025   0.00000  Uiso   1.00
H871   H     0.70384   0.90910   0.24815   0.00000  Uiso   1.00
H872   H     0.78619   0.71024   0.20223   0.00000  Uiso   1.00
N873   N     0.83333   0.95069   0.25000   0.00000  Uiso   1.00
N874   N     0.83333   0.71598   0.25000   0.00000  Uiso   1.00
O875   O     0.77321   0.87291   0.25000   0.00000  Uiso   1.00
O876   O     0.89345   0.79375   0.25001   0.00000  Uiso   1.00
O877   O     0.89345   0.87291   0.25001   0.00000  Uiso   1.00
O878   O     0.77321   0.79375   0.25000   0.00000  Uiso   1.00
O879   O     0.83332   0.87293   0.18513   0.00000  Uiso   1.00
O880   O     0.83334   0.79373   0.31487   0.00000  Uiso   1.00
O881   O     0.83334   0.87293   0.31487   0.00000  Uiso   1.00
O882   O     0.83332   0.79373   0.18513   0.00000  Uiso   1.00
C883   C     0.08733   0.16664   0.74939   0.00000  Uiso   1.00
C884   C     0.04273   0.16655   0.74884   0.00000  Uiso   1.00
C885   C     0.14048   0.02482   0.72348   0.00000  Uiso   1.00
C886   C     0.19285   0.30850   0.77653   0.00000  Uiso   1.00
C887   C     0.19285   0.02482   0.77652   0.00000  Uiso   1.00
C888   C     0.14048   0.30851   0.72347   0.00000  Uiso   1.00
C889   C     0.16697   0.16672   0.66440   0.00000  Uiso   1.00
C890   C     0.16637   0.16672   0.83560   0.00000  Uiso   1.00
C891   C     0.20275   0.16685   0.90641   0.00000  Uiso   1.00
C892   C     0.13060   0.16672   0.59359   0.00000  Uiso   1.00
C893   C     0.16547   0.16728   0.88392   0.00000  Uiso   1.00
C894   C     0.24600   0.16664   0.75059   0.00000  Uiso   1.00
C895   C     0.16787   0.16729   0.61608   0.00000  Uiso   1.00
C896   C     0.12813   0.17157   0.90743   0.00000  Uiso   1.00
C897   C     0.20521   0.17177   0.59258   0.00000  Uiso   1.00
C898   C     0.12856   0.17458   0.95434   0.00000  Uiso   1.00
C899   C     0.20478   0.17474   0.54567   0.00000  Uiso   1.00
C900   C     0.16626   0.17021   0.97668   0.00000  Uiso   1.00
C901   C     0.16709   0.17022   0.52333   0.00000  Uiso   1.00
C902   C     0.20340   0.16906   0.95260   0.00000  Uiso   1.00
C903   C     0.12995   0.16894   0.54740   0.00000  Uiso   1.00
C904   C     0.09292   0.18491   0.97977   0.00000  Uiso   1.00
C905   C     0.09289   0.17538   0.52522   0.00000  Uiso   1.00
C906   C     0.24040   0.18514   0.52023   0.00000  Uiso   1.00
C907   C     0.08863   0.16898   0.88373   0.00000  Uiso   1.00
C908   C     0.07279   0.20896   0.86288   0.00000  Uiso   1.00
C909   C     0.03190   0.20963   0.84945   0.00000  Uiso   1.00
C910   C     0.00738   0.16969   0.85449   0.00000  Uiso   1.00
C911   C     0.02386   0.12880   0.87259   0.00000  Uiso   1.00
C912   C     0.06428   0.12854   0.88765   0.00000  Uiso   1.00
C913   C     0.24471   0.16953   0.61632   0.00000  Uiso   1.00
C914   C     0.26023   0.20966   0.63719   0.00000  Uiso   1.00
C915   C     0.30111   0.21073   0.65066   0.00000  Uiso   1.00
C916   C     0.24044   0.17560   0.97478   0.00000  Uiso   1.00
C917   C     0.32595   0.17105   0.64559   0.00000  Uiso   1.00
C918   C     0.30979   0.13001   0.62747   0.00000  Uiso   1.00
C919   C     0.26938   0.12933   0.61240   0.00000  Uiso   1.00
C920   C     0.06501   0.22270   0.96501   0.00000  Uiso   1.00
C921   C     0.08071   0.26846   0.96066   0.00000  Uiso   1.00
C922   C     0.05541   0.30525   0.94721   0.00000  Uiso   1.00
C923   C     0.01424   0.29673   0.93790   0.00000  Uiso   1.00
C924   C     0.33169   0.25147   0.94214   0.00000  Uiso   1.00
C925   C     0.02354   0.21441   0.95598   0.00000  Uiso   1.00
C926   C     0.26834   0.22289   0.53499   0.00000  Uiso   1.00
C927   C     0.02126   0.12394   0.74944   0.00000  Uiso   1.00
C928   C     0.25265   0.26864   0.53949   0.00000  Uiso   1.00
C929   C     0.27801   0.30540   0.55289   0.00000  Uiso   1.00
C930   C     0.31922   0.29686   0.56200   0.00000  Uiso   1.00
C931   C     0.00175   0.25160   0.55762   0.00000  Uiso   1.00
C932   C     0.30983   0.21458   0.54384   0.00000  Uiso   1.00
C933   C     0.31210   0.20911   0.75131   0.00000  Uiso   1.00
C934   C     0.31208   0.12393   0.75028   0.00000  Uiso   1.00
C935   C     0.02123   0.20911   0.74879   0.00000  Uiso   1.00
C936   C     0.29061   0.16654   0.75109   0.00000  Uiso   1.00
Cu937  Cu    0.16667   0.21355   0.75000   0.00000  Uiso   1.00
Cu938  Cu    0.16667   0.11978   0.75000   0.00000  Uiso   1.00
H939   H     0.23131   0.16611   0.88773   0.00000  Uiso   1.00
H940   H     0.21381   0.28975   0.79777   0.00000  Uiso   1.00
H941   H     0.21381   0.04356   0.79777   0.00000  Uiso   1.00
H942   H     0.11953   0.28977   0.70223   0.00000  Uiso   1.00
H943   H     0.09104   0.24058   0.86019   0.00000  Uiso   1.00
H944   H     0.01894   0.24152   0.83610   0.00000  Uiso   1.00
H945   H     0.30890   0.17051   0.84463   0.00000  Uiso   1.00
H946   H     0.00491   0.09788   0.87637   0.00000  Uiso   1.00
H947   H     0.07611   0.09754   0.90390   0.00000  Uiso   1.00
H948   H     0.24173   0.24109   0.63990   0.00000  Uiso   1.00
H949   H     0.31381   0.24273   0.66408   0.00000  Uiso   1.00
H950   H     0.10204   0.16585   0.61227   0.00000  Uiso   1.00
H951   H     0.02443   0.17219   0.65545   0.00000  Uiso   1.00
H952   H     0.32900   0.09929   0.62367   0.00000  Uiso   1.00
H953   H     0.25780   0.09823   0.59613   0.00000  Uiso   1.00
H954   H     0.11263   0.27559   0.96778   0.00000  Uiso   1.00
H955   H     0.06775   0.00700   0.94392   0.00000  Uiso   1.00
H956   H     0.32799   0.32517   0.92725   0.00000  Uiso   1.00
H957   H     0.29990   0.24540   0.93422   0.00000  Uiso   1.00
H958   H     0.01103   0.17940   0.95904   0.00000  Uiso   1.00
H959   H     0.22071   0.27579   0.53250   0.00000  Uiso   1.00
H960   H     0.26569   0.00714   0.55629   0.00000  Uiso   1.00
H961   H     0.06490   0.17939   0.54417   0.00000  Uiso   1.00
H962   H     0.00551   0.32528   0.57259   0.00000  Uiso   1.00
H963   H     0.03357   0.24551   0.56534   0.00000  Uiso   1.00
H964   H     0.32234   0.17958   0.54065   0.00000  Uiso   1.00
H965   H     0.26843   0.17964   0.95583   0.00000  Uiso   1.00
H966   H     0.03723   0.09063   0.74932   0.00000  Uiso   1.00
H967   H     0.29615   0.24242   0.75211   0.00000  Uiso   1.00
H968   H     0.29611   0.09063   0.75025   0.00000  Uiso   1.00
H969   H     0.03717   0.24244   0.74815   0.00000  Uiso   1.00
H970   H     0.11952   0.04357   0.70223   0.00000  Uiso   1.00
N971   N     0.16667   0.28402   0.75000   0.00000  Uiso   1.00
N972   N     0.16667   0.04931   0.75000   0.00000  Uiso   1.00
O973   O     0.10655   0.20625   0.75000   0.00000  Uiso   1.00
O974   O     0.22679   0.12709   0.75001   0.00000  Uiso   1.00
O975   O     0.22679   0.20625   0.75001   0.00000  Uiso   1.00
O976   O     0.10655   0.12709   0.75000   0.00000  Uiso   1.00
O977   O     0.16666   0.20627   0.68513   0.00000  Uiso   1.00
O978   O     0.16668   0.12707   0.81487   0.00000  Uiso   1.00
O979   O     0.16668   0.20627   0.81487   0.00000  Uiso   1.00
O980   O     0.16666   0.12707   0.68513   0.00000  Uiso   1.00
C981   C     0.42066   0.16664   0.74939   0.00000  Uiso   1.00
C982   C     0.37606   0.16655   0.74884   0.00000  Uiso   1.00
C983   C     0.47381   0.02482   0.72348   0.00000  Uiso   1.00
C984   C     0.52618   0.30850   0.77653   0.00000  Uiso   1.00
C985   C     0.52619   0.02482   0.77652   0.00000  Uiso   1.00
C986   C     0.47382   0.30851   0.72347   0.00000  Uiso   1.00
C987   C     0.50030   0.16672   0.66440   0.00000  Uiso   1.00
C988   C     0.49970   0.16672   0.83560   0.00000  Uiso   1.00
C989   C     0.53609   0.16685   0.90641   0.00000  Uiso   1.00
C990   C     0.46393   0.16672   0.59359   0.00000  Uiso   1.00
C991   C     0.49881   0.16728   0.88392   0.00000  Uiso   1.00
C992   C     0.57934   0.16664   0.75059   0.00000  Uiso   1.00
C993   C     0.50121   0.16729   0.61608   0.00000  Uiso   1.00
C994   C     0.46146   0.17157   0.90743   0.00000  Uiso   1.00
C995   C     0.53854   0.17177   0.59258   0.00000  Uiso   1.00
C996   C     0.46189   0.17458   0.95434   0.00000  Uiso   1.00
C997   C     0.53811   0.17474   0.54567   0.00000  Uiso   1.00
C998   C     0.49960   0.17021   0.97668   0.00000  Uiso   1.00
C999   C     0.50042   0.17022   0.52333   0.00000  Uiso   1.00
C1000  C     0.53673   0.16906   0.95260   0.00000  Uiso   1.00
C1001  C     0.46328   0.16894   0.54740   0.00000  Uiso   1.00
C1002  C     0.42625   0.18491   0.97977   0.00000  Uiso   1.00
C1003  C     0.42623   0.17538   0.52522   0.00000  Uiso   1.00
C1004  C     0.57373   0.18514   0.52023   0.00000  Uiso   1.00
C1005  C     0.42196   0.16898   0.88373   0.00000  Uiso   1.00
C1006  C     0.40612   0.20896   0.86288   0.00000  Uiso   1.00
C1007  C     0.36523   0.20963   0.84945   0.00000  Uiso   1.00
C1008  C     0.34071   0.16969   0.85449   0.00000  Uiso   1.00
C1009  C     0.35720   0.12880   0.87259   0.00000  Uiso   1.00
C1010  C     0.39762   0.12854   0.88765   0.00000  Uiso   1.00
C1011  C     0.57804   0.16953   0.61632   0.00000  Uiso   1.00
C1012  C     0.59357   0.20966   0.63719   0.00000  Uiso   1.00
C1013  C     0.63444   0.21073   0.65066   0.00000  Uiso   1.00
C1014  C     0.57377   0.17560   0.97478   0.00000  Uiso   1.00
C1015  C     0.65929   0.17105   0.64559   0.00000  Uiso   1.00
C1016  C     0.64313   0.13001   0.62747   0.00000  Uiso   1.00
C1017  C     0.60271   0.12933   0.61240   0.00000  Uiso   1.00
C1018  C     0.39835   0.22270   0.96501   0.00000  Uiso   1.00
C1019  C     0.41405   0.26846   0.96066   0.00000  Uiso   1.00
C1020  C     0.38874   0.30525   0.94721   0.00000  Uiso   1.00
C1021  C     0.34757   0.29673   0.93790   0.00000  Uiso   1.00
C1022  C     0.66502   0.25147   0.94214   0.00000  Uiso   1.00
C1023  C     0.35688   0.21441   0.95598   0.00000  Uiso   1.00
C1024  C     0.60167   0.22289   0.53499   0.00000  Uiso   1.00
C1025  C     0.35460   0.12394   0.74944   0.00000  Uiso   1.00
C1026  C     0.58599   0.26864   0.53949   0.00000  Uiso   1.00
C1027  C     0.61134   0.30540   0.55289   0.00000  Uiso   1.00
C1028  C     0.65255   0.29686   0.56200   0.00000  Uiso   1.00
C1029  C     0.33508   0.25160   0.55762   0.00000  Uiso   1.00
C1030  C     0.64317   0.21458   0.54384   0.00000  Uiso   1.00
C1031  C     0.64543   0.20911   0.75131   0.00000  Uiso   1.00
C1032  C     0.64541   0.12393   0.75028   0.00000  Uiso   1.00
C1033  C     0.35456   0.20911   0.74879   0.00000  Uiso   1.00
C1034  C     0.62394   0.16654   0.75109   0.00000  Uiso   1.00
Cu1035 Cu    0.50000   0.21355   0.75000   0.00000  Uiso   1.00
Cu1036 Cu    0.50000   0.11978   0.75000   0.00000  Uiso   1.00
H1037  H     0.56465   0.16611   0.88773   0.00000  Uiso   1.00
H1038  H     0.54714   0.28975   0.79777   0.00000  Uiso   1.00
H1039  H     0.54714   0.04356   0.79777   0.00000  Uiso   1.00
H1040  H     0.45286   0.28977   0.70223   0.00000  Uiso   1.00
H1041  H     0.42437   0.24058   0.86019   0.00000  Uiso   1.00
H1042  H     0.35227   0.24152   0.83610   0.00000  Uiso   1.00
H1043  H     0.64223   0.17051   0.84463   0.00000  Uiso   1.00
H1044  H     0.33824   0.09788   0.87637   0.00000  Uiso   1.00
H1045  H     0.40945   0.09754   0.90390   0.00000  Uiso   1.00
H1046  H     0.57507   0.24109   0.63990   0.00000  Uiso   1.00
H1047  H     0.64714   0.24273   0.66408   0.00000  Uiso   1.00
H1048  H     0.43537   0.16585   0.61227   0.00000  Uiso   1.00
H1049  H     0.35777   0.17219   0.65545   0.00000  Uiso   1.00
H1050  H     0.66234   0.09929   0.62367   0.00000  Uiso   1.00
H1051  H     0.59113   0.09823   0.59613   0.00000  Uiso   1.00
H1052  H     0.44596   0.27559   0.96778   0.00000  Uiso   1.00
H1053  H     0.40108   0.00700   0.94392   0.00000  Uiso   1.00
H1054  H     0.66132   0.32517   0.92725   0.00000  Uiso   1.00
H1055  H     0.63323   0.24540   0.93422   0.00000  Uiso   1.00
H1056  H     0.34437   0.17940   0.95904   0.00000  Uiso   1.00
H1057  H     0.55404   0.27579   0.53250   0.00000  Uiso   1.00
H1058  H     0.59902   0.00714   0.55629   0.00000  Uiso   1.00
H1059  H     0.39823   0.17939   0.54417   0.00000  Uiso   1.00
H1060  H     0.33885   0.32528   0.57259   0.00000  Uiso   1.00
H1061  H     0.36691   0.24551   0.56534   0.00000  Uiso   1.00
H1062  H     0.65567   0.17958   0.54065   0.00000  Uiso   1.00
H1063  H     0.60176   0.17964   0.95583   0.00000  Uiso   1.00
H1064  H     0.37057   0.09063   0.74932   0.00000  Uiso   1.00
H1065  H     0.62949   0.24242   0.75211   0.00000  Uiso   1.00
H1066  H     0.62944   0.09063   0.75025   0.00000  Uiso   1.00
H1067  H     0.37051   0.24244   0.74815   0.00000  Uiso   1.00
H1068  H     0.45286   0.04357   0.70223   0.00000  Uiso   1.00
N1069  N     0.50000   0.28402   0.75000   0.00000  Uiso   1.00
N1070  N     0.50000   0.04931   0.75000   0.00000  Uiso   1.00
O1071  O     0.43988   0.20625   0.75000   0.00000  Uiso   1.00
O1072  O     0.56012   0.12709   0.75001   0.00000  Uiso   1.00
O1073  O     0.56012   0.20625   0.75001   0.00000  Uiso   1.00
O1074  O     0.43988   0.12709   0.75000   0.00000  Uiso   1.00
O1075  O     0.49999   0.20627   0.68513   0.00000  Uiso   1.00
O1076  O     0.50001   0.12707   0.81487   0.00000  Uiso   1.00
O1077  O     0.50001   0.20627   0.81487   0.00000  Uiso   1.00
O1078  O     0.49999   0.12707   0.68513   0.00000  Uiso   1.00
C1079  C     0.75400   0.16664   0.74939   0.00000  Uiso   1.00
C1080  C     0.70939   0.16655   0.74884   0.00000  Uiso   1.00
C1081  C     0.80715   0.02482   0.72348   0.00000  Uiso   1.00
C1082  C     0.85952   0.30850   0.77653   0.00000  Uiso   1.00
C1083  C     0.85952   0.02482   0.77652   0.00000  Uiso   1.00
C1084  C     0.80715   0.30851   0.72347   0.00000  Uiso   1.00
C1085  C     0.83364   0.16672   0.66440   0.00000  Uiso   1.00
C1086  C     0.83303   0.16672   0.83560   0.00000  Uiso   1.00
C1087  C     0.86942   0.16685   0.90641   0.00000  Uiso   1.00
C1088  C     0.79726   0.16672   0.59359   0.00000  Uiso   1.00
C1089  C     0.83214   0.16728   0.88392   0.00000  Uiso   1.00
C1090  C     0.91267   0.16664   0.75059   0.00000  Uiso   1.00
C1091  C     0.83454   0.16729   0.61608   0.00000  Uiso   1.00
C1092  C     0.79479   0.17157   0.90743   0.00000  Uiso   1.00
C1093  C     0.87188   0.17177   0.59258   0.00000  Uiso   1.00
C1094  C     0.79522   0.17458   0.95434   0.00000  Uiso   1.00
C1095  C     0.87145   0.17474   0.54567   0.00000  Uiso   1.00
C1096  C     0.83293   0.17021   0.97668   0.00000  Uiso   1.00
C1097  C     0.83375   0.17022   0.52333   0.00000  Uiso   1.00
C1098  C     0.87007   0.16906   0.95260   0.00000  Uiso   1.00
C1099  C     0.79662   0.16894   0.54740   0.00000  Uiso   1.00
C1100  C     0.75959   0.18491   0.97977   0.00000  Uiso   1.00
C1101  C     0.75956   0.17538   0.52522   0.00000  Uiso   1.00
C1102  C     0.90706   0.18514   0.52023   0.00000  Uiso   1.00
C1103  C     0.75530   0.16898   0.88373   0.00000  Uiso   1.00
C1104  C     0.73946   0.20896   0.86288   0.00000  Uiso   1.00
C1105  C     0.69857   0.20963   0.84945   0.00000  Uiso   1.00
C1106  C     0.67405   0.16969   0.85449   0.00000  Uiso   1.00
C1107  C     0.69053   0.12880   0.87259   0.00000  Uiso   1.00
C1108  C     0.73095   0.12854   0.88765   0.00000  Uiso   1.00
C1109  C     0.91138   0.16953   0.61632   0.00000  Uiso   1.00
C1110  C     0.92690   0.20966   0.63719   0.00000  Uiso   1.00
C1111  C     0.96778   0.21073   0.65066   0.00000  Uiso   1.00
C1112  C     0.90710   0.17560   0.97478   0.00000  Uiso   1.00
C1113  C     0.99262   0.17105   0.64559   0.00000  Uiso   1.00
C1114  C     0.97646   0.13001   0.62747   0.00000  Uiso   1.00
C1115  C     0.93604   0.12933   0.61240   0.00000  Uiso   1.00
C1116  C     0.73168   0.22270   0.96501   0.00000  Uiso   1.00
C1117  C     0.74738   0.26846   0.96066   0.00000  Uiso   1.00
C1118  C     0.72207   0.30525   0.94721   0.00000  Uiso   1.00
C1119  C     0.68091   0.29673   0.93790   0.00000  Uiso   1.00
C1120  C     0.99836   0.25147   0.94214   0.00000  Uiso   1.00
C1121  C     0.69021   0.21441   0.95598   0.00000  Uiso   1.00
C1122  C     0.93500   0.22289   0.53499   0.00000  Uiso   1.00
C1123  C     0.68793   0.12394   0.74944   0.00000  Uiso   1.00
C1124  C     0.91932   0.26864   0.53949   0.00000  Uiso   1.00
C1125  C     0.94468   0.30540   0.55289   0.00000  Uiso   1.00
C1126  C     0.98588   0.29686   0.56200   0.00000  Uiso   1.00
C1127  C     0.66842   0.25160   0.55762   0.00000  Uiso   1.00
C1128  C     0.97650   0.21458   0.54384   0.00000  Uiso   1.00
C1129  C     0.97877   0.20911   0.75131   0.00000  Uiso   1.00
C1130  C     0.97874   0.12393   0.75028   0.00000  Uiso   1.00
C1131  C     0.68790   0.20911   0.74879   0.00000  Uiso   1.00
C1132  C     0.95728   0.16654   0.75109   0.00000  Uiso   1.00
Cu1133 Cu    0.83333   0.21355   0.75000   0.00000  Uiso   1.00
Cu1134 Cu    0.83333   0.11978   0.75000   0.00000  Uiso   1.00
H1135  H     0.89798   0.16611   0.88773   0.00000  Uiso   1.00
H1136  H     0.88047   0.28975   0.79777   0.00000  Uiso   1.00
H1137  H     0.88048   0.04356   0.79777   0.00000  Uiso   1.00
H1138  H     0.78619   0.28977   0.70223   0.00000  Uiso   1.00
H1139  H     0.75771   0.24058   0.86019   0.00000  Uiso   1.00
H1140  H     0.68560   0.24152   0.83610   0.00000  Uiso   1.00
H1141  H     0.97556   0.17051   0.84463   0.00000  Uiso   1.00
H1142  H     0.67157   0.09788   0.87637   0.00000  Uiso   1.00
H1143  H     0.74278   0.09754   0.90390   0.00000  Uiso   1.00
H1144  H     0.90840   0.24109   0.63990   0.00000  Uiso   1.00
H1145  H     0.98047   0.24273   0.66408   0.00000  Uiso   1.00
H1146  H     0.76870   0.16585   0.61227   0.00000  Uiso   1.00
H1147  H     0.69110   0.17219   0.65545   0.00000  Uiso   1.00
H1148  H     0.99567   0.09929   0.62367   0.00000  Uiso   1.00
H1149  H     0.92447   0.09823   0.59613   0.00000  Uiso   1.00
H1150  H     0.77930   0.27559   0.96778   0.00000  Uiso   1.00
H1151  H     0.73441   0.00700   0.94392   0.00000  Uiso   1.00
H1152  H     0.99465   0.32517   0.92725   0.00000  Uiso   1.00
H1153  H     0.96657   0.24540   0.93422   0.00000  Uiso   1.00
H1154  H     0.67770   0.17940   0.95904   0.00000  Uiso   1.00
H1155  H     0.88738   0.27579   0.53250   0.00000  Uiso   1.00
H1156  H     0.93235   0.00714   0.55629   0.00000  Uiso   1.00
H1157  H     0.73157   0.17939   0.54417   0.00000  Uiso   1.00
H1158  H     0.67218   0.32528   0.57259   0.00000  Uiso   1.00
H1159  H     0.70024   0.24551   0.56534   0.00000  Uiso   1.00
H1160  H     0.98900   0.17958   0.54065   0.00000  Uiso   1.00
H1161  H     0.93509   0.17964   0.95583   0.00000  Uiso   1.00
H1162  H     0.70390   0.09063   0.74932   0.00000  Uiso   1.00
H1163  H     0.96282   0.24242   0.75211   0.00000  Uiso   1.00
H1164  H     0.96278   0.09063   0.75025   0.00000  Uiso   1.00
H1165  H     0.70384   0.24244   0.74815   0.00000  Uiso   1.00
H1166  H     0.78619   0.04357   0.70223   0.00000  Uiso   1.00
N1167  N     0.83333   0.28402   0.75000   0.00000  Uiso   1.00
N1168  N     0.83333   0.04931   0.75000   0.00000  Uiso   1.00
O1169  O     0.77321   0.20625   0.75000   0.00000  Uiso   1.00
O1170  O     0.89345   0.12709   0.75001   0.00000  Uiso   1.00
O1171  O     0.89345   0.20625   0.75001   0.00000  Uiso   1.00
O1172  O     0.77321   0.12709   0.75000   0.00000  Uiso   1.00
O1173  O     0.83332   0.20627   0.68513   0.00000  Uiso   1.00
O1174  O     0.83334   0.12707   0.81487   0.00000  Uiso   1.00
O1175  O     0.83334   0.20627   0.81487   0.00000  Uiso   1.00
O1176  O     0.83332   0.12707   0.68513   0.00000  Uiso   1.00
C1177  C     0.08733   0.49998   0.74939   0.00000  Uiso   1.00
C1178  C     0.04273   0.49988   0.74884   0.00000  Uiso   1.00
C1179  C     0.14048   0.35816   0.72348   0.00000  Uiso   1.00
C1180  C     0.19285   0.64184   0.77653   0.00000  Uiso   1.00
C1181  C     0.19285   0.35815   0.77652   0.00000  Uiso   1.00
C1182  C     0.14048   0.64184   0.72347   0.00000  Uiso   1.00
C1183  C     0.16697   0.50006   0.66440   0.00000  Uiso   1.00
C1184  C     0.16637   0.50005   0.83560   0.00000  Uiso   1.00
C1185  C     0.20275   0.50019   0.90641   0.00000  Uiso   1.00
C1186  C     0.13060   0.50005   0.59359   0.00000  Uiso   1.00
C1187  C     0.16547   0.50061   0.88392   0.00000  Uiso   1.00
C1188  C     0.24600   0.49997   0.75059   0.00000  Uiso   1.00
C1189  C     0.16787   0.50063   0.61608   0.00000  Uiso   1.00
C1190  C     0.12813   0.50491   0.90743   0.00000  Uiso   1.00
C1191  C     0.20521   0.50511   0.59258   0.00000  Uiso   1.00
C1192  C     0.12856   0.50791   0.95434   0.00000  Uiso   1.00
C1193  C     0.20478   0.50807   0.54567   0.00000  Uiso   1.00
C1194  C     0.16626   0.50354   0.97668   0.00000  Uiso   1.00
C1195  C     0.16709   0.50355   0.52333   0.00000  Uiso   1.00
C1196  C     0.20340   0.50239   0.95260   0.00000  Uiso   1.00
C1197  C     0.12995   0.50228   0.54740   0.00000  Uiso   1.00
C1198  C     0.09292   0.51824   0.97977   0.00000  Uiso   1.00
C1199  C     0.09289   0.50872   0.52522   0.00000  Uiso   1.00
C1200  C     0.24040   0.51848   0.52023   0.00000  Uiso   1.00
C1201  C     0.08863   0.50232   0.88373   0.00000  Uiso   1.00
C1202  C     0.07279   0.54229   0.86288   0.00000  Uiso   1.00
C1203  C     0.03190   0.54296   0.84945   0.00000  Uiso   1.00
C1204  C     0.00738   0.50302   0.85449   0.00000  Uiso   1.00
C1205  C     0.02386   0.46214   0.87259   0.00000  Uiso   1.00
C1206  C     0.06428   0.46187   0.88765   0.00000  Uiso   1.00
C1207  C     0.24471   0.50287   0.61632   0.00000  Uiso   1.00
C1208  C     0.26023   0.54299   0.63719   0.00000  Uiso   1.00
C1209  C     0.30111   0.54406   0.65066   0.00000  Uiso   1.00
C1210  C     0.24044   0.50893   0.97478   0.00000  Uiso   1.00
C1211  C     0.32595   0.50438   0.64559   0.00000  Uiso   1.00
C1212  C     0.30979   0.46334   0.62747   0.00000  Uiso   1.00
C1213  C     0.26938   0.46267   0.61240   0.00000  Uiso   1.00
C1214  C     0.06501   0.55603   0.96501   0.00000  Uiso   1.00
C1215  C     0.08071   0.60179   0.96066   0.00000  Uiso   1.00
C1216  C     0.05541   0.63858   0.94721   0.00000  Uiso   1.00
C1217  C     0.01424   0.63006   0.93790   0.00000  Uiso   1.00
C1218  C     0.33169   0.58480   0.94214   0.00000  Uiso   1.00
C1219  C     0.02354   0.54775   0.95598   0.00000  Uiso   1.00
C1220  C     0.26834   0.55623   0.53499   0.00000  Uiso   1.00
C1221  C     0.02126   0.45727   0.74944   0.00000  Uiso   1.00
C1222  C     0.25265   0.60198   0.53949   0.00000  Uiso   1.00
C1223  C     0.27801   0.63873   0.55289   0.00000  Uiso   1.00
C1224  C     0.31922   0.63019   0.56200   0.00000  Uiso   1.00
C1225  C     0.00175   0.58494   0.55762   0.00000  Uiso   1.00
C1226  C     0.30983   0.54792   0.54384   0.00000  Uiso   1.00
C1227  C     0.31210   0.54244   0.75131   0.00000  Uiso   1.00
C1228  C     0.31208   0.45727   0.75028   0.00000  Uiso   1.00
C1229  C     0.02123   0.54245   0.74879   0.00000  Uiso   1.00
C1230  C     0.29061   0.49987   0.75109   0.00000  Uiso   1.00
Cu1231 Cu    0.16667   0.54689   0.75000   0.00000  Uiso   1.00
Cu1232 Cu    0.16667   0.45311   0.75000   0.00000  Uiso   1.00
H1233  H     0.23131   0.49944   0.88773   0.00000  Uiso   1.00
H1234  H     0.21381   0.62309   0.79777   0.00000  Uiso   1.00
H1235  H     0.21381   0.37689   0.79777   0.00000  Uiso   1.00
H1236  H     0.11953   0.62310   0.70223   0.00000  Uiso   1.00
H1237  H     0.09104   0.57391   0.86019   0.00000  Uiso   1.00
H1238  H     0.01894   0.57485   0.83610   0.00000  Uiso   1.00
H1239  H     0.30890   0.50384   0.84463   0.00000  Uiso   1.00
H1240  H     0.00491   0.43122   0.87637   0.00000  Uiso   1.00
H1241  H     0.07611   0.43088   0.90390   0.00000  Uiso   1.00
H1242  H     0.24173   0.57443   0.63990   0.00000  Uiso   1.00
H1243  H     0.31381   0.57607   0.66408   0.00000  Uiso   1.00
H1244  H     0.10204   0.49918   0.61227   0.00000  Uiso   1.00
H1245  H     0.02443   0.50552   0.65545   0.00000  Uiso   1.00
H1246  H     0.32900   0.43262   0.62367   0.00000  Uiso   1.00
H1247  H     0.25780   0.43156   0.59613   0.00000  Uiso   1.00
H1248  H     0.11263   0.60892   0.96778   0.00000  Uiso   1.00
H1249  H     0.06775   0.34033   0.94392   0.00000  Uiso   1.00
H1250  H     0.32799   0.65851   0.92725   0.00000  Uiso   1.00
H1251  H     0.29990   0.57873   0.93422   0.00000  Uiso   1.00
H1252  H     0.01103   0.51274   0.95904   0.00000  Uiso   1.00
H1253  H     0.22071   0.60913   0.53250   0.00000  Uiso   1.00
H1254  H     0.26569   0.34048   0.55629   0.00000  Uiso   1.00
H1255  H     0.06490   0.51273   0.54417   0.00000  Uiso   1.00
H1256  H     0.00551   0.65861   0.57259   0.00000  Uiso   1.00
H1257  H     0.03357   0.57885   0.56534   0.00000  Uiso   1.00
H1258  H     0.32234   0.51291   0.54065   0.00000  Uiso   1.00
H1259  H     0.26843   0.51298   0.95583   0.00000  Uiso   1.00
H1260  H     0.03723   0.42396   0.74932   0.00000  Uiso   1.00
H1261  H     0.29615   0.57576   0.75211   0.00000  Uiso   1.00
H1262  H     0.29611   0.42396   0.75025   0.00000  Uiso   1.00
H1263  H     0.03717   0.57577   0.74815   0.00000  Uiso   1.00
H1264  H     0.11952   0.37690   0.70223   0.00000  Uiso   1.00
N1265  N     0.16667   0.61736   0.75000   0.00000  Uiso   1.00
N1266  N     0.16667   0.38264   0.75000   0.00000  Uiso   1.00
O1267  O     0.10655   0.53958   0.75000   0.00000  Uiso   1.00
O1268  O     0.22679   0.46042   0.75001   0.00000  Uiso   1.00
O1269  O     0.22679   0.53958   0.75001   0.00000  Uiso   1.00
O1270  O     0.10655   0.46042   0.75000   0.00000  Uiso   1.00
O1271  O     0.16666   0.53960   0.68513   0.00000  Uiso   1.00
O1272  O     0.16668   0.46040   0.81487   0.00000  Uiso   1.00
O1273  O     0.16668   0.53960   0.81487   0.00000  Uiso   1.00
O1274  O     0.16666   0.46040   0.68513   0.00000  Uiso   1.00
C1275  C     0.42066   0.49998   0.74939   0.00000  Uiso   1.00
C1276  C     0.37606   0.49988   0.74884   0.00000  Uiso   1.00
C1277  C     0.47381   0.35816   0.72348   0.00000  Uiso   1.00
C1278  C     0.52618   0.64184   0.77653   0.00000  Uiso   1.00
C1279  C     0.52619   0.35815   0.77652   0.00000  Uiso   1.00
C1280  C     0.47382   0.64184   0.72347   0.00000  Uiso   1.00
C1281  C     0.50030   0.50006   0.66440   0.00000  Uiso   1.00
C1282  C     0.49970   0.50005   0.83560   0.00000  Uiso   1.00
C1283  C     0.53609   0.50019   0.90641   0.00000  Uiso   1.00
C1284  C     0.46393   0.50005   0.59359   0.00000  Uiso   1.00
C1285  C     0.49881   0.50061   0.88392   0.00000  Uiso   1.00
C1286  C     0.57934   0.49997   0.75059   0.00000  Uiso   1.00
C1287  C     0.50121   0.50063   0.61608   0.00000  Uiso   1.00
C1288  C     0.46146   0.50491   0.90743   0.00000  Uiso   1.00
C1289  C     0.53854   0.50511   0.59258   0.00000  Uiso   1.00
C1290  C     0.46189   0.50791   0.95434   0.00000  Uiso   1.00
C1291  C     0.53811   0.50807   0.54567   0.00000  Uiso   1.00
C1292  C     0.49960   0.50354   0.97668   0.00000  Uiso   1.00
C1293  C     0.50042   0.50355   0.52333   0.00000  Uiso   1.00
C1294  C     0.53673   0.50239   0.95260   0.00000  Uiso   1.00
C1295  C     0.46328   0.50228   0.54740   0.00000  Uiso   1.00
C1296  C     0.42625   0.51824   0.97977   0.00000  Uiso   1.00
C1297  C     0.42623   0.50872   0.52522   0.00000  Uiso   1.00
C1298  C     0.57373   0.51848   0.52023   0.00000  Uiso   1.00
C1299  C     0.42196   0.50232   0.88373   0.00000  Uiso   1.00
C1300  C     0.40612   0.54229   0.86288   0.00000  Uiso   1.00
C1301  C     0.36523   0.54296   0.84945   0.00000  Uiso   1.00
C1302  C     0.34071   0.50302   0.85449   0.00000  Uiso   1.00
C1303  C     0.35720   0.46214   0.87259   0.00000  Uiso   1.00
C1304  C     0.39762   0.46187   0.88765   0.00000  Uiso   1.00
C1305  C     0.57804   0.50287   0.61632   0.00000  Uiso   1.00
C1306  C     0.59357   0.54299   0.63719   0.00000  Uiso   1.00
C1307  C     0.63444   0.54406   0.65066   0.00000  Uiso   1.00
C1308  C     0.57377   0.50893   0.97478   0.00000  Uiso   1.00
C1309  C     0.65929   0.50438   0.64559   0.00000  Uiso   1.00
C1310  C     0.64313   0.46334   0.62747   0.00000  Uiso   1.00
C1311  C     0.60271   0.46267   0.61240   0.00000  Uiso   1.00
C1312  C     0.39835   0.55603   0.96501   0.00000  Uiso   1.00
C1313  C     0.41405   0.60179   0.96066   0.00000  Uiso   1.00
C1314  C     0.38874   0.63858   0.94721   0.00000  Uiso   1.00
C1315  C     0.34757   0.63006   0.93790   0.00000  Uiso   1.00
C1316  C     0.66502   0.58480   0.94214   0.00000  Uiso   1.00
C1317  C     0.35688   0.54775   0.95598   0.00000  Uiso   1.00
C1318  C     0.60167   0.55623   0.53499   0.00000  Uiso   1.00
C1319  C     0.35460   0.45727   0.74944   0.00000  Uiso   1.00
C1320  C     0.58599   0.60198   0.53949   0.00000  Uiso   1.00
C1321  C     0.61134   0.63873   0.55289   0.00000  Uiso   1.00
C1322  C     0.65255   0.63019   0.56200   0.00000  Uiso   1.00
C1323  C     0.33508   0.58494   0.55762   0.00000  Uiso   1.00
C1324  C     0.64317   0.54792   0.54384   0.00000  Uiso   1.00
C1325  C     0.64543   0.54244   0.75131   0.00000  Uiso   1.00
C1326  C     0.64541   0.45727   0.75028   0.00000  Uiso   1.00
C1327  C     0.35456   0.54245   0.74879   0.00000  Uiso   1.00
C1328  C     0.62394   0.49987   0.75109   0.00000  Uiso   1.00
Cu1329 Cu    0.50000   0.54689   0.75000   0.00000  Uiso   1.00
Cu1330 Cu    0.50000   0.45311   0.75000   0.00000  Uiso   1.00
H1331  H     0.56465   0.49944   0.88773   0.00000  Uiso   1.00
H1332  H     0.54714   0.62309   0.79777   0.00000  Uiso   1.00
H1333  H     0.54714   0.37689   0.79777   0.00000  Uiso   1.00
H1334  H     0.45286   0.62310   0.70223   0.00000  Uiso   1.00
H1335  H     0.42437   0.57391   0.86019   0.00000  Uiso   1.00
H1336  H     0.35227   0.57485   0.83610   0.00000  Uiso   1.00
H1337  H     0.64223   0.50384   0.84463   0.00000  Uiso   1.00
H1338  H     0.33824   0.43122   0.87637   0.00000  Uiso   1.00
H1339  H     0.40945   0.43088   0.90390   0.00000  Uiso   1.00
H1340  H     0.57507   0.57443   0.63990   0.00000  Uiso   1.00
H1341  H     0.64714   0.57607   0.66408   0.00000  Uiso   1.00
H1342  H     0.43537   0.49918   0.61227   0.00000  Uiso   1.00
H1343  H     0.35777   0.50552   0.65545   0.00000  Uiso   1.00
H1344  H     0.66234   0.43262   0.62367   0.00000  Uiso   1.00
H1345  H     0.59113   0.43156   0.59613   0.00000  Uiso   1.00
H1346  H     0.44596   0.60892   0.96778   0.00000  Uiso   1.00
H1347  H     0.40108   0.34033   0.94392   0.00000  Uiso   1.00
H1348  H     0.66132   0.65851   0.92725   0.00000  Uiso   1.00
H1349  H     0.63323   0.57873   0.93422   0.00000  Uiso   1.00
H1350  H     0.34437   0.51274   0.95904   0.00000  Uiso   1.00
H1351  H     0.55404   0.60913   0.53250   0.00000  Uiso   1.00
H1352  H     0.59902   0.34048   0.55629   0.00000  Uiso   1.00
H1353  H     0.39823   0.51273   0.54417   0.00000  Uiso   1.00
H1354  H     0.33885   0.65861   0.57259   0.00000  Uiso   1.00
H1355  H     0.36691   0.57885   0.56534   0.00000  Uiso   1.00
H1356  H     0.65567   0.51291   0.54065   0.00000  Uiso   1.00
H1357  H     0.60176   0.51298   0.95583   0.00000  Uiso   1.00
H1358  H     0.37057   0.42396   0.74932   0.00000  Uiso   1.00
H1359  H     0.62949   0.57576   0.75211   0.00000  Uiso   1.00
H1360  H     0.62944   0.42396   0.75025   0.00000  Uiso   1.00
H1361  H     0.37051   0.57577   0.74815   0.00000  Uiso   1.00
H1362  H     0.45286   0.37690   0.70223   0.00000  Uiso   1.00
N1363  N     0.50000   0.61736   0.75000   0.00000  Uiso   1.00
N1364  N     0.50000   0.38264   0.75000   0.00000  Uiso   1.00
O1365  O     0.43988   0.53958   0.75000   0.00000  Uiso   1.00
O1366  O     0.56012   0.46042   0.75001   0.00000  Uiso   1.00
O1367  O     0.56012   0.53958   0.75001   0.00000  Uiso   1.00
O1368  O     0.43988   0.46042   0.75000   0.00000  Uiso   1.00
O1369  O     0.49999   0.53960   0.68513   0.00000  Uiso   1.00
O1370  O     0.50001   0.46040   0.81487   0.00000  Uiso   1.00
O1371  O     0.50001   0.53960   0.81487   0.00000  Uiso   1.00
O1372  O     0.49999   0.46040   0.68513   0.00000  Uiso   1.00
C1373  C     0.75400   0.49998   0.74939   0.00000  Uiso   1.00
C1374  C     0.70939   0.49988   0.74884   0.00000  Uiso   1.00
C1375  C     0.80715   0.35816   0.72348   0.00000  Uiso   1.00
C1376  C     0.85952   0.64184   0.77653   0.00000  Uiso   1.00
C1377  C     0.85952   0.35815   0.77652   0.00000  Uiso   1.00
C1378  C     0.80715   0.64184   0.72347   0.00000  Uiso   1.00
C1379  C     0.83364   0.50006   0.66440   0.00000  Uiso   1.00
C1380  C     0.83303   0.50005   0.83560   0.00000  Uiso   1.00
C1381  C     0.86942   0.50019   0.90641   0.00000  Uiso   1.00
C1382  C     0.79726   0.50005   0.59359   0.00000  Uiso   1.00
C1383  C     0.83214   0.50061   0.88392   0.00000  Uiso   1.00
C1384  C     0.91267   0.49997   0.75059   0.00000  Uiso   1.00
C1385  C     0.83454   0.50063   0.61608   0.00000  Uiso   1.00
C1386  C     0.79479   0.50491   0.90743   0.00000  Uiso   1.00
C1387  C     0.87188   0.50511   0.59258   0.00000  Uiso   1.00
C1388  C     0.79522   0.50791   0.95434   0.00000  Uiso   1.00
C1389  C     0.87145   0.50807   0.54567   0.00000  Uiso   1.00
C1390  C     0.83293   0.50354   0.97668   0.00000  Uiso   1.00
C1391  C     0.83375   0.50355   0.52333   0.00000  Uiso   1.00
C1392  C     0.87007   0.50239   0.95260   0.00000  Uiso   1.00
C1393  C     0.79662   0.50228   0.54740   0.00000  Uiso   1.00
C1394  C     0.75959   0.51824   0.97977   0.00000  Uiso   1.00
C1395  C     0.75956   0.50872   0.52522   0.00000  Uiso   1.00
C1396  C     0.90706   0.51848   0.52023   0.00000  Uiso   1.00
C1397  C     0.75530   0.50232   0.88373   0.00000  Uiso   1.00
C1398  C     0.73946   0.54229   0.86288   0.00000  Uiso   1.00
C1399  C     0.69857   0.54296   0.84945   0.00000  Uiso   1.00
C1400  C     0.67405   0.50302   0.85449   0.00000  Uiso   1.00
C1401  C     0.69053   0.46214   0.87259   0.00000  Uiso   1.00
C1402  C     0.73095   0.46187   0.88765   0.00000  Uiso   1.00
C1403  C     0.91138   0.50287   0.61632   0.00000  Uiso   1.00
C1404  C     0.92690   0.54299   0.63719   0.00000  Uiso   1.00
C1405  C     0.96778   0.54406   0.65066   0.00000  Uiso   1.00
C1406  C     0.90710   0.50893   0.97478   0.00000  Uiso   1.00
C1407  C     0.99262   0.50438   0.64559   0.00000  Uiso   1.00
C1408  C     0.97646   0.46334   0.62747   0.00000  Uiso   1.00
C1409  C     0.93604   0.46267   0.61240   0.00000  Uiso   1.00
C1410  C     0.73168   0.55603   0.96501   0.00000  Uiso   1.00
C1411  C     0.74738   0.60179   0.96066   0.00000  Uiso   1.00
C1412  C     0.72207   0.63858   0.94721   0.00000  Uiso   1.00
C1413  C     0.68091   0.63006   0.93790   0.00000  Uiso   1.00
C1414  C     0.99836   0.58480   0.94214   0.00000  Uiso   1.00
C1415  C     0.69021   0.54775   0.95598   0.00000  Uiso   1.00
C1416  C     0.93500   0.55623   0.53499   0.00000  Uiso   1.00
C1417  C     0.68793   0.45727   0.74944   0.00000  Uiso   1.00
C1418  C     0.91932   0.60198   0.53949   0.00000  Uiso   1.00
C1419  C     0.94468   0.63873   0.55289   0.00000  Uiso   1.00
C1420  C     0.98588   0.63019   0.56200   0.00000  Uiso   1.00
C1421  C     0.66842   0.58494   0.55762   0.00000  Uiso   1.00
C1422  C     0.97650   0.54792   0.54384   0.00000  Uiso   1.00
C1423  C     0.97877   0.54244   0.75131   0.00000  Uiso   1.00
C1424  C     0.97874   0.45727   0.75028   0.00000  Uiso   1.00
C1425  C     0.68790   0.54245   0.74879   0.00000  Uiso   1.00
C1426  C     0.95728   0.49987   0.75109   0.00000  Uiso   1.00
Cu1427 Cu    0.83333   0.54689   0.75000   0.00000  Uiso   1.00
Cu1428 Cu    0.83333   0.45311   0.75000   0.00000  Uiso   1.00
H1429  H     0.89798   0.49944   0.88773   0.00000  Uiso   1.00
H1430  H     0.88047   0.62309   0.79777   0.00000  Uiso   1.00
H1431  H     0.88048   0.37689   0.79777   0.00000  Uiso   1.00
H1432  H     0.78619   0.62310   0.70223   0.00000  Uiso   1.00
H1433  H     0.75771   0.57391   0.86019   0.00000  Uiso   1.00
H1434  H     0.68560   0.57485   0.83610   0.00000  Uiso   1.00
H1435  H     0.97556   0.50384   0.84463   0.00000  Uiso   1.00
H1436  H     0.67157   0.43122   0.87637   0.00000  Uiso   1.00
H1437  H     0.74278   0.43088   0.90390   0.00000  Uiso   1.00
H1438  H     0.90840   0.57443   0.63990   0.00000  Uiso   1.00
H1439  H     0.98047   0.57607   0.66408   0.00000  Uiso   1.00
H1440  H     0.76870   0.49918   0.61227   0.00000  Uiso   1.00
H1441  H     0.69110   0.50552   0.65545   0.00000  Uiso   1.00
H1442  H     0.99567   0.43262   0.62367   0.00000  Uiso   1.00
H1443  H     0.92447   0.43156   0.59613   0.00000  Uiso   1.00
H1444  H     0.77930   0.60892   0.96778   0.00000  Uiso   1.00
H1445  H     0.73441   0.34033   0.94392   0.00000  Uiso   1.00
H1446  H     0.99465   0.65851   0.92725   0.00000  Uiso   1.00
H1447  H     0.96657   0.57873   0.93422   0.00000  Uiso   1.00
H1448  H     0.67770   0.51274   0.95904   0.00000  Uiso   1.00
H1449  H     0.88738   0.60913   0.53250   0.00000  Uiso   1.00
H1450  H     0.93235   0.34048   0.55629   0.00000  Uiso   1.00
H1451  H     0.73157   0.51273   0.54417   0.00000  Uiso   1.00
H1452  H     0.67218   0.65861   0.57259   0.00000  Uiso   1.00
H1453  H     0.70024   0.57885   0.56534   0.00000  Uiso   1.00
H1454  H     0.98900   0.51291   0.54065   0.00000  Uiso   1.00
H1455  H     0.93509   0.51298   0.95583   0.00000  Uiso   1.00
H1456  H     0.70390   0.42396   0.74932   0.00000  Uiso   1.00
H1457  H     0.96282   0.57576   0.75211   0.00000  Uiso   1.00
H1458  H     0.96278   0.42396   0.75025   0.00000  Uiso   1.00
H1459  H     0.70384   0.57577   0.74815   0.00000  Uiso   1.00
H1460  H     0.78619   0.37690   0.70223   0.00000  Uiso   1.00
N1461  N     0.83333   0.61736   0.75000   0.00000  Uiso   1.00
N1462  N     0.83333   0.38264   0.75000   0.00000  Uiso   1.00
O1463  O     0.77321   0.53958   0.75000   0.00000  Uiso   1.00
O1464  O     0.89345   0.46042   0.75001   0.00000  Uiso   1.00
O1465  O     0.89345   0.53958   0.75001   0.00000  Uiso   1.00
O1466  O     0.77321   0.46042   0.75000   0.00000  Uiso   1.00
O1467  O     0.83332   0.53960   0.68513   0.00000  Uiso   1.00
O1468  O     0.83334   0.46040   0.81487   0.00000  Uiso   1.00
O1469  O     0.83334   0.53960   0.81487   0.00000  Uiso   1.00
O1470  O     0.83332   0.46040   0.68513   0.00000  Uiso   1.00
C1471  C     0.08733   0.83331   0.74939   0.00000  Uiso   1.00
C1472  C     0.04273   0.83321   0.74884   0.00000  Uiso   1.00
C1473  C     0.14048   0.69149   0.72348   0.00000  Uiso   1.00
C1474  C     0.19285   0.97517   0.77653   0.00000  Uiso   1.00
C1475  C     0.19285   0.69148   0.77652   0.00000  Uiso   1.00
C1476  C     0.14048   0.97518   0.72347   0.00000  Uiso   1.00
C1477  C     0.16697   0.83339   0.66440   0.00000  Uiso   1.00
C1478  C     0.16637   0.83338   0.83560   0.00000  Uiso   1.00
C1479  C     0.20275   0.83352   0.90641   0.00000  Uiso   1.00
C1480  C     0.13060   0.83338   0.59359   0.00000  Uiso   1.00
C1481  C     0.16547   0.83394   0.88392   0.00000  Uiso   1.00
C1482  C     0.24600   0.83331   0.75059   0.00000  Uiso   1.00
C1483  C     0.16787   0.83396   0.61608   0.00000  Uiso   1.00
C1484  C     0.12813   0.83824   0.90743   0.00000  Uiso   1.00
C1485  C     0.20521   0.83844   0.59258   0.00000  Uiso   1.00
C1486  C     0.12856   0.84124   0.95434   0.00000  Uiso   1.00
C1487  C     0.20478   0.84140   0.54567   0.00000  Uiso   1.00
C1488  C     0.16626   0.83688   0.97668   0.00000  Uiso   1.00
C1489  C     0.16709   0.83689   0.52333   0.00000  Uiso   1.00
C1490  C     0.20340   0.83573   0.95260   0.00000  Uiso   1.00
C1491  C     0.12995   0.83561   0.54740   0.00000  Uiso   1.00
C1492  C     0.09292   0.85158   0.97977   0.00000  Uiso   1.00
C1493  C     0.09289   0.84205   0.52522   0.00000  Uiso   1.00
C1494  C     0.24040   0.85181   0.52023   0.00000  Uiso   1.00
C1495  C     0.08863   0.83565   0.88373   0.00000  Uiso   1.00
C1496  C     0.07279   0.87562   0.86288   0.00000  Uiso   1.00
C1497  C     0.03190   0.87629   0.84945   0.00000  Uiso   1.00
C1498  C     0.00738   0.83635   0.85449   0.00000  Uiso   1.00
C1499  C     0.02386   0.79547   0.87259   0.00000  Uiso   1.00
C1500  C     0.06428   0.79521   0.88765   0.00000  Uiso   1.00
C1501  C     0.24471   0.83620   0.61632   0.00000  Uiso   1.00
C1502  C     0.26023   0.87633   0.63719   0.00000  Uiso   1.00
C1503  C     0.30111   0.87740   0.65066   0.00000  Uiso   1.00
C1504  C     0.24044   0.84226   0.97478   0.00000  Uiso   1.00
C1505  C     0.32595   0.83771   0.64559   0.00000  Uiso   1.00
C1506  C     0.30979   0.79667   0.62747   0.00000  Uiso   1.00
C1507  C     0.26938   0.79600   0.61240   0.00000  Uiso   1.00
C1508  C     0.06501   0.88937   0.96501   0.00000  Uiso   1.00
C1509  C     0.08071   0.93513   0.96066   0.00000  Uiso   1.00
C1510  C     0.05541   0.97191   0.94721   0.00000  Uiso   1.00
C1511  C     0.01424   0.96340   0.93790   0.00000  Uiso   1.00
C1512  C     0.33169   0.91813   0.94214   0.00000  Uiso   1.00
C1513  C     0.02354   0.88108   0.95598   0.00000  Uiso   1.00
C1514  C     0.26834   0.88956   0.53499   0.00000  Uiso   1.00
C1515  C     0.02126   0.79060   0.74944   0.00000  Uiso   1.00
C1516  C     0.25265   0.93531   0.53949   0.00000  Uiso   1.00
C1517  C     0.27801   0.97207   0.55289   0.00000  Uiso   1.00
C1518  C     0.31922   0.96353   0.56200   0.00000  Uiso   1.00
C1519  C     0.00175   0.91827   0.55762   0.00000  Uiso   1.00
C1520  C     0.30983   0.88125   0.54384   0.00000  Uiso   1.00
C1521  C     0.31210   0.87577   0.75131   0.00000  Uiso   1.00
C1522  C     0.31208   0.79060   0.75028   0.00000  Uiso   1.00
C1523  C     0.02123   0.87578   0.74879   0.00000  Uiso   1.00
C1524  C     0.29061   0.83321   0.75109   0.00000  Uiso   1.00
Cu1525 Cu    0.16667   0.88022   0.75000   0.00000  Uiso   1.00
Cu1526 Cu    0.16667   0.78645   0.75000   0.00000  Uiso   1.00
H1527  H     0.23131   0.83277   0.88773   0.00000  Uiso   1.00
H1528  H     0.21381   0.95642   0.79777   0.00000  Uiso   1.00
H1529  H     0.21381   0.71022   0.79777   0.00000  Uiso   1.00
H1530  H     0.11953   0.95643   0.70223   0.00000  Uiso   1.00
H1531  H     0.09104   0.90724   0.86019   0.00000  Uiso   1.00
H1532  H     0.01894   0.90819   0.83610   0.00000  Uiso   1.00
H1533  H     0.30890   0.83718   0.84463   0.00000  Uiso   1.00
H1534  H     0.00491   0.76455   0.87637   0.00000  Uiso   1.00
H1535  H     0.07611   0.76421   0.90390   0.00000  Uiso   1.00
H1536  H     0.24173   0.90776   0.63990   0.00000  Uiso   1.00
H1537  H     0.31381   0.90940   0.66408   0.00000  Uiso   1.00
H1538  H     0.10204   0.83252   0.61227   0.00000  Uiso   1.00
H1539  H     0.02443   0.83886   0.65545   0.00000  Uiso   1.00
H1540  H     0.32900   0.76595   0.62367   0.00000  Uiso   1.00
H1541  H     0.25780   0.76489   0.59613   0.00000  Uiso   1.00
H1542  H     0.11263   0.94226   0.96778   0.00000  Uiso   1.00
H1543  H     0.06775   0.67366   0.94392   0.00000  Uiso   1.00
H1544  H     0.32799   0.99184   0.92725   0.00000  Uiso   1.00
H1545  H     0.29990   0.91207   0.93422   0.00000  Uiso   1.00
H1546  H     0.01103   0.84607   0.95904   0.00000  Uiso   1.00
H1547  H     0.22071   0.94246   0.53250   0.00000  Uiso   1.00
H1548  H     0.26569   0.67381   0.55629   0.00000  Uiso   1.00
H1549  H     0.06490   0.84606   0.54417   0.00000  Uiso   1.00
H1550  H     0.00551   0.99194   0.57259   0.00000  Uiso   1.00
H1551  H     0.03357   0.91218   0.56534   0.00000  Uiso   1.00
H1552  H     0.32234   0.84625   0.54065   0.00000  Uiso   1.00
H1553  H     0.26843   0.84631   0.95583   0.00000  Uiso   1.00
H1554  H     0.03723   0.75730   0.74932   0.00000  Uiso   1.00
H1555  H     0.29615   0.90909   0.75211   0.00000  Uiso   1.00
H1556  H     0.29611   0.75730   0.75025   0.00000  Uiso   1.00
H1557  H     0.03717   0.90910   0.74815   0.00000  Uiso   1.00
H1558  H     0.11952   0.71024   0.70223   0.00000  Uiso   1.00
N1559  N     0.16667   0.95069   0.75000   0.00000  Uiso   1.00
N1560  N     0.16667   0.71598   0.75000   0.00000  Uiso   1.00
O1561  O     0.10655   0.87291   0.75000   0.00000  Uiso   1.00
O1562  O     0.22679   0.79375   0.75001   0.00000  Uiso   1.00
O1563  O     0.22679   0.87291   0.75001   0.00000  Uiso   1.00
O1564  O     0.10655   0.79375   0.75000   0.00000  Uiso   1.00
O1565  O     0.16666   0.87293   0.68513   0.00000  Uiso   1.00
O1566  O     0.16668   0.79373   0.81487   0.00000  Uiso   1.00
O1567  O     0.16668   0.87293   0.81487   0.00000  Uiso   1.00
O1568  O     0.16666   0.79373   0.68513   0.00000  Uiso   1.00
C1569  C     0.42066   0.83331   0.74939   0.00000  Uiso   1.00
C1570  C     0.37606   0.83321   0.74884   0.00000  Uiso   1.00
C1571  C     0.47381   0.69149   0.72348   0.00000  Uiso   1.00
C1572  C     0.52618   0.97517   0.77653   0.00000  Uiso   1.00
C1573  C     0.52619   0.69148   0.77652   0.00000  Uiso   1.00
C1574  C     0.47382   0.97518   0.72347   0.00000  Uiso   1.00
C1575  C     0.50030   0.83339   0.66440   0.00000  Uiso   1.00
C1576  C     0.49970   0.83338   0.83560   0.00000  Uiso   1.00
C1577  C     0.53609   0.83352   0.90641   0.00000  Uiso   1.00
C1578  C     0.46393   0.83338   0.59359   0.00000  Uiso   1.00
C1579  C     0.49881   0.83394   0.88392   0.00000  Uiso   1.00
C1580  C     0.57934   0.83331   0.75059   0.00000  Uiso   1.00
C1581  C     0.50121   0.83396   0.61608   0.00000  Uiso   1.00
C1582  C     0.46146   0.83824   0.90743   0.00000  Uiso   1.00
C1583  C     0.53854   0.83844   0.59258   0.00000  Uiso   1.00
C1584  C     0.46189   0.84124   0.95434   0.00000  Uiso   1.00
C1585  C     0.53811   0.84140   0.54567   0.00000  Uiso   1.00
C1586  C     0.49960   0.83688   0.97668   0.00000  Uiso   1.00
C1587  C     0.50042   0.83689   0.52333   0.00000  Uiso   1.00
C1588  C     0.53673   0.83573   0.95260   0.00000  Uiso   1.00
C1589  C     0.46328   0.83561   0.54740   0.00000  Uiso   1.00
C1590  C     0.42625   0.85158   0.97977   0.00000  Uiso   1.00
C1591  C     0.42623   0.84205   0.52522   0.00000  Uiso   1.00
C1592  C     0.57373   0.85181   0.52023   0.00000  Uiso   1.00
C1593  C     0.42196   0.83565   0.88373   0.00000  Uiso   1.00
C1594  C     0.40612   0.87562   0.86288   0.00000  Uiso   1.00
C1595  C     0.36523   0.87629   0.84945   0.00000  Uiso   1.00
C1596  C     0.34071   0.83635   0.85449   0.00000  Uiso   1.00
C1597  C     0.35720   0.79547   0.87259   0.00000  Uiso   1.00
C1598  C     0.39762   0.79521   0.88765   0.00000  Uiso   1.00
C1599  C     0.57804   0.83620   0.61632   0.00000  Uiso   1.00
C1600  C     0.59357   0.87633   0.63719   0.00000  Uiso   1.00
C1601  C     0.63444   0.87740   0.65066   0.00000  Uiso   1.00
C1602  C     0.57377   0.84226   0.97478   0.00000  Uiso   1.00
C1603  C     0.65929   0.83771   0.64559   0.00000  Uiso   1.00
C1604  C     0.64313   0.79667   0.62747   0.00000  Uiso   1.00
C1605  C     0.60271   0.79600   0.61240   0.00000  Uiso   1.00
C1606  C     0.39835   0.88937   0.96501   0.00000  Uiso   1.00
C1607  C     0.41405   0.93513   0.96066   0.00000  Uiso   1.00
C1608  C     0.38874   0.97191   0.94721   0.00000  Uiso   1.00
C1609  C     0.34757   0.96340   0.93790   0.00000  Uiso   1.00
C1610  C     0.66502   0.91813   0.94214   0.00000  Uiso   1.00
C1611  C     0.35688   0.88108   0.95598   0.00000  Uiso   1.00
C1612  C     0.60167   0.88956   0.53499   0.00000  Uiso   1.00
C1613  C     0.35460   0.79060   0.74944   0.00000  Uiso   1.00
C1614  C     0.58599   0.93531   0.53949   0.00000  Uiso   1.00
C1615  C     0.61134   0.97207   0.55289   0.00000  Uiso   1.00
C1616  C     0.65255   0.96353   0.56200   0.00000  Uiso   1.00
C1617  C     0.33508   0.91827   0.55762   0.00000  Uiso   1.00
C1618  C     0.64317   0.88125   0.54384   0.00000  Uiso   1.00
C1619  C     0.64543   0.87577   0.75131   0.00000  Uiso   1.00
C1620  C     0.64541   0.79060   0.75028   0.00000  Uiso   1.00
C1621  C     0.35456   0.87578   0.74879   0.00000  Uiso   1.00
C1622  C     0.62394   0.83321   0.75109   0.00000  Uiso   1.00
Cu1623 Cu    0.50000   0.88022   0.75000   0.00000  Uiso   1.00
Cu1624 Cu    0.50000   0.78645   0.75000   0.00000  Uiso   1.00
H1625  H     0.56465   0.83277   0.88773   0.00000  Uiso   1.00
H1626  H     0.54714   0.95642   0.79777   0.00000  Uiso   1.00
H1627  H     0.54714   0.71022   0.79777   0.00000  Uiso   1.00
H1628  H     0.45286   0.95643   0.70223   0.00000  Uiso   1.00
H1629  H     0.42437   0.90724   0.86019   0.00000  Uiso   1.00
H1630  H     0.35227   0.90819   0.83610   0.00000  Uiso   1.00
H1631  H     0.64223   0.83718   0.84463   0.00000  Uiso   1.00
H1632  H     0.33824   0.76455   0.87637   0.00000  Uiso   1.00
H1633  H     0.40945   0.76421   0.90390   0.00000  Uiso   1.00
H1634  H     0.57507   0.90776   0.63990   0.00000  Uiso   1.00
H1635  H     0.64714   0.90940   0.66408   0.00000  Uiso   1.00
H1636  H     0.43537   0.83252   0.61227   0.00000  Uiso   1.00
H1637  H     0.35777   0.83886   0.65545   0.00000  Uiso   1.00
H1638  H     0.66234   0.76595   0.62367   0.00000  Uiso   1.00
H1639  H     0.59113   0.76489   0.59613   0.00000  Uiso   1.00
H1640  H     0.44596   0.94226   0.96778   0.00000  Uiso   1.00
H1641  H     0.40108   0.67366   0.94392   0.00000  Uiso   1.00
H1642  H     0.66132   0.99184   0.92725   0.00000  Uiso   1.00
H1643  H     0.63323   0.91207   0.93422   0.00000  Uiso   1.00
H1644  H     0.34437   0.84607   0.95904   0.00000  Uiso   1.00
H1645  H     0.55404   0.94246   0.53250   0.00000  Uiso   1.00
H1646  H     0.59902   0.67381   0.55629   0.00000  Uiso   1.00
H1647  H     0.39823   0.84606   0.54417   0.00000  Uiso   1.00
H1648  H     0.33885   0.99194   0.57259   0.00000  Uiso   1.00
H1649  H     0.36691   0.91218   0.56534   0.00000  Uiso   1.00
H1650  H     0.65567   0.84625   0.54065   0.00000  Uiso   1.00
H1651  H     0.60176   0.84631   0.95583   0.00000  Uiso   1.00
H1652  H     0.37057   0.75730   0.74932   0.00000  Uiso   1.00
H1653  H     0.62949   0.90909   0.75211   0.00000  Uiso   1.00
H1654  H     0.62944   0.75730   0.75025   0.00000  Uiso   1.00
H1655  H     0.37051   0.90910   0.74815   0.00000  Uiso   1.00
H1656  H     0.45286   0.71024   0.70223   0.00000  Uiso   1.00
N1657  N     0.50000   0.95069   0.75000   0.00000  Uiso   1.00
N1658  N     0.50000   0.71598   0.75000   0.00000  Uiso   1.00
O1659  O     0.43988   0.87291   0.75000   0.00000  Uiso   1.00
O1660  O     0.56012   0.79375   0.75001   0.00000  Uiso   1.00
O1661  O     0.56012   0.87291   0.75001   0.00000  Uiso   1.00
O1662  O     0.43988   0.79375   0.75000   0.00000  Uiso   1.00
O1663  O     0.49999   0.87293   0.68513   0.00000  Uiso   1.00
O1664  O     0.50001   0.79373   0.81487   0.00000  Uiso   1.00
O1665  O     0.50001   0.87293   0.81487   0.00000  Uiso   1.00
O1666  O     0.49999   0.79373   0.68513   0.00000  Uiso   1.00
C1667  C     0.75400   0.83331   0.74939   0.00000  Uiso   1.00
C1668  C     0.70939   0.83321   0.74884   0.00000  Uiso   1.00
C1669  C     0.80715   0.69149   0.72348   0.00000  Uiso   1.00
C1670  C     0.85952   0.97517   0.77653   0.00000  Uiso   1.00
C1671  C     0.85952   0.69148   0.77652   0.00000  Uiso   1.00
C1672  C     0.80715   0.97518   0.72347   0.00000  Uiso   1.00
C1673  C     0.83364   0.83339   0.66440   0.00000  Uiso   1.00
C1674  C     0.83303   0.83338   0.83560   0.00000  Uiso   1.00
C1675  C     0.86942   0.83352   0.90641   0.00000  Uiso   1.00
C1676  C     0.79726   0.83338   0.59359   0.00000  Uiso   1.00
C1677  C     0.83214   0.83394   0.88392   0.00000  Uiso   1.00
C1678  C     0.91267   0.83331   0.75059   0.00000  Uiso   1.00
C1679  C     0.83454   0.83396   0.61608   0.00000  Uiso   1.00
C1680  C     0.79479   0.83824   0.90743   0.00000  Uiso   1.00
C1681  C     0.87188   0.83844   0.59258   0.00000  Uiso   1.00
C1682  C     0.79522   0.84124   0.95434   0.00000  Uiso   1.00
C1683  C     0.87145   0.84140   0.54567   0.00000  Uiso   1.00
C1684  C     0.83293   0.83688   0.97668   0.00000  Uiso   1.00
C1685  C     0.83375   0.83689   0.52333   0.00000  Uiso   1.00
C1686  C     0.87007   0.83573   0.95260   0.00000  Uiso   1.00
C1687  C     0.79662   0.83561   0.54740   0.00000  Uiso   1.00
C1688  C     0.75959   0.85158   0.97977   0.00000  Uiso   1.00
C1689  C     0.75956   0.84205   0.52522   0.00000  Uiso   1.00
C1690  C     0.90706   0.85181   0.52023   0.00000  Uiso   1.00
C1691  C     0.75530   0.83565   0.88373   0.00000  Uiso   1.00
C1692  C     0.73946   0.87562   0.86288   0.00000  Uiso   1.00
C1693  C     0.69857   0.87629   0.84945   0.00000  Uiso   1.00
C1694  C     0.67405   0.83635   0.85449   0.00000  Uiso   1.00
C1695  C     0.69053   0.79547   0.87259   0.00000  Uiso   1.00
C1696  C     0.73095   0.79521   0.88765   0.00000  Uiso   1.00
C1697  C     0.91138   0.83620   0.61632   0.00000  Uiso   1.00
C1698  C     0.92690   0.87633   0.63719   0.00000  Uiso   1.00
C1699  C     0.96778   0.87740   0.65066   0.00000  Uiso   1.00
C1700  C     0.90710   0.84226   0.97478   0.00000  Uiso   1.00
C1701  C     0.99262   0.83771   0.64559   0.00000  Uiso   1.00
C1702  C     0.97646   0.79667   0.62747   0.00000  Uiso   1.00
C1703  C     0.93604   0.79600   0.61240   0.00000  Uiso   1.00
C1704  C     0.73168   0.88937   0.96501   0.00000  Uiso   1.00
C1705  C     0.74738   0.93513   0.96066   0.00000  Uiso   1.00
C1706  C     0.72207   0.97191   0.94721   0.00000  Uiso   1.00
C1707  C     0.68091   0.96340   0.93790   0.00000  Uiso   1.00
C1708  C     0.99836   0.91813   0.94214   0.00000  Uiso   1.00
C1709  C     0.69021   0.88108   0.95598   0.00000  Uiso   1.00
C1710  C     0.93500   0.88956   0.53499   0.00000  Uiso   1.00
C1711  C     0.68793   0.79060   0.74944   0.00000  Uiso   1.00
C1712  C     0.91932   0.93531   0.53949   0.00000  Uiso   1.00
C1713  C     0.94468   0.97207   0.55289   0.00000  Uiso   1.00
C1714  C     0.98588   0.96353   0.56200   0.00000  Uiso   1.00
C1715  C     0.66842   0.91827   0.55762   0.00000  Uiso   1.00
C1716  C     0.97650   0.88125   0.54384   0.00000  Uiso   1.00
C1717  C     0.97877   0.87577   0.75131   0.00000  Uiso   1.00
C1718  C     0.97874   0.79060   0.75028   0.00000  Uiso   1.00
C1719  C     0.68790   0.87578   0.74879   0.00000  Uiso   1.00
C1720  C     0.95728   0.83321   0.75109   0.00000  Uiso   1.00
Cu1721 Cu    0.83333   0.88022   0.75000   0.00000  Uiso   1.00
Cu1722 Cu    0.83333   0.78645   0.75000   0.00000  Uiso   1.00
H1723  H     0.89798   0.83277   0.88773   0.00000  Uiso   1.00
H1724  H     0.88047   0.95642   0.79777   0.00000  Uiso   1.00
H1725  H     0.88048   0.71022   0.79777   0.00000  Uiso   1.00
H1726  H     0.78619   0.95643   0.70223   0.00000  Uiso   1.00
H1727  H     0.75771   0.90724   0.86019   0.00000  Uiso   1.00
H1728  H     0.68560   0.90819   0.83610   0.00000  Uiso   1.00
H1729  H     0.97556   0.83718   0.84463   0.00000  Uiso   1.00
H1730  H     0.67157   0.76455   0.87637   0.00000  Uiso   1.00
H1731  H     0.74278   0.76421   0.90390   0.00000  Uiso   1.00
H1732  H     0.90840   0.90776   0.63990   0.00000  Uiso   1.00
H1733  H     0.98047   0.90940   0.66408   0.00000  Uiso   1.00
H1734  H     0.76870   0.83252   0.61227   0.00000  Uiso   1.00
H1735  H     0.69110   0.83886   0.65545   0.00000  Uiso   1.00
H1736  H     0.99567   0.76595   0.62367   0.00000  Uiso   1.00
H1737  H     0.92447   0.76489   0.59613   0.00000  Uiso   1.00
H1738  H     0.77930   0.94226   0.96778   0.00000  Uiso   1.00
H1739  H     0.73441   0.67366   0.94392   0.00000  Uiso   1.00
H1740  H     0.99465   0.99184   0.92725   0.00000  Uiso   1.00
H1741  H     0.96657   0.91207   0.93422   0.00000  Uiso   1.00
H1742  H     0.67770   0.84607   0.95904   0.00000  Uiso   1.00
H1743  H     0.88738   0.94246   0.53250   0.00000  Uiso   1.00
H1744  H     0.93235   0.67381   0.55629   0.00000  Uiso   1.00
H1745  H     0.73157   0.84606   0.54417   0.00000  Uiso   1.00
H1746  H     0.67218   0.99194   0.57259   0.00000  Uiso   1.00
H1747  H     0.70024   0.91218   0.56534   0.00000  Uiso   1.00
H1748  H     0.98900   0.84625   0.54065   0.00000  Uiso   1.00
H1749  H     0.93509   0.84631   0.95583   0.00000  Uiso   1.00
H1750  H     0.70390   0.75730   0.74932   0.00000  Uiso   1.00
H1751  H     0.96282   0.90909   0.75211   0.00000  Uiso   1.00
H1752  H     0.96278   0.75730   0.75025   0.00000  Uiso   1.00
H1753  H     0.70384   0.90910   0.74815   0.00000  Uiso   1.00
H1754  H     0.78619   0.71024   0.70223   0.00000  Uiso   1.00
N1755  N     0.83333   0.95069   0.75000   0.00000  Uiso   1.00
N1756  N     0.83333   0.71598   0.75000   0.00000  Uiso   1.00
O1757  O     0.77321   0.87291   0.75000   0.00000  Uiso   1.00
O1758  O     0.89345   0.79375   0.75001   0.00000  Uiso   1.00
O1759  O     0.89345   0.87291   0.75001   0.00000  Uiso   1.00
O1760  O     0.77321   0.79375   0.75000   0.00000  Uiso   1.00
O1761  O     0.83332   0.87293   0.68513   0.00000  Uiso   1.00
O1762  O     0.83334   0.79373   0.81487   0.00000  Uiso   1.00
O1763  O     0.83334   0.87293   0.81487   0.00000  Uiso   1.00
O1764  O     0.83332   0.79373   0.68513   0.00000  Uiso   1.00
loop_
_geom_bond_atom_site_label_1
_geom_bond_atom_site_label_2
_geom_bond_distance
_geom_bond_site_symmetry_2
_ccdc_geom_bond_type
C1     C2      1.455   .     S
C1     O94     1.290   .     A
C1     O91     1.292   .     A
C2     C45     1.402   .     A
C2     C53     1.402   .     A
C3     N90     1.367   .     A
C3     H88     1.082   .     S
C3     C594    1.416   1_545 S
C4     N89     1.367   .     A
C4     H58     1.082   .     S
C4     C299    1.416   .     S
C5     N90     1.367   .     A
C5     H59     1.082   .     S
C5     C592    1.416   1_545 S
C6     H60     1.082   .     S
C6     N89     1.367   .     A
C6     C297    1.416   .     S
C7     O98     1.292   .     A
C7     C13     1.459   .     S
C7     O95     1.290   .     A
C8     O96     1.292   .     A
C8     O97     1.290   .     A
C8     C11     1.459   .     S
C9     H57     1.085   .     S
C9     C20     1.396   .     A
C9     C11     1.397   .     A
C10    C21     1.396   .     A
C10    C13     1.397   .     A
C10    H68     1.085   .     S
C11    C14     1.410   .     A
C12    O93     1.292   .     A
C12    O92     1.290   .     A
C12    C54     1.455   .     S
C13    C15     1.410   .     A
C14    C16     1.419   .     A
C14    C25     1.480   .     S
C15    C17     1.419   .     A
C15    C31     1.480   .     S
C16    C18     1.412   .     A
C16    C22     1.419   .     A
C17    C19     1.412   .     A
C17    C24     1.419   .     A
C18    C20     1.408   .     A
C18    C901    1.409   .     S
C19    C21     1.408   .     A
C19    C900    1.409   1_554 S
C20    C34     1.398   .     A
C21    C23     1.398   .     A
C22    C38     1.481   .     S
C22    C905    1.399   .     S
C23    H79     1.080   .     S
C23    C904    1.399   1_554 S
C24    C44     1.481   .     S
C24    C916    1.399   1_554 S
C25    C26     1.402   .     A
C25    C30     1.405   .     A
C26    H61     1.083   .     S
C26    C27     1.397   .     A
C27    H62     1.082   .     S
C27    C28     1.399   .     A
C28    C29     1.397   .     A
C28    H259    1.082   1_455 S
C29    H64     1.082   .     S
C29    C30     1.397   .     A
C30    H65     1.083   .     S
C31    C32     1.402   .     A
C31    C37     1.405   .     A
C32    H66     1.083   .     S
C32    C33     1.397   .     A
C33    H67     1.082   .     S
C33    C35     1.399   .     A
C34    H83     1.080   .     S
C34    C906    1.399   .     S
C35    C36     1.397   .     A
C35    H167    1.082   .     S
C36    H70     1.082   .     S
C36    C37     1.397   .     A
C37    H71     1.083   .     S
C38    C39     1.407   .     A
C38    C43     1.401   .     A
C39    H72     1.083   .     S
C39    C40     1.397   .     A
C40    C41     1.395   .     A
C40    H367    1.082   .     S
C41    C238    1.396   1_455 S
C41    H270    1.082   1_455 S
C42    H75     1.079   .     S
C42    C139    1.396   .     S
C42    C141    1.404   .     S
C43    H76     1.082   .     S
C43    C238    1.404   1_455 S
C44    C46     1.407   .     A
C44    C50     1.401   .     A
C45    H84     1.083   .     S
C45    C248    1.386   1_455 S
C46    C47     1.397   .     A
C46    H77     1.083   .     S
C47    C48     1.395   .     A
C47    H372    1.082   .     S
C48    C147    1.396   .     S
C48    H178    1.082   .     S
C49    H81     1.079   .     S
C49    C244    1.396   1_455 S
C49    C246    1.403   1_455 S
C50    H82     1.082   .     S
C50    C147    1.403   .     S
C51    H85     1.083   .     S
C51    C54     1.401   .     A
C51    C151    1.386   .     S
C52    C54     1.402   .     A
C52    H86     1.083   .     S
C52    C143    1.386   .     S
C53    H87     1.083   .     S
C53    C247    1.386   1_455 S
Cu55   Cu56    2.674   .     S
Cu55   O93     1.971   .     S
Cu55   O91     1.971   .     S
Cu55   O95     1.970   .     S
Cu55   O97     1.970   .     S
Cu55   N89     2.009   .     S
Cu56   O98     1.970   .     S
Cu56   O94     1.971   .     S
Cu56   N90     2.009   .     S
Cu56   O96     1.970   .     S
Cu56   O92     1.971   .     S
H63    C126    1.082   .     S
H69    C231    1.082   1_455 S
H73    C628    1.082   1_545 S
H74    C139    1.082   .     S
H78    C635    1.082   1_545 S
H80    C244    1.082   1_455 S
C99    C100    1.455   .     S
C99    O192    1.290   .     A
C99    O189    1.292   .     A
C100   C143    1.402   .     A
C100   C151    1.402   .     A
C101   N188    1.367   .     A
C101   H186    1.082   .     S
C101   C692    1.416   1_545 S
C102   N187    1.367   .     A
C102   H156    1.082   .     S
C102   C397    1.416   .     S
C103   N188    1.367   .     A
C103   H157    1.082   .     S
C103   C690    1.416   1_545 S
C104   H158    1.082   .     S
C104   N187    1.367   .     A
C104   C395    1.416   .     S
C105   O196    1.292   .     A
C105   C111    1.459   .     S
C105   O193    1.290   .     A
C106   O194    1.292   .     A
C106   O195    1.290   .     A
C106   C109    1.459   .     S
C107   H155    1.085   .     S
C107   C118    1.396   .     A
C107   C109    1.397   .     A
C108   C119    1.396   .     A
C108   C111    1.397   .     A
C108   H166    1.085   .     S
C109   C112    1.410   .     A
C110   O191    1.292   .     A
C110   O190    1.290   .     A
C110   C152    1.455   .     S
C111   C113    1.410   .     A
C112   C114    1.419   .     A
C112   C123    1.480   .     S
C113   C115    1.419   .     A
C113   C129    1.480   .     S
C114   C116    1.412   .     A
C114   C120    1.419   .     A
C115   C117    1.412   .     A
C115   C122    1.419   .     A
C116   C118    1.408   .     A
C116   C999    1.409   .     S
C117   C119    1.408   .     A
C117   C998    1.409   1_554 S
C118   C132    1.398   .     A
C119   C121    1.398   .     A
C120   C136    1.481   .     S
C120   C1003   1.399   .     S
C121   H177    1.080   .     S
C121   C1002   1.399   1_554 S
C122   C142    1.481   .     S
C122   C1014   1.399   1_554 S
C123   C124    1.402   .     A
C123   C128    1.405   .     A
C124   H159    1.083   .     S
C124   C125    1.397   .     A
C125   H160    1.082   .     S
C125   C126    1.399   .     A
C126   C127    1.397   .     A
C127   H162    1.082   .     S
C127   C128    1.397   .     A
C128   H163    1.083   .     S
C129   C130    1.402   .     A
C129   C135    1.405   .     A
C130   H164    1.083   .     S
C130   C131    1.397   .     A
C131   H165    1.082   .     S
C131   C133    1.399   .     A
C132   H181    1.080   .     S
C132   C1004   1.399   .     S
C133   C134    1.397   .     A
C133   H265    1.082   .     S
C134   H168    1.082   .     S
C134   C135    1.397   .     A
C135   H169    1.083   .     S
C136   C137    1.407   .     A
C136   C141    1.401   .     A
C137   H170    1.083   .     S
C137   C138    1.397   .     A
C138   C139    1.395   .     A
C138   H465    1.082   .     S
C140   H173    1.079   .     S
C140   C237    1.396   .     S
C140   C239    1.404   .     S
C141   H174    1.082   .     S
C142   C144    1.407   .     A
C142   C148    1.401   .     A
C143   H182    1.083   .     S
C144   C145    1.397   .     A
C144   H175    1.083   .     S
C145   C146    1.395   .     A
C145   H470    1.082   .     S
C146   C245    1.396   .     S
C146   H276    1.082   .     S
C147   H179    1.079   .     S
C148   H180    1.082   .     S
C148   C245    1.403   .     S
C149   H183    1.083   .     S
C149   C152    1.401   .     A
C149   C249    1.386   .     S
C150   C152    1.402   .     A
C150   H184    1.083   .     S
C150   C241    1.386   .     S
C151   H185    1.083   .     S
Cu153  Cu154   2.674   .     S
Cu153  O191    1.971   .     S
Cu153  O189    1.971   .     S
Cu153  O193    1.970   .     S
Cu153  O195    1.970   .     S
Cu153  N187    2.009   .     S
Cu154  O196    1.970   .     S
Cu154  O192    1.971   .     S
Cu154  N188    2.009   .     S
Cu154  O194    1.970   .     S
Cu154  O190    1.971   .     S
H161   C224    1.082   .     S
H171   C726    1.082   1_545 S
H172   C237    1.082   .     S
H176   C733    1.082   1_545 S
C197   C198    1.455   .     S
C197   O290    1.290   .     A
C197   O287    1.292   .     A
C198   C241    1.402   .     A
C198   C249    1.402   .     A
C199   N286    1.367   .     A
C199   H284    1.082   .     S
C199   C790    1.416   1_545 S
C200   N285    1.367   .     A
C200   H254    1.082   .     S
C200   C495    1.416   .     S
C201   N286    1.367   .     A
C201   H255    1.082   .     S
C201   C788    1.416   1_545 S
C202   H256    1.082   .     S
C202   N285    1.367   .     A
C202   C493    1.416   .     S
C203   O294    1.292   .     A
C203   C209    1.459   .     S
C203   O291    1.290   .     A
C204   O292    1.292   .     A
C204   O293    1.290   .     A
C204   C207    1.459   .     S
C205   H253    1.085   .     S
C205   C216    1.396   .     A
C205   C207    1.397   .     A
C206   C217    1.396   .     A
C206   C209    1.397   .     A
C206   H264    1.085   .     S
C207   C210    1.410   .     A
C208   O289    1.292   .     A
C208   O288    1.290   .     A
C208   C250    1.455   .     S
C209   C211    1.410   .     A
C210   C212    1.419   .     A
C210   C221    1.480   .     S
C211   C213    1.419   .     A
C211   C227    1.480   .     S
C212   C214    1.412   .     A
C212   C218    1.419   .     A
C213   C215    1.412   .     A
C213   C220    1.419   .     A
C214   C216    1.408   .     A
C214   C1097   1.409   .     S
C215   C217    1.408   .     A
C215   C1096   1.409   1_554 S
C216   C230    1.398   .     A
C217   C219    1.398   .     A
C218   C234    1.481   .     S
C218   C1101   1.399   .     S
C219   H275    1.080   .     S
C219   C1100   1.399   1_554 S
C220   C240    1.481   .     S
C220   C1112   1.399   1_554 S
C221   C222    1.402   .     A
C221   C226    1.405   .     A
C222   H257    1.083   .     S
C222   C223    1.397   .     A
C223   H258    1.082   .     S
C223   C224    1.399   .     A
C224   C225    1.397   .     A
C225   H260    1.082   .     S
C225   C226    1.397   .     A
C226   H261    1.083   .     S
C227   C228    1.402   .     A
C227   C233    1.405   .     A
C228   H262    1.083   .     S
C228   C229    1.397   .     A
C229   H263    1.082   .     S
C229   C231    1.399   .     A
C230   H279    1.080   .     S
C230   C1102   1.399   .     S
C231   C232    1.397   .     A
C231   H69     1.082   1_655 S
C232   H266    1.082   .     S
C232   C233    1.397   .     A
C233   H267    1.083   .     S
C234   C235    1.407   .     A
C234   C239    1.401   .     A
C235   H268    1.083   .     S
C235   C236    1.397   .     A
C236   C237    1.395   .     A
C236   H563    1.082   .     S
C238   H271    1.079   .     S
C238   C41     1.396   1_655 S
C238   C43     1.404   1_655 S
C239   H272    1.082   .     S
C240   C242    1.407   .     A
C240   C246    1.401   .     A
C241   H280    1.083   .     S
C242   C243    1.397   .     A
C242   H273    1.083   .     S
C243   C244    1.395   .     A
C243   H568    1.082   .     S
C244   C49     1.396   1_655 S
C244   H80     1.082   1_655 S
C245   H277    1.079   .     S
C246   H278    1.082   .     S
C246   C49     1.403   1_655 S
C247   H281    1.083   .     S
C247   C250    1.401   .     A
C247   C53     1.386   1_655 S
C248   C250    1.402   .     A
C248   H282    1.083   .     S
C248   C45     1.386   1_655 S
C249   H283    1.083   .     S
Cu251  Cu252   2.674   .     S
Cu251  O289    1.971   .     S
Cu251  O287    1.971   .     S
Cu251  O291    1.970   .     S
Cu251  O293    1.970   .     S
Cu251  N285    2.009   .     S
Cu252  O294    1.970   .     S
Cu252  O290    1.971   .     S
Cu252  N286    2.009   .     S
Cu252  O292    1.970   .     S
Cu252  O288    1.971   .     S
H259   C28     1.082   1_655 S
H269   C824    1.082   1_545 S
H270   C41     1.082   1_655 S
H274   C831    1.082   1_545 S
C295   C296    1.455   .     S
C295   O388    1.290   .     A
C295   O385    1.292   .     A
C296   C339    1.402   .     A
C296   C347    1.402   .     A
C297   N384    1.367   .     A
C297   H382    1.082   .     S
C298   N383    1.367   .     A
C298   H352    1.082   .     S
C298   C593    1.416   .     S
C299   N384    1.367   .     A
C299   H353    1.082   .     S
C300   H354    1.082   .     S
C300   N383    1.367   .     A
C300   C591    1.416   .     S
C301   O392    1.292   .     A
C301   C307    1.459   .     S
C301   O389    1.290   .     A
C302   O390    1.292   .     A
C302   O391    1.290   .     A
C302   C305    1.459   .     S
C303   H351    1.085   .     S
C303   C314    1.396   .     A
C303   C305    1.397   .     A
C304   C315    1.396   .     A
C304   C307    1.397   .     A
C304   H362    1.085   .     S
C305   C308    1.410   .     A
C306   O387    1.292   .     A
C306   O386    1.290   .     A
C306   C348    1.455   .     S
C307   C309    1.410   .     A
C308   C310    1.419   .     A
C308   C319    1.480   .     S
C309   C311    1.419   .     A
C309   C325    1.480   .     S
C310   C312    1.412   .     A
C310   C316    1.419   .     A
C311   C313    1.412   .     A
C311   C318    1.419   .     A
C312   C314    1.408   .     A
C312   C1195   1.409   .     S
C313   C315    1.408   .     A
C313   C1194   1.409   1_554 S
C314   C328    1.398   .     A
C315   C317    1.398   .     A
C316   C332    1.481   .     S
C316   C1199   1.399   .     S
C317   H373    1.080   .     S
C317   C1198   1.399   1_554 S
C318   C338    1.481   .     S
C318   C1210   1.399   1_554 S
C319   C320    1.402   .     A
C319   C324    1.405   .     A
C320   H355    1.083   .     S
C320   C321    1.397   .     A
C321   H356    1.082   .     S
C321   C322    1.399   .     A
C322   C323    1.397   .     A
C322   H553    1.082   1_455 S
C323   H358    1.082   .     S
C323   C324    1.397   .     A
C324   H359    1.083   .     S
C325   C326    1.402   .     A
C325   C331    1.405   .     A
C326   H360    1.083   .     S
C326   C327    1.397   .     A
C327   H361    1.082   .     S
C327   C329    1.399   .     A
C328   H377    1.080   .     S
C328   C1200   1.399   .     S
C329   C330    1.397   .     A
C329   H461    1.082   .     S
C330   H364    1.082   .     S
C330   C331    1.397   .     A
C331   H365    1.083   .     S
C332   C333    1.407   .     A
C332   C337    1.401   .     A
C333   H366    1.083   .     S
C333   C334    1.397   .     A
C334   C335    1.395   .     A
C334   H661    1.082   .     S
C335   C532    1.396   1_455 S
C335   H564    1.082   1_455 S
C336   H369    1.079   .     S
C336   C433    1.396   .     S
C336   C435    1.404   .     S
C337   H370    1.082   .     S
C337   C532    1.404   1_455 S
C338   C340    1.407   .     A
C338   C344    1.401   .     A
C339   H378    1.083   .     S
C339   C542    1.386   1_455 S
C340   C341    1.397   .     A
C340   H371    1.083   .     S
C341   C342    1.395   .     A
C341   H666    1.082   .     S
C342   C441    1.396   .     S
C342   H472    1.082   .     S
C343   H375    1.079   .     S
C343   C538    1.396   1_455 S
C343   C540    1.403   1_455 S
C344   H376    1.082   .     S
C344   C441    1.403   .     S
C345   H379    1.083   .     S
C345   C348    1.401   .     A
C345   C445    1.386   .     S
C346   C348    1.402   .     A
C346   H380    1.083   .     S
C346   C437    1.386   .     S
C347   H381    1.083   .     S
C347   C541    1.386   1_455 S
Cu349  Cu350   2.674   .     S
Cu349  O387    1.971   .     S
Cu349  O385    1.971   .     S
Cu349  O389    1.970   .     S
Cu349  O391    1.970   .     S
Cu349  N383    2.009   .     S
Cu350  O392    1.970   .     S
Cu350  O388    1.971   .     S
Cu350  N384    2.009   .     S
Cu350  O390    1.970   .     S
Cu350  O386    1.971   .     S
H357   C420    1.082   .     S
H363   C525    1.082   1_455 S
H368   C433    1.082   .     S
H374   C538    1.082   1_455 S
C393   C394    1.455   .     S
C393   O486    1.290   .     A
C393   O483    1.292   .     A
C394   C437    1.402   .     A
C394   C445    1.402   .     A
C395   N482    1.367   .     A
C395   H480    1.082   .     S
C396   N481    1.367   .     A
C396   H450    1.082   .     S
C396   C691    1.416   .     S
C397   N482    1.367   .     A
C397   H451    1.082   .     S
C398   H452    1.082   .     S
C398   N481    1.367   .     A
C398   C689    1.416   .     S
C399   O490    1.292   .     A
C399   C405    1.459   .     S
C399   O487    1.290   .     A
C400   O488    1.292   .     A
C400   O489    1.290   .     A
C400   C403    1.459   .     S
C401   H449    1.085   .     S
C401   C412    1.396   .     A
C401   C403    1.397   .     A
C402   C413    1.396   .     A
C402   C405    1.397   .     A
C402   H460    1.085   .     S
C403   C406    1.410   .     A
C404   O485    1.292   .     A
C404   O484    1.290   .     A
C404   C446    1.455   .     S
C405   C407    1.410   .     A
C406   C408    1.419   .     A
C406   C417    1.480   .     S
C407   C409    1.419   .     A
C407   C423    1.480   .     S
C408   C410    1.412   .     A
C408   C414    1.419   .     A
C409   C411    1.412   .     A
C409   C416    1.419   .     A
C410   C412    1.408   .     A
C410   C1293   1.409   .     S
C411   C413    1.408   .     A
C411   C1292   1.409   1_554 S
C412   C426    1.398   .     A
C413   C415    1.398   .     A
C414   C430    1.481   .     S
C414   C1297   1.399   .     S
C415   H471    1.080   .     S
C415   C1296   1.399   1_554 S
C416   C436    1.481   .     S
C416   C1308   1.399   1_554 S
C417   C418    1.402   .     A
C417   C422    1.405   .     A
C418   H453    1.083   .     S
C418   C419    1.397   .     A
C419   H454    1.082   .     S
C419   C420    1.399   .     A
C420   C421    1.397   .     A
C421   H456    1.082   .     S
C421   C422    1.397   .     A
C422   H457    1.083   .     S
C423   C424    1.402   .     A
C423   C429    1.405   .     A
C424   H458    1.083   .     S
C424   C425    1.397   .     A
C425   H459    1.082   .     S
C425   C427    1.399   .     A
C426   H475    1.080   .     S
C426   C1298   1.399   .     S
C427   C428    1.397   .     A
C427   H559    1.082   .     S
C428   H462    1.082   .     S
C428   C429    1.397   .     A
C429   H463    1.083   .     S
C430   C431    1.407   .     A
C430   C435    1.401   .     A
C431   H464    1.083   .     S
C431   C432    1.397   .     A
C432   C433    1.395   .     A
C432   H759    1.082   .     S
C434   H467    1.079   .     S
C434   C531    1.396   .     S
C434   C533    1.404   .     S
C435   H468    1.082   .     S
C436   C438    1.407   .     A
C436   C442    1.401   .     A
C437   H476    1.083   .     S
C438   C439    1.397   .     A
C438   H469    1.083   .     S
C439   C440    1.395   .     A
C439   H764    1.082   .     S
C440   C539    1.396   .     S
C440   H570    1.082   .     S
C441   H473    1.079   .     S
C442   H474    1.082   .     S
C442   C539    1.403   .     S
C443   H477    1.083   .     S
C443   C446    1.401   .     A
C443   C543    1.386   .     S
C444   C446    1.402   .     A
C444   H478    1.083   .     S
C444   C535    1.386   .     S
C445   H479    1.083   .     S
Cu447  Cu448   2.674   .     S
Cu447  O485    1.971   .     S
Cu447  O483    1.971   .     S
Cu447  O487    1.970   .     S
Cu447  O489    1.970   .     S
Cu447  N481    2.009   .     S
Cu448  O490    1.970   .     S
Cu448  O486    1.971   .     S
Cu448  N482    2.009   .     S
Cu448  O488    1.970   .     S
Cu448  O484    1.971   .     S
H455   C518    1.082   .     S
H466   C531    1.082   .     S
C491   C492    1.455   .     S
C491   O584    1.290   .     A
C491   O581    1.292   .     A
C492   C535    1.402   .     A
C492   C543    1.402   .     A
C493   N580    1.367   .     A
C493   H578    1.082   .     S
C494   N579    1.367   .     A
C494   H548    1.082   .     S
C494   C789    1.416   .     S
C495   N580    1.367   .     A
C495   H549    1.082   .     S
C496   H550    1.082   .     S
C496   N579    1.367   .     A
C496   C787    1.416   .     S
C497   O588    1.292   .     A
C497   C503    1.459   .     S
C497   O585    1.290   .     A
C498   O586    1.292   .     A
C498   O587    1.290   .     A
C498   C501    1.459   .     S
C499   H547    1.085   .     S
C499   C510    1.396   .     A
C499   C501    1.397   .     A
C500   C511    1.396   .     A
C500   C503    1.397   .     A
C500   H558    1.085   .     S
C501   C504    1.410   .     A
C502   O583    1.292   .     A
C502   O582    1.290   .     A
C502   C544    1.455   .     S
C503   C505    1.410   .     A
C504   C506    1.419   .     A
C504   C515    1.480   .     S
C505   C507    1.419   .     A
C505   C521    1.480   .     S
C506   C508    1.412   .     A
C506   C512    1.419   .     A
C507   C509    1.412   .     A
C507   C514    1.419   .     A
C508   C510    1.408   .     A
C508   C1391   1.409   .     S
C509   C511    1.408   .     A
C509   C1390   1.409   1_554 S
C510   C524    1.398   .     A
C511   C513    1.398   .     A
C512   C528    1.481   .     S
C512   C1395   1.399   .     S
C513   H569    1.080   .     S
C513   C1394   1.399   1_554 S
C514   C534    1.481   .     S
C514   C1406   1.399   1_554 S
C515   C516    1.402   .     A
C515   C520    1.405   .     A
C516   H551    1.083   .     S
C516   C517    1.397   .     A
C517   H552    1.082   .     S
C517   C518    1.399   .     A
C518   C519    1.397   .     A
C519   H554    1.082   .     S
C519   C520    1.397   .     A
C520   H555    1.083   .     S
C521   C522    1.402   .     A
C521   C527    1.405   .     A
C522   H556    1.083   .     S
C522   C523    1.397   .     A
C523   H557    1.082   .     S
C523   C525    1.399   .     A
C524   H573    1.080   .     S
C524   C1396   1.399   .     S
C525   C526    1.397   .     A
C525   H363    1.082   1_655 S
C526   H560    1.082   .     S
C526   C527    1.397   .     A
C527   H561    1.083   .     S
C528   C529    1.407   .     A
C528   C533    1.401   .     A
C529   H562    1.083   .     S
C529   C530    1.397   .     A
C530   C531    1.395   .     A
C530   H857    1.082   .     S
C532   H565    1.079   .     S
C532   C335    1.396   1_655 S
C532   C337    1.404   1_655 S
C533   H566    1.082   .     S
C534   C536    1.407   .     A
C534   C540    1.401   .     A
C535   H574    1.083   .     S
C536   C537    1.397   .     A
C536   H567    1.083   .     S
C537   C538    1.395   .     A
C537   H862    1.082   .     S
C538   C343    1.396   1_655 S
C538   H374    1.082   1_655 S
C539   H571    1.079   .     S
C540   H572    1.082   .     S
C540   C343    1.403   1_655 S
C541   H575    1.083   .     S
C541   C544    1.401   .     A
C541   C347    1.386   1_655 S
C542   C544    1.402   .     A
C542   H576    1.083   .     S
C542   C339    1.386   1_655 S
C543   H577    1.083   .     S
Cu545  Cu546   2.674   .     S
Cu545  O583    1.971   .     S
Cu545  O581    1.971   .     S
Cu545  O585    1.970   .     S
Cu545  O587    1.970   .     S
Cu545  N579    2.009   .     S
Cu546  O588    1.970   .     S
Cu546  O584    1.971   .     S
Cu546  N580    2.009   .     S
Cu546  O586    1.970   .     S
Cu546  O582    1.971   .     S
H553   C322    1.082   1_655 S
H564   C335    1.082   1_655 S
C589   C590    1.455   .     S
C589   O682    1.290   .     A
C589   O679    1.292   .     A
C590   C633    1.402   .     A
C590   C641    1.402   .     A
C591   N678    1.367   .     A
C591   H676    1.082   .     S
C592   N677    1.367   .     A
C592   H646    1.082   .     S
C592   C5      1.416   1_565 S
C593   N678    1.367   .     A
C593   H647    1.082   .     S
C594   H648    1.082   .     S
C594   N677    1.367   .     A
C594   C3      1.416   1_565 S
C595   O686    1.292   .     A
C595   C601    1.459   .     S
C595   O683    1.290   .     A
C596   O684    1.292   .     A
C596   O685    1.290   .     A
C596   C599    1.459   .     S
C597   H645    1.085   .     S
C597   C608    1.396   .     A
C597   C599    1.397   .     A
C598   C609    1.396   .     A
C598   C601    1.397   .     A
C598   H656    1.085   .     S
C599   C602    1.410   .     A
C600   O681    1.292   .     A
C600   O680    1.290   .     A
C600   C642    1.455   .     S
C601   C603    1.410   .     A
C602   C604    1.419   .     A
C602   C613    1.480   .     S
C603   C605    1.419   .     A
C603   C619    1.480   .     S
C604   C606    1.412   .     A
C604   C610    1.419   .     A
C605   C607    1.412   .     A
C605   C612    1.419   .     A
C606   C608    1.408   .     A
C606   C1489   1.409   .     S
C607   C609    1.408   .     A
C607   C1488   1.409   1_554 S
C608   C622    1.398   .     A
C609   C611    1.398   .     A
C610   C626    1.481   .     S
C610   C1493   1.399   .     S
C611   H667    1.080   .     S
C611   C1492   1.399   1_554 S
C612   C632    1.481   .     S
C612   C1504   1.399   1_554 S
C613   C614    1.402   .     A
C613   C618    1.405   .     A
C614   H649    1.083   .     S
C614   C615    1.397   .     A
C615   H650    1.082   .     S
C615   C616    1.399   .     A
C616   C617    1.397   .     A
C616   H847    1.082   1_455 S
C617   H652    1.082   .     S
C617   C618    1.397   .     A
C618   H653    1.083   .     S
C619   C620    1.402   .     A
C619   C625    1.405   .     A
C620   H654    1.083   .     S
C620   C621    1.397   .     A
C621   H655    1.082   .     S
C621   C623    1.399   .     A
C622   H671    1.080   .     S
C622   C1494   1.399   .     S
C623   C624    1.397   .     A
C623   H755    1.082   .     S
C624   H658    1.082   .     S
C624   C625    1.397   .     A
C625   H659    1.083   .     S
C626   C627    1.407   .     A
C626   C631    1.401   .     A
C627   H660    1.083   .     S
C627   C628    1.397   .     A
C628   C629    1.395   .     A
C628   H73     1.082   1_565 S
C629   C826    1.396   1_455 S
C629   H858    1.082   1_455 S
C630   H663    1.079   .     S
C630   C727    1.396   .     S
C630   C729    1.404   .     S
C631   H664    1.082   .     S
C631   C826    1.404   1_455 S
C632   C634    1.407   .     A
C632   C638    1.401   .     A
C633   H672    1.083   .     S
C633   C836    1.386   1_455 S
C634   C635    1.397   .     A
C634   H665    1.083   .     S
C635   C636    1.395   .     A
C635   H78     1.082   1_565 S
C636   C735    1.396   .     S
C636   H766    1.082   .     S
C637   H669    1.079   .     S
C637   C832    1.396   1_455 S
C637   C834    1.403   1_455 S
C638   H670    1.082   .     S
C638   C735    1.403   .     S
C639   H673    1.083   .     S
C639   C642    1.401   .     A
C639   C739    1.386   .     S
C640   C642    1.402   .     A
C640   H674    1.083   .     S
C640   C731    1.386   .     S
C641   H675    1.083   .     S
C641   C835    1.386   1_455 S
Cu643  Cu644   2.674   .     S
Cu643  O681    1.971   .     S
Cu643  O679    1.971   .     S
Cu643  O683    1.970   .     S
Cu643  O685    1.970   .     S
Cu643  N677    2.009   .     S
Cu644  O686    1.970   .     S
Cu644  O682    1.971   .     S
Cu644  N678    2.009   .     S
Cu644  O684    1.970   .     S
Cu644  O680    1.971   .     S
H651   C714    1.082   .     S
H657   C819    1.082   1_455 S
H662   C727    1.082   .     S
H668   C832    1.082   1_455 S
C687   C688    1.455   .     S
C687   O780    1.290   .     A
C687   O777    1.292   .     A
C688   C731    1.402   .     A
C688   C739    1.402   .     A
C689   N776    1.367   .     A
C689   H774    1.082   .     S
C690   N775    1.367   .     A
C690   H744    1.082   .     S
C690   C103    1.416   1_565 S
C691   N776    1.367   .     A
C691   H745    1.082   .     S
C692   H746    1.082   .     S
C692   N775    1.367   .     A
C692   C101    1.416   1_565 S
C693   O784    1.292   .     A
C693   C699    1.459   .     S
C693   O781    1.290   .     A
C694   O782    1.292   .     A
C694   O783    1.290   .     A
C694   C697    1.459   .     S
C695   H743    1.085   .     S
C695   C706    1.396   .     A
C695   C697    1.397   .     A
C696   C707    1.396   .     A
C696   C699    1.397   .     A
C696   H754    1.085   .     S
C697   C700    1.410   .     A
C698   O779    1.292   .     A
C698   O778    1.290   .     A
C698   C740    1.455   .     S
C699   C701    1.410   .     A
C700   C702    1.419   .     A
C700   C711    1.480   .     S
C701   C703    1.419   .     A
C701   C717    1.480   .     S
C702   C704    1.412   .     A
C702   C708    1.419   .     A
C703   C705    1.412   .     A
C703   C710    1.419   .     A
C704   C706    1.408   .     A
C704   C1587   1.409   .     S
C705   C707    1.408   .     A
C705   C1586   1.409   1_554 S
C706   C720    1.398   .     A
C707   C709    1.398   .     A
C708   C724    1.481   .     S
C708   C1591   1.399   .     S
C709   H765    1.080   .     S
C709   C1590   1.399   1_554 S
C710   C730    1.481   .     S
C710   C1602   1.399   1_554 S
C711   C712    1.402   .     A
C711   C716    1.405   .     A
C712   H747    1.083   .     S
C712   C713    1.397   .     A
C713   H748    1.082   .     S
C713   C714    1.399   .     A
C714   C715    1.397   .     A
C715   H750    1.082   .     S
C715   C716    1.397   .     A
C716   H751    1.083   .     S
C717   C718    1.402   .     A
C717   C723    1.405   .     A
C718   H752    1.083   .     S
C718   C719    1.397   .     A
C719   H753    1.082   .     S
C719   C721    1.399   .     A
C720   H769    1.080   .     S
C720   C1592   1.399   .     S
C721   C722    1.397   .     A
C721   H853    1.082   .     S
C722   H756    1.082   .     S
C722   C723    1.397   .     A
C723   H757    1.083   .     S
C724   C725    1.407   .     A
C724   C729    1.401   .     A
C725   H758    1.083   .     S
C725   C726    1.397   .     A
C726   C727    1.395   .     A
C726   H171    1.082   1_565 S
C728   H761    1.079   .     S
C728   C825    1.396   .     S
C728   C827    1.404   .     S
C729   H762    1.082   .     S
C730   C732    1.407   .     A
C730   C736    1.401   .     A
C731   H770    1.083   .     S
C732   C733    1.397   .     A
C732   H763    1.083   .     S
C733   C734    1.395   .     A
C733   H176    1.082   1_565 S
C734   C833    1.396   .     S
C734   H864    1.082   .     S
C735   H767    1.079   .     S
C736   H768    1.082   .     S
C736   C833    1.403   .     S
C737   H771    1.083   .     S
C737   C740    1.401   .     A
C737   C837    1.386   .     S
C738   C740    1.402   .     A
C738   H772    1.083   .     S
C738   C829    1.386   .     S
C739   H773    1.083   .     S
Cu741  Cu742   2.674   .     S
Cu741  O779    1.971   .     S
Cu741  O777    1.971   .     S
Cu741  O781    1.970   .     S
Cu741  O783    1.970   .     S
Cu741  N775    2.009   .     S
Cu742  O784    1.970   .     S
Cu742  O780    1.971   .     S
Cu742  N776    2.009   .     S
Cu742  O782    1.970   .     S
Cu742  O778    1.971   .     S
H749   C812    1.082   .     S
H760   C825    1.082   .     S
C785   C786    1.455   .     S
C785   O878    1.290   .     A
C785   O875    1.292   .     A
C786   C829    1.402   .     A
C786   C837    1.402   .     A
C787   N874    1.367   .     A
C787   H872    1.082   .     S
C788   N873    1.367   .     A
C788   H842    1.082   .     S
C788   C201    1.416   1_565 S
C789   N874    1.367   .     A
C789   H843    1.082   .     S
C790   H844    1.082   .     S
C790   N873    1.367   .     A
C790   C199    1.416   1_565 S
C791   O882    1.292   .     A
C791   C797    1.459   .     S
C791   O879    1.290   .     A
C792   O880    1.292   .     A
C792   O881    1.290   .     A
C792   C795    1.459   .     S
C793   H841    1.085   .     S
C793   C804    1.396   .     A
C793   C795    1.397   .     A
C794   C805    1.396   .     A
C794   C797    1.397   .     A
C794   H852    1.085   .     S
C795   C798    1.410   .     A
C796   O877    1.292   .     A
C796   O876    1.290   .     A
C796   C838    1.455   .     S
C797   C799    1.410   .     A
C798   C800    1.419   .     A
C798   C809    1.480   .     S
C799   C801    1.419   .     A
C799   C815    1.480   .     S
C800   C802    1.412   .     A
C800   C806    1.419   .     A
C801   C803    1.412   .     A
C801   C808    1.419   .     A
C802   C804    1.408   .     A
C802   C1685   1.409   .     S
C803   C805    1.408   .     A
C803   C1684   1.409   1_554 S
C804   C818    1.398   .     A
C805   C807    1.398   .     A
C806   C822    1.481   .     S
C806   C1689   1.399   .     S
C807   H863    1.080   .     S
C807   C1688   1.399   1_554 S
C808   C828    1.481   .     S
C808   C1700   1.399   1_554 S
C809   C810    1.402   .     A
C809   C814    1.405   .     A
C810   H845    1.083   .     S
C810   C811    1.397   .     A
C811   H846    1.082   .     S
C811   C812    1.399   .     A
C812   C813    1.397   .     A
C813   H848    1.082   .     S
C813   C814    1.397   .     A
C814   H849    1.083   .     S
C815   C816    1.402   .     A
C815   C821    1.405   .     A
C816   H850    1.083   .     S
C816   C817    1.397   .     A
C817   H851    1.082   .     S
C817   C819    1.399   .     A
C818   H867    1.080   .     S
C818   C1690   1.399   .     S
C819   C820    1.397   .     A
C819   H657    1.082   1_655 S
C820   H854    1.082   .     S
C820   C821    1.397   .     A
C821   H855    1.083   .     S
C822   C823    1.407   .     A
C822   C827    1.401   .     A
C823   H856    1.083   .     S
C823   C824    1.397   .     A
C824   C825    1.395   .     A
C824   H269    1.082   1_565 S
C826   H859    1.079   .     S
C826   C629    1.396   1_655 S
C826   C631    1.404   1_655 S
C827   H860    1.082   .     S
C828   C830    1.407   .     A
C828   C834    1.401   .     A
C829   H868    1.083   .     S
C830   C831    1.397   .     A
C830   H861    1.083   .     S
C831   C832    1.395   .     A
C831   H274    1.082   1_565 S
C832   C637    1.396   1_655 S
C832   H668    1.082   1_655 S
C833   H865    1.079   .     S
C834   H866    1.082   .     S
C834   C637    1.403   1_655 S
C835   H869    1.083   .     S
C835   C838    1.401   .     A
C835   C641    1.386   1_655 S
C836   C838    1.402   .     A
C836   H870    1.083   .     S
C836   C633    1.386   1_655 S
C837   H871    1.083   .     S
Cu839  Cu840   2.674   .     S
Cu839  O877    1.971   .     S
Cu839  O875    1.971   .     S
Cu839  O879    1.970   .     S
Cu839  O881    1.970   .     S
Cu839  N873    2.009   .     S
Cu840  O882    1.970   .     S
Cu840  O878    1.971   .     S
Cu840  N874    2.009   .     S
Cu840  O880    1.970   .     S
Cu840  O876    1.971   .     S
H847   C616    1.082   1_655 S
H858   C629    1.082   1_655 S
C883   C884    1.455   .     S
C883   O976    1.290   .     A
C883   O973    1.292   .     A
C884   C927    1.402   .     A
C884   C935    1.402   .     A
C885   N972    1.367   .     A
C885   H970    1.082   .     S
C885   C1476   1.416   1_545 S
C886   N971    1.367   .     A
C886   H940    1.082   .     S
C886   C1181   1.416   .     S
C887   N972    1.367   .     A
C887   H941    1.082   .     S
C887   C1474   1.416   1_545 S
C888   H942    1.082   .     S
C888   N971    1.367   .     A
C888   C1179   1.416   .     S
C889   O980    1.292   .     A
C889   C895    1.459   .     S
C889   O977    1.290   .     A
C890   O978    1.292   .     A
C890   O979    1.290   .     A
C890   C893    1.459   .     S
C891   H939    1.085   .     S
C891   C902    1.396   .     A
C891   C893    1.397   .     A
C892   C903    1.396   .     A
C892   C895    1.397   .     A
C892   H950    1.085   .     S
C893   C896    1.410   .     A
C894   O975    1.292   .     A
C894   O974    1.290   .     A
C894   C936    1.455   .     S
C895   C897    1.410   .     A
C896   C898    1.419   .     A
C896   C907    1.480   .     S
C897   C899    1.419   .     A
C897   C913    1.480   .     S
C898   C900    1.412   .     A
C898   C904    1.419   .     A
C899   C901    1.412   .     A
C899   C906    1.419   .     A
C900   C902    1.408   .     A
C900   C19     1.409   1_556 S
C901   C903    1.408   .     A
C902   C916    1.398   .     A
C903   C905    1.398   .     A
C904   C920    1.481   .     S
C904   C23     1.399   1_556 S
C905   H961    1.080   .     S
C906   C926    1.481   .     S
C907   C908    1.402   .     A
C907   C912    1.405   .     A
C908   H943    1.083   .     S
C908   C909    1.397   .     A
C909   H944    1.082   .     S
C909   C910    1.399   .     A
C910   C911    1.397   .     A
C910   H1141   1.082   1_455 S
C911   H946    1.082   .     S
C911   C912    1.397   .     A
C912   H947    1.083   .     S
C913   C914    1.402   .     A
C913   C919    1.405   .     A
C914   H948    1.083   .     S
C914   C915    1.397   .     A
C915   H949    1.082   .     S
C915   C917    1.399   .     A
C916   H965    1.080   .     S
C916   C24     1.399   1_556 S
C917   C918    1.397   .     A
C917   H1049   1.082   .     S
C918   H952    1.082   .     S
C918   C919    1.397   .     A
C919   H953    1.083   .     S
C920   C921    1.407   .     A
C920   C925    1.401   .     A
C921   H954    1.083   .     S
C921   C922    1.397   .     A
C922   C923    1.395   .     A
C922   H1249   1.082   .     S
C923   C1120   1.396   1_455 S
C923   H1152   1.082   1_455 S
C924   H957    1.079   .     S
C924   C1021   1.396   .     S
C924   C1023   1.404   .     S
C925   H958    1.082   .     S
C925   C1120   1.404   1_455 S
C926   C928    1.407   .     A
C926   C932    1.401   .     A
C927   H966    1.083   .     S
C927   C1130   1.386   1_455 S
C928   C929    1.397   .     A
C928   H959    1.083   .     S
C929   C930    1.395   .     A
C929   H1254   1.082   .     S
C930   C1029   1.396   .     S
C930   H1060   1.082   .     S
C931   H963    1.079   .     S
C931   C1126   1.396   1_455 S
C931   C1128   1.403   1_455 S
C932   H964    1.082   .     S
C932   C1029   1.403   .     S
C933   H967    1.083   .     S
C933   C936    1.401   .     A
C933   C1033   1.386   .     S
C934   C936    1.402   .     A
C934   H968    1.083   .     S
C934   C1025   1.386   .     S
C935   H969    1.083   .     S
C935   C1129   1.386   1_455 S
Cu937  Cu938   2.674   .     S
Cu937  O975    1.971   .     S
Cu937  O973    1.971   .     S
Cu937  O977    1.970   .     S
Cu937  O979    1.970   .     S
Cu937  N971    2.009   .     S
Cu938  O980    1.970   .     S
Cu938  O976    1.971   .     S
Cu938  N972    2.009   .     S
Cu938  O978    1.970   .     S
Cu938  O974    1.971   .     S
H945   C1008   1.082   .     S
H951   C1113   1.082   1_455 S
H955   C1510   1.082   1_545 S
H956   C1021   1.082   .     S
H960   C1517   1.082   1_545 S
H962   C1126   1.082   1_455 S
C981   C982    1.455   .     S
C981   O1074   1.290   .     A
C981   O1071   1.292   .     A
C982   C1025   1.402   .     A
C982   C1033   1.402   .     A
C983   N1070   1.367   .     A
C983   H1068   1.082   .     S
C983   C1574   1.416   1_545 S
C984   N1069   1.367   .     A
C984   H1038   1.082   .     S
C984   C1279   1.416   .     S
C985   N1070   1.367   .     A
C985   H1039   1.082   .     S
C985   C1572   1.416   1_545 S
C986   H1040   1.082   .     S
C986   N1069   1.367   .     A
C986   C1277   1.416   .     S
C987   O1078   1.292   .     A
C987   C993    1.459   .     S
C987   O1075   1.290   .     A
C988   O1076   1.292   .     A
C988   O1077   1.290   .     A
C988   C991    1.459   .     S
C989   H1037   1.085   .     S
C989   C1000   1.396   .     A
C989   C991    1.397   .     A
C990   C1001   1.396   .     A
C990   C993    1.397   .     A
C990   H1048   1.085   .     S
C991   C994    1.410   .     A
C992   O1073   1.292   .     A
C992   O1072   1.290   .     A
C992   C1034   1.455   .     S
C993   C995    1.410   .     A
C994   C996    1.419   .     A
C994   C1005   1.480   .     S
C995   C997    1.419   .     A
C995   C1011   1.480   .     S
C996   C998    1.412   .     A
C996   C1002   1.419   .     A
C997   C999    1.412   .     A
C997   C1004   1.419   .     A
C998   C1000   1.408   .     A
C998   C117    1.409   1_556 S
C999   C1001   1.408   .     A
C1000  C1014   1.398   .     A
C1001  C1003   1.398   .     A
C1002  C1018   1.481   .     S
C1002  C121    1.399   1_556 S
C1003  H1059   1.080   .     S
C1004  C1024   1.481   .     S
C1005  C1006   1.402   .     A
C1005  C1010   1.405   .     A
C1006  H1041   1.083   .     S
C1006  C1007   1.397   .     A
C1007  H1042   1.082   .     S
C1007  C1008   1.399   .     A
C1008  C1009   1.397   .     A
C1009  H1044   1.082   .     S
C1009  C1010   1.397   .     A
C1010  H1045   1.083   .     S
C1011  C1012   1.402   .     A
C1011  C1017   1.405   .     A
C1012  H1046   1.083   .     S
C1012  C1013   1.397   .     A
C1013  H1047   1.082   .     S
C1013  C1015   1.399   .     A
C1014  H1063   1.080   .     S
C1014  C122    1.399   1_556 S
C1015  C1016   1.397   .     A
C1015  H1147   1.082   .     S
C1016  H1050   1.082   .     S
C1016  C1017   1.397   .     A
C1017  H1051   1.083   .     S
C1018  C1019   1.407   .     A
C1018  C1023   1.401   .     A
C1019  H1052   1.083   .     S
C1019  C1020   1.397   .     A
C1020  C1021   1.395   .     A
C1020  H1347   1.082   .     S
C1022  H1055   1.079   .     S
C1022  C1119   1.396   .     S
C1022  C1121   1.404   .     S
C1023  H1056   1.082   .     S
C1024  C1026   1.407   .     A
C1024  C1030   1.401   .     A
C1025  H1064   1.083   .     S
C1026  C1027   1.397   .     A
C1026  H1057   1.083   .     S
C1027  C1028   1.395   .     A
C1027  H1352   1.082   .     S
C1028  C1127   1.396   .     S
C1028  H1158   1.082   .     S
C1029  H1061   1.079   .     S
C1030  H1062   1.082   .     S
C1030  C1127   1.403   .     S
C1031  H1065   1.083   .     S
C1031  C1034   1.401   .     A
C1031  C1131   1.386   .     S
C1032  C1034   1.402   .     A
C1032  H1066   1.083   .     S
C1032  C1123   1.386   .     S
C1033  H1067   1.083   .     S
Cu1035 Cu1036  2.674   .     S
Cu1035 O1073   1.971   .     S
Cu1035 O1071   1.971   .     S
Cu1035 O1075   1.970   .     S
Cu1035 O1077   1.970   .     S
Cu1035 N1069   2.009   .     S
Cu1036 O1078   1.970   .     S
Cu1036 O1074   1.971   .     S
Cu1036 N1070   2.009   .     S
Cu1036 O1076   1.970   .     S
Cu1036 O1072   1.971   .     S
H1043  C1106   1.082   .     S
H1053  C1608   1.082   1_545 S
H1054  C1119   1.082   .     S
H1058  C1615   1.082   1_545 S
C1079  C1080   1.455   .     S
C1079  O1172   1.290   .     A
C1079  O1169   1.292   .     A
C1080  C1123   1.402   .     A
C1080  C1131   1.402   .     A
C1081  N1168   1.367   .     A
C1081  H1166   1.082   .     S
C1081  C1672   1.416   1_545 S
C1082  N1167   1.367   .     A
C1082  H1136   1.082   .     S
C1082  C1377   1.416   .     S
C1083  N1168   1.367   .     A
C1083  H1137   1.082   .     S
C1083  C1670   1.416   1_545 S
C1084  H1138   1.082   .     S
C1084  N1167   1.367   .     A
C1084  C1375   1.416   .     S
C1085  O1176   1.292   .     A
C1085  C1091   1.459   .     S
C1085  O1173   1.290   .     A
C1086  O1174   1.292   .     A
C1086  O1175   1.290   .     A
C1086  C1089   1.459   .     S
C1087  H1135   1.085   .     S
C1087  C1098   1.396   .     A
C1087  C1089   1.397   .     A
C1088  C1099   1.396   .     A
C1088  C1091   1.397   .     A
C1088  H1146   1.085   .     S
C1089  C1092   1.410   .     A
C1090  O1171   1.292   .     A
C1090  O1170   1.290   .     A
C1090  C1132   1.455   .     S
C1091  C1093   1.410   .     A
C1092  C1094   1.419   .     A
C1092  C1103   1.480   .     S
C1093  C1095   1.419   .     A
C1093  C1109   1.480   .     S
C1094  C1096   1.412   .     A
C1094  C1100   1.419   .     A
C1095  C1097   1.412   .     A
C1095  C1102   1.419   .     A
C1096  C1098   1.408   .     A
C1096  C215    1.409   1_556 S
C1097  C1099   1.408   .     A
C1098  C1112   1.398   .     A
C1099  C1101   1.398   .     A
C1100  C1116   1.481   .     S
C1100  C219    1.399   1_556 S
C1101  H1157   1.080   .     S
C1102  C1122   1.481   .     S
C1103  C1104   1.402   .     A
C1103  C1108   1.405   .     A
C1104  H1139   1.083   .     S
C1104  C1105   1.397   .     A
C1105  H1140   1.082   .     S
C1105  C1106   1.399   .     A
C1106  C1107   1.397   .     A
C1107  H1142   1.082   .     S
C1107  C1108   1.397   .     A
C1108  H1143   1.083   .     S
C1109  C1110   1.402   .     A
C1109  C1115   1.405   .     A
C1110  H1144   1.083   .     S
C1110  C1111   1.397   .     A
C1111  H1145   1.082   .     S
C1111  C1113   1.399   .     A
C1112  H1161   1.080   .     S
C1112  C220    1.399   1_556 S
C1113  C1114   1.397   .     A
C1113  H951    1.082   1_655 S
C1114  H1148   1.082   .     S
C1114  C1115   1.397   .     A
C1115  H1149   1.083   .     S
C1116  C1117   1.407   .     A
C1116  C1121   1.401   .     A
C1117  H1150   1.083   .     S
C1117  C1118   1.397   .     A
C1118  C1119   1.395   .     A
C1118  H1445   1.082   .     S
C1120  H1153   1.079   .     S
C1120  C923    1.396   1_655 S
C1120  C925    1.404   1_655 S
C1121  H1154   1.082   .     S
C1122  C1124   1.407   .     A
C1122  C1128   1.401   .     A
C1123  H1162   1.083   .     S
C1124  C1125   1.397   .     A
C1124  H1155   1.083   .     S
C1125  C1126   1.395   .     A
C1125  H1450   1.082   .     S
C1126  C931    1.396   1_655 S
C1126  H962    1.082   1_655 S
C1127  H1159   1.079   .     S
C1128  H1160   1.082   .     S
C1128  C931    1.403   1_655 S
C1129  H1163   1.083   .     S
C1129  C1132   1.401   .     A
C1129  C935    1.386   1_655 S
C1130  C1132   1.402   .     A
C1130  H1164   1.083   .     S
C1130  C927    1.386   1_655 S
C1131  H1165   1.083   .     S
Cu1133 Cu1134  2.674   .     S
Cu1133 O1171   1.971   .     S
Cu1133 O1169   1.971   .     S
Cu1133 O1173   1.970   .     S
Cu1133 O1175   1.970   .     S
Cu1133 N1167   2.009   .     S
Cu1134 O1176   1.970   .     S
Cu1134 O1172   1.971   .     S
Cu1134 N1168   2.009   .     S
Cu1134 O1174   1.970   .     S
Cu1134 O1170   1.971   .     S
H1141  C910    1.082   1_655 S
H1151  C1706   1.082   1_545 S
H1152  C923    1.082   1_655 S
H1156  C1713   1.082   1_545 S
C1177  C1178   1.455   .     S
C1177  O1270   1.290   .     A
C1177  O1267   1.292   .     A
C1178  C1221   1.402   .     A
C1178  C1229   1.402   .     A
C1179  N1266   1.367   .     A
C1179  H1264   1.082   .     S
C1180  N1265   1.367   .     A
C1180  H1234   1.082   .     S
C1180  C1475   1.416   .     S
C1181  N1266   1.367   .     A
C1181  H1235   1.082   .     S
C1182  H1236   1.082   .     S
C1182  N1265   1.367   .     A
C1182  C1473   1.416   .     S
C1183  O1274   1.292   .     A
C1183  C1189   1.459   .     S
C1183  O1271   1.290   .     A
C1184  O1272   1.292   .     A
C1184  O1273   1.290   .     A
C1184  C1187   1.459   .     S
C1185  H1233   1.085   .     S
C1185  C1196   1.396   .     A
C1185  C1187   1.397   .     A
C1186  C1197   1.396   .     A
C1186  C1189   1.397   .     A
C1186  H1244   1.085   .     S
C1187  C1190   1.410   .     A
C1188  O1269   1.292   .     A
C1188  O1268   1.290   .     A
C1188  C1230   1.455   .     S
C1189  C1191   1.410   .     A
C1190  C1192   1.419   .     A
C1190  C1201   1.480   .     S
C1191  C1193   1.419   .     A
C1191  C1207   1.480   .     S
C1192  C1194   1.412   .     A
C1192  C1198   1.419   .     A
C1193  C1195   1.412   .     A
C1193  C1200   1.419   .     A
C1194  C1196   1.408   .     A
C1194  C313    1.409   1_556 S
C1195  C1197   1.408   .     A
C1196  C1210   1.398   .     A
C1197  C1199   1.398   .     A
C1198  C1214   1.481   .     S
C1198  C317    1.399   1_556 S
C1199  H1255   1.080   .     S
C1200  C1220   1.481   .     S
C1201  C1202   1.402   .     A
C1201  C1206   1.405   .     A
C1202  H1237   1.083   .     S
C1202  C1203   1.397   .     A
C1203  H1238   1.082   .     S
C1203  C1204   1.399   .     A
C1204  C1205   1.397   .     A
C1204  H1435   1.082   1_455 S
C1205  H1240   1.082   .     S
C1205  C1206   1.397   .     A
C1206  H1241   1.083   .     S
C1207  C1208   1.402   .     A
C1207  C1213   1.405   .     A
C1208  H1242   1.083   .     S
C1208  C1209   1.397   .     A
C1209  H1243   1.082   .     S
C1209  C1211   1.399   .     A
C1210  H1259   1.080   .     S
C1210  C318    1.399   1_556 S
C1211  C1212   1.397   .     A
C1211  H1343   1.082   .     S
C1212  H1246   1.082   .     S
C1212  C1213   1.397   .     A
C1213  H1247   1.083   .     S
C1214  C1215   1.407   .     A
C1214  C1219   1.401   .     A
C1215  H1248   1.083   .     S
C1215  C1216   1.397   .     A
C1216  C1217   1.395   .     A
C1216  H1543   1.082   .     S
C1217  C1414   1.396   1_455 S
C1217  H1446   1.082   1_455 S
C1218  H1251   1.079   .     S
C1218  C1315   1.396   .     S
C1218  C1317   1.404   .     S
C1219  H1252   1.082   .     S
C1219  C1414   1.404   1_455 S
C1220  C1222   1.407   .     A
C1220  C1226   1.401   .     A
C1221  H1260   1.083   .     S
C1221  C1424   1.386   1_455 S
C1222  C1223   1.397   .     A
C1222  H1253   1.083   .     S
C1223  C1224   1.395   .     A
C1223  H1548   1.082   .     S
C1224  C1323   1.396   .     S
C1224  H1354   1.082   .     S
C1225  H1257   1.079   .     S
C1225  C1420   1.396   1_455 S
C1225  C1422   1.403   1_455 S
C1226  H1258   1.082   .     S
C1226  C1323   1.403   .     S
C1227  H1261   1.083   .     S
C1227  C1230   1.401   .     A
C1227  C1327   1.386   .     S
C1228  C1230   1.402   .     A
C1228  H1262   1.083   .     S
C1228  C1319   1.386   .     S
C1229  H1263   1.083   .     S
C1229  C1423   1.386   1_455 S
Cu1231 Cu1232  2.674   .     S
Cu1231 O1269   1.971   .     S
Cu1231 O1267   1.971   .     S
Cu1231 O1271   1.970   .     S
Cu1231 O1273   1.970   .     S
Cu1231 N1265   2.009   .     S
Cu1232 O1274   1.970   .     S
Cu1232 O1270   1.971   .     S
Cu1232 N1266   2.009   .     S
Cu1232 O1272   1.970   .     S
Cu1232 O1268   1.971   .     S
H1239  C1302   1.082   .     S
H1245  C1407   1.082   1_455 S
H1250  C1315   1.082   .     S
H1256  C1420   1.082   1_455 S
C1275  C1276   1.455   .     S
C1275  O1368   1.290   .     A
C1275  O1365   1.292   .     A
C1276  C1319   1.402   .     A
C1276  C1327   1.402   .     A
C1277  N1364   1.367   .     A
C1277  H1362   1.082   .     S
C1278  N1363   1.367   .     A
C1278  H1332   1.082   .     S
C1278  C1573   1.416   .     S
C1279  N1364   1.367   .     A
C1279  H1333   1.082   .     S
C1280  H1334   1.082   .     S
C1280  N1363   1.367   .     A
C1280  C1571   1.416   .     S
C1281  O1372   1.292   .     A
C1281  C1287   1.459   .     S
C1281  O1369   1.290   .     A
C1282  O1370   1.292   .     A
C1282  O1371   1.290   .     A
C1282  C1285   1.459   .     S
C1283  H1331   1.085   .     S
C1283  C1294   1.396   .     A
C1283  C1285   1.397   .     A
C1284  C1295   1.396   .     A
C1284  C1287   1.397   .     A
C1284  H1342   1.085   .     S
C1285  C1288   1.410   .     A
C1286  O1367   1.292   .     A
C1286  O1366   1.290   .     A
C1286  C1328   1.455   .     S
C1287  C1289   1.410   .     A
C1288  C1290   1.419   .     A
C1288  C1299   1.480   .     S
C1289  C1291   1.419   .     A
C1289  C1305   1.480   .     S
C1290  C1292   1.412   .     A
C1290  C1296   1.419   .     A
C1291  C1293   1.412   .     A
C1291  C1298   1.419   .     A
C1292  C1294   1.408   .     A
C1292  C411    1.409   1_556 S
C1293  C1295   1.408   .     A
C1294  C1308   1.398   .     A
C1295  C1297   1.398   .     A
C1296  C1312   1.481   .     S
C1296  C415    1.399   1_556 S
C1297  H1353   1.080   .     S
C1298  C1318   1.481   .     S
C1299  C1300   1.402   .     A
C1299  C1304   1.405   .     A
C1300  H1335   1.083   .     S
C1300  C1301   1.397   .     A
C1301  H1336   1.082   .     S
C1301  C1302   1.399   .     A
C1302  C1303   1.397   .     A
C1303  H1338   1.082   .     S
C1303  C1304   1.397   .     A
C1304  H1339   1.083   .     S
C1305  C1306   1.402   .     A
C1305  C1311   1.405   .     A
C1306  H1340   1.083   .     S
C1306  C1307   1.397   .     A
C1307  H1341   1.082   .     S
C1307  C1309   1.399   .     A
C1308  H1357   1.080   .     S
C1308  C416    1.399   1_556 S
C1309  C1310   1.397   .     A
C1309  H1441   1.082   .     S
C1310  H1344   1.082   .     S
C1310  C1311   1.397   .     A
C1311  H1345   1.083   .     S
C1312  C1313   1.407   .     A
C1312  C1317   1.401   .     A
C1313  H1346   1.083   .     S
C1313  C1314   1.397   .     A
C1314  C1315   1.395   .     A
C1314  H1641   1.082   .     S
C1316  H1349   1.079   .     S
C1316  C1413   1.396   .     S
C1316  C1415   1.404   .     S
C1317  H1350   1.082   .     S
C1318  C1320   1.407   .     A
C1318  C1324   1.401   .     A
C1319  H1358   1.083   .     S
C1320  C1321   1.397   .     A
C1320  H1351   1.083   .     S
C1321  C1322   1.395   .     A
C1321  H1646   1.082   .     S
C1322  C1421   1.396   .     S
C1322  H1452   1.082   .     S
C1323  H1355   1.079   .     S
C1324  H1356   1.082   .     S
C1324  C1421   1.403   .     S
C1325  H1359   1.083   .     S
C1325  C1328   1.401   .     A
C1325  C1425   1.386   .     S
C1326  C1328   1.402   .     A
C1326  H1360   1.083   .     S
C1326  C1417   1.386   .     S
C1327  H1361   1.083   .     S
Cu1329 Cu1330  2.674   .     S
Cu1329 O1367   1.971   .     S
Cu1329 O1365   1.971   .     S
Cu1329 O1369   1.970   .     S
Cu1329 O1371   1.970   .     S
Cu1329 N1363   2.009   .     S
Cu1330 O1372   1.970   .     S
Cu1330 O1368   1.971   .     S
Cu1330 N1364   2.009   .     S
Cu1330 O1370   1.970   .     S
Cu1330 O1366   1.971   .     S
H1337  C1400   1.082   .     S
H1348  C1413   1.082   .     S
C1373  C1374   1.455   .     S
C1373  O1466   1.290   .     A
C1373  O1463   1.292   .     A
C1374  C1417   1.402   .     A
C1374  C1425   1.402   .     A
C1375  N1462   1.367   .     A
C1375  H1460   1.082   .     S
C1376  N1461   1.367   .     A
C1376  H1430   1.082   .     S
C1376  C1671   1.416   .     S
C1377  N1462   1.367   .     A
C1377  H1431   1.082   .     S
C1378  H1432   1.082   .     S
C1378  N1461   1.367   .     A
C1378  C1669   1.416   .     S
C1379  O1470   1.292   .     A
C1379  C1385   1.459   .     S
C1379  O1467   1.290   .     A
C1380  O1468   1.292   .     A
C1380  O1469   1.290   .     A
C1380  C1383   1.459   .     S
C1381  H1429   1.085   .     S
C1381  C1392   1.396   .     A
C1381  C1383   1.397   .     A
C1382  C1393   1.396   .     A
C1382  C1385   1.397   .     A
C1382  H1440   1.085   .     S
C1383  C1386   1.410   .     A
C1384  O1465   1.292   .     A
C1384  O1464   1.290   .     A
C1384  C1426   1.455   .     S
C1385  C1387   1.410   .     A
C1386  C1388   1.419   .     A
C1386  C1397   1.480   .     S
C1387  C1389   1.419   .     A
C1387  C1403   1.480   .     S
C1388  C1390   1.412   .     A
C1388  C1394   1.419   .     A
C1389  C1391   1.412   .     A
C1389  C1396   1.419   .     A
C1390  C1392   1.408   .     A
C1390  C509    1.409   1_556 S
C1391  C1393   1.408   .     A
C1392  C1406   1.398   .     A
C1393  C1395   1.398   .     A
C1394  C1410   1.481   .     S
C1394  C513    1.399   1_556 S
C1395  H1451   1.080   .     S
C1396  C1416   1.481   .     S
C1397  C1398   1.402   .     A
C1397  C1402   1.405   .     A
C1398  H1433   1.083   .     S
C1398  C1399   1.397   .     A
C1399  H1434   1.082   .     S
C1399  C1400   1.399   .     A
C1400  C1401   1.397   .     A
C1401  H1436   1.082   .     S
C1401  C1402   1.397   .     A
C1402  H1437   1.083   .     S
C1403  C1404   1.402   .     A
C1403  C1409   1.405   .     A
C1404  H1438   1.083   .     S
C1404  C1405   1.397   .     A
C1405  H1439   1.082   .     S
C1405  C1407   1.399   .     A
C1406  H1455   1.080   .     S
C1406  C514    1.399   1_556 S
C1407  C1408   1.397   .     A
C1407  H1245   1.082   1_655 S
C1408  H1442   1.082   .     S
C1408  C1409   1.397   .     A
C1409  H1443   1.083   .     S
C1410  C1411   1.407   .     A
C1410  C1415   1.401   .     A
C1411  H1444   1.083   .     S
C1411  C1412   1.397   .     A
C1412  C1413   1.395   .     A
C1412  H1739   1.082   .     S
C1414  H1447   1.079   .     S
C1414  C1217   1.396   1_655 S
C1414  C1219   1.404   1_655 S
C1415  H1448   1.082   .     S
C1416  C1418   1.407   .     A
C1416  C1422   1.401   .     A
C1417  H1456   1.083   .     S
C1418  C1419   1.397   .     A
C1418  H1449   1.083   .     S
C1419  C1420   1.395   .     A
C1419  H1744   1.082   .     S
C1420  C1225   1.396   1_655 S
C1420  H1256   1.082   1_655 S
C1421  H1453   1.079   .     S
C1422  H1454   1.082   .     S
C1422  C1225   1.403   1_655 S
C1423  H1457   1.083   .     S
C1423  C1426   1.401   .     A
C1423  C1229   1.386   1_655 S
C1424  C1426   1.402   .     A
C1424  H1458   1.083   .     S
C1424  C1221   1.386   1_655 S
C1425  H1459   1.083   .     S
Cu1427 Cu1428  2.674   .     S
Cu1427 O1465   1.971   .     S
Cu1427 O1463   1.971   .     S
Cu1427 O1467   1.970   .     S
Cu1427 O1469   1.970   .     S
Cu1427 N1461   2.009   .     S
Cu1428 O1470   1.970   .     S
Cu1428 O1466   1.971   .     S
Cu1428 N1462   2.009   .     S
Cu1428 O1468   1.970   .     S
Cu1428 O1464   1.971   .     S
H1435  C1204   1.082   1_655 S
H1446  C1217   1.082   1_655 S
C1471  C1472   1.455   .     S
C1471  O1564   1.290   .     A
C1471  O1561   1.292   .     A
C1472  C1515   1.402   .     A
C1472  C1523   1.402   .     A
C1473  N1560   1.367   .     A
C1473  H1558   1.082   .     S
C1474  N1559   1.367   .     A
C1474  H1528   1.082   .     S
C1474  C887    1.416   1_565 S
C1475  N1560   1.367   .     A
C1475  H1529   1.082   .     S
C1476  H1530   1.082   .     S
C1476  N1559   1.367   .     A
C1476  C885    1.416   1_565 S
C1477  O1568   1.292   .     A
C1477  C1483   1.459   .     S
C1477  O1565   1.290   .     A
C1478  O1566   1.292   .     A
C1478  O1567   1.290   .     A
C1478  C1481   1.459   .     S
C1479  H1527   1.085   .     S
C1479  C1490   1.396   .     A
C1479  C1481   1.397   .     A
C1480  C1491   1.396   .     A
C1480  C1483   1.397   .     A
C1480  H1538   1.085   .     S
C1481  C1484   1.410   .     A
C1482  O1563   1.292   .     A
C1482  O1562   1.290   .     A
C1482  C1524   1.455   .     S
C1483  C1485   1.410   .     A
C1484  C1486   1.419   .     A
C1484  C1495   1.480   .     S
C1485  C1487   1.419   .     A
C1485  C1501   1.480   .     S
C1486  C1488   1.412   .     A
C1486  C1492   1.419   .     A
C1487  C1489   1.412   .     A
C1487  C1494   1.419   .     A
C1488  C1490   1.408   .     A
C1488  C607    1.409   1_556 S
C1489  C1491   1.408   .     A
C1490  C1504   1.398   .     A
C1491  C1493   1.398   .     A
C1492  C1508   1.481   .     S
C1492  C611    1.399   1_556 S
C1493  H1549   1.080   .     S
C1494  C1514   1.481   .     S
C1495  C1496   1.402   .     A
C1495  C1500   1.405   .     A
C1496  H1531   1.083   .     S
C1496  C1497   1.397   .     A
C1497  H1532   1.082   .     S
C1497  C1498   1.399   .     A
C1498  C1499   1.397   .     A
C1498  H1729   1.082   1_455 S
C1499  H1534   1.082   .     S
C1499  C1500   1.397   .     A
C1500  H1535   1.083   .     S
C1501  C1502   1.402   .     A
C1501  C1507   1.405   .     A
C1502  H1536   1.083   .     S
C1502  C1503   1.397   .     A
C1503  H1537   1.082   .     S
C1503  C1505   1.399   .     A
C1504  H1553   1.080   .     S
C1504  C612    1.399   1_556 S
C1505  C1506   1.397   .     A
C1505  H1637   1.082   .     S
C1506  H1540   1.082   .     S
C1506  C1507   1.397   .     A
C1507  H1541   1.083   .     S
C1508  C1509   1.407   .     A
C1508  C1513   1.401   .     A
C1509  H1542   1.083   .     S
C1509  C1510   1.397   .     A
C1510  C1511   1.395   .     A
C1510  H955    1.082   1_565 S
C1511  C1708   1.396   1_455 S
C1511  H1740   1.082   1_455 S
C1512  H1545   1.079   .     S
C1512  C1609   1.396   .     S
C1512  C1611   1.404   .     S
C1513  H1546   1.082   .     S
C1513  C1708   1.404   1_455 S
C1514  C1516   1.407   .     A
C1514  C1520   1.401   .     A
C1515  H1554   1.083   .     S
C1515  C1718   1.386   1_455 S
C1516  C1517   1.397   .     A
C1516  H1547   1.083   .     S
C1517  C1518   1.395   .     A
C1517  H960    1.082   1_565 S
C1518  C1617   1.396   .     S
C1518  H1648   1.082   .     S
C1519  H1551   1.079   .     S
C1519  C1714   1.396   1_455 S
C1519  C1716   1.403   1_455 S
C1520  H1552   1.082   .     S
C1520  C1617   1.403   .     S
C1521  H1555   1.083   .     S
C1521  C1524   1.401   .     A
C1521  C1621   1.386   .     S
C1522  C1524   1.402   .     A
C1522  H1556   1.083   .     S
C1522  C1613   1.386   .     S
C1523  H1557   1.083   .     S
C1523  C1717   1.386   1_455 S
Cu1525 Cu1526  2.674   .     S
Cu1525 O1563   1.971   .     S
Cu1525 O1561   1.971   .     S
Cu1525 O1565   1.970   .     S
Cu1525 O1567   1.970   .     S
Cu1525 N1559   2.009   .     S
Cu1526 O1568   1.970   .     S
Cu1526 O1564   1.971   .     S
Cu1526 N1560   2.009   .     S
Cu1526 O1566   1.970   .     S
Cu1526 O1562   1.971   .     S
H1533  C1596   1.082   .     S
H1539  C1701   1.082   1_455 S
H1544  C1609   1.082   .     S
H1550  C1714   1.082   1_455 S
C1569  C1570   1.455   .     S
C1569  O1662   1.290   .     A
C1569  O1659   1.292   .     A
C1570  C1613   1.402   .     A
C1570  C1621   1.402   .     A
C1571  N1658   1.367   .     A
C1571  H1656   1.082   .     S
C1572  N1657   1.367   .     A
C1572  H1626   1.082   .     S
C1572  C985    1.416   1_565 S
C1573  N1658   1.367   .     A
C1573  H1627   1.082   .     S
C1574  H1628   1.082   .     S
C1574  N1657   1.367   .     A
C1574  C983    1.416   1_565 S
C1575  O1666   1.292   .     A
C1575  C1581   1.459   .     S
C1575  O1663   1.290   .     A
C1576  O1664   1.292   .     A
C1576  O1665   1.290   .     A
C1576  C1579   1.459   .     S
C1577  H1625   1.085   .     S
C1577  C1588   1.396   .     A
C1577  C1579   1.397   .     A
C1578  C1589   1.396   .     A
C1578  C1581   1.397   .     A
C1578  H1636   1.085   .     S
C1579  C1582   1.410   .     A
C1580  O1661   1.292   .     A
C1580  O1660   1.290   .     A
C1580  C1622   1.455   .     S
C1581  C1583   1.410   .     A
C1582  C1584   1.419   .     A
C1582  C1593   1.480   .     S
C1583  C1585   1.419   .     A
C1583  C1599   1.480   .     S
C1584  C1586   1.412   .     A
C1584  C1590   1.419   .     A
C1585  C1587   1.412   .     A
C1585  C1592   1.419   .     A
C1586  C1588   1.408   .     A
C1586  C705    1.409   1_556 S
C1587  C1589   1.408   .     A
C1588  C1602   1.398   .     A
C1589  C1591   1.398   .     A
C1590  C1606   1.481   .     S
C1590  C709    1.399   1_556 S
C1591  H1647   1.080   .     S
C1592  C1612   1.481   .     S
C1593  C1594   1.402   .     A
C1593  C1598   1.405   .     A
C1594  H1629   1.083   .     S
C1594  C1595   1.397   .     A
C1595  H1630   1.082   .     S
C1595  C1596   1.399   .     A
C1596  C1597   1.397   .     A
C1597  H1632   1.082   .     S
C1597  C1598   1.397   .     A
C1598  H1633   1.083   .     S
C1599  C1600   1.402   .     A
C1599  C1605   1.405   .     A
C1600  H1634   1.083   .     S
C1600  C1601   1.397   .     A
C1601  H1635   1.082   .     S
C1601  C1603   1.399   .     A
C1602  H1651   1.080   .     S
C1602  C710    1.399   1_556 S
C1603  C1604   1.397   .     A
C1603  H1735   1.082   .     S
C1604  H1638   1.082   .     S
C1604  C1605   1.397   .     A
C1605  H1639   1.083   .     S
C1606  C1607   1.407   .     A
C1606  C1611   1.401   .     A
C1607  H1640   1.083   .     S
C1607  C1608   1.397   .     A
C1608  C1609   1.395   .     A
C1608  H1053   1.082   1_565 S
C1610  H1643   1.079   .     S
C1610  C1707   1.396   .     S
C1610  C1709   1.404   .     S
C1611  H1644   1.082   .     S
C1612  C1614   1.407   .     A
C1612  C1618   1.401   .     A
C1613  H1652   1.083   .     S
C1614  C1615   1.397   .     A
C1614  H1645   1.083   .     S
C1615  C1616   1.395   .     A
C1615  H1058   1.082   1_565 S
C1616  C1715   1.396   .     S
C1616  H1746   1.082   .     S
C1617  H1649   1.079   .     S
C1618  H1650   1.082   .     S
C1618  C1715   1.403   .     S
C1619  H1653   1.083   .     S
C1619  C1622   1.401   .     A
C1619  C1719   1.386   .     S
C1620  C1622   1.402   .     A
C1620  H1654   1.083   .     S
C1620  C1711   1.386   .     S
C1621  H1655   1.083   .     S
Cu1623 Cu1624  2.674   .     S
Cu1623 O1661   1.971   .     S
Cu1623 O1659   1.971   .     S
Cu1623 O1663   1.970   .     S
Cu1623 O1665   1.970   .     S
Cu1623 N1657   2.009   .     S
Cu1624 O1666   1.970   .     S
Cu1624 O1662   1.971   .     S
Cu1624 N1658   2.009   .     S
Cu1624 O1664   1.970   .     S
Cu1624 O1660   1.971   .     S
H1631  C1694   1.082   .     S
H1642  C1707   1.082   .     S
C1667  C1668   1.455   .     S
C1667  O1760   1.290   .     A
C1667  O1757   1.292   .     A
C1668  C1711   1.402   .     A
C1668  C1719   1.402   .     A
C1669  N1756   1.367   .     A
C1669  H1754   1.082   .     S
C1670  N1755   1.367   .     A
C1670  H1724   1.082   .     S
C1670  C1083   1.416   1_565 S
C1671  N1756   1.367   .     A
C1671  H1725   1.082   .     S
C1672  H1726   1.082   .     S
C1672  N1755   1.367   .     A
C1672  C1081   1.416   1_565 S
C1673  O1764   1.292   .     A
C1673  C1679   1.459   .     S
C1673  O1761   1.290   .     A
C1674  O1762   1.292   .     A
C1674  O1763   1.290   .     A
C1674  C1677   1.459   .     S
C1675  H1723   1.085   .     S
C1675  C1686   1.396   .     A
C1675  C1677   1.397   .     A
C1676  C1687   1.396   .     A
C1676  C1679   1.397   .     A
C1676  H1734   1.085   .     S
C1677  C1680   1.410   .     A
C1678  O1759   1.292   .     A
C1678  O1758   1.290   .     A
C1678  C1720   1.455   .     S
C1679  C1681   1.410   .     A
C1680  C1682   1.419   .     A
C1680  C1691   1.480   .     S
C1681  C1683   1.419   .     A
C1681  C1697   1.480   .     S
C1682  C1684   1.412   .     A
C1682  C1688   1.419   .     A
C1683  C1685   1.412   .     A
C1683  C1690   1.419   .     A
C1684  C1686   1.408   .     A
C1684  C803    1.409   1_556 S
C1685  C1687   1.408   .     A
C1686  C1700   1.398   .     A
C1687  C1689   1.398   .     A
C1688  C1704   1.481   .     S
C1688  C807    1.399   1_556 S
C1689  H1745   1.080   .     S
C1690  C1710   1.481   .     S
C1691  C1692   1.402   .     A
C1691  C1696   1.405   .     A
C1692  H1727   1.083   .     S
C1692  C1693   1.397   .     A
C1693  H1728   1.082   .     S
C1693  C1694   1.399   .     A
C1694  C1695   1.397   .     A
C1695  H1730   1.082   .     S
C1695  C1696   1.397   .     A
C1696  H1731   1.083   .     S
C1697  C1698   1.402   .     A
C1697  C1703   1.405   .     A
C1698  H1732   1.083   .     S
C1698  C1699   1.397   .     A
C1699  H1733   1.082   .     S
C1699  C1701   1.399   .     A
C1700  H1749   1.080   .     S
C1700  C808    1.399   1_556 S
C1701  C1702   1.397   .     A
C1701  H1539   1.082   1_655 S
C1702  H1736   1.082   .     S
C1702  C1703   1.397   .     A
C1703  H1737   1.083   .     S
C1704  C1705   1.407   .     A
C1704  C1709   1.401   .     A
C1705  H1738   1.083   .     S
C1705  C1706   1.397   .     A
C1706  C1707   1.395   .     A
C1706  H1151   1.082   1_565 S
C1708  H1741   1.079   .     S
C1708  C1511   1.396   1_655 S
C1708  C1513   1.404   1_655 S
C1709  H1742   1.082   .     S
C1710  C1712   1.407   .     A
C1710  C1716   1.401   .     A
C1711  H1750   1.083   .     S
C1712  C1713   1.397   .     A
C1712  H1743   1.083   .     S
C1713  C1714   1.395   .     A
C1713  H1156   1.082   1_565 S
C1714  C1519   1.396   1_655 S
C1714  H1550   1.082   1_655 S
C1715  H1747   1.079   .     S
C1716  H1748   1.082   .     S
C1716  C1519   1.403   1_655 S
C1717  H1751   1.083   .     S
C1717  C1720   1.401   .     A
C1717  C1523   1.386   1_655 S
C1718  C1720   1.402   .     A
C1718  H1752   1.083   .     S
C1718  C1515   1.386   1_655 S
C1719  H1753   1.083   .     S
Cu1721 Cu1722  2.674   .     S
Cu1721 O1759   1.971   .     S
Cu1721 O1757   1.971   .     S
Cu1721 O1761   1.970   .     S
Cu1721 O1763   1.970   .     S
Cu1721 N1755   2.009   .     S
Cu1722 O1764   1.970   .     S
Cu1722 O1760   1.971   .     S
Cu1722 N1756   2.009   .     S
Cu1722 O1762   1.970   .     S
Cu1722 O1758   1.971   .     S
H1729  C1498   1.082   1_655 S
H1740  C1511   1.082   1_655 S
