data_str_m2_o2_o10_pcu_sym.238
_audit_creation_date              2020-01-03
_audit_creation_method            'Materials Studio'
_symmetry_space_group_name_H-M    'P1'
_symmetry_Int_Tables_number       1
_symmetry_cell_setting            triclinic
loop_
_symmetry_equiv_pos_as_xyz
  x,y,z
_cell_length_a                    26.3280
_cell_length_b                    30.2455
_cell_length_c                    27.6115
_cell_angle_alpha                 89.7731
_cell_angle_beta                  97.6450
_cell_angle_gamma                 89.9272
loop_
_atom_site_label
_atom_site_type_symbol
_atom_site_fract_x
_atom_site_fract_y
_atom_site_fract_z
_atom_site_U_iso_or_equiv
_atom_site_adp_type
_atom_site_occupancy
C1     C     0.16761   0.16484   0.25026   0.00000  Uiso   1.00
C2     C     0.16750   0.33507   0.24999   0.00000  Uiso   1.00
C3     C     0.20134   0.22442   0.05784   0.00000  Uiso   1.00
C4     C     0.12962   0.22712   0.44206   0.00000  Uiso   1.00
C5     C     0.20071   0.22446   0.10874   0.00000  Uiso   1.00
C6     C     0.13026   0.22707   0.39115   0.00000  Uiso   1.00
C7     C     0.13238   0.27581   0.10040   0.00000  Uiso   1.00
C8     C     0.20330   0.27315   0.39970   0.00000  Uiso   1.00
C9     C     0.13129   0.27652   0.04920   0.00000  Uiso   1.00
C10    C     0.20453   0.27370   0.45089   0.00000  Uiso   1.00
C11    C     0.16636   0.25056   0.02717   0.00000  Uiso   1.00
C12    C     0.16703   0.25051   0.47281   0.00000  Uiso   1.00
C13    C     0.06810   0.24858   0.23781   0.00000  Uiso   1.00
C14    C     0.26527   0.25030   0.26225   0.00000  Uiso   1.00
C15    C     0.01333   0.24276   0.23172   0.00000  Uiso   1.00
C16    C     0.32014   0.25393   0.26869   0.00000  Uiso   1.00
C17    C     0.18800   0.04707   0.29426   0.00000  Uiso   1.00
C18    C     0.19457   0.45223   0.21464   0.00000  Uiso   1.00
C19    C     0.18738   0.09315   0.29463   0.00000  Uiso   1.00
C20    C     0.19402   0.40613   0.21445   0.00000  Uiso   1.00
C21    C     0.17053   0.11649   0.25096   0.00000  Uiso   1.00
C22    C     0.17039   0.38325   0.25012   0.00000  Uiso   1.00
C23    C     0.15711   0.09317   0.20733   0.00000  Uiso   1.00
C24    C     0.15000   0.40677   0.28670   0.00000  Uiso   1.00
C25    C     0.15875   0.04728   0.20719   0.00000  Uiso   1.00
C26    C     0.15153   0.45265   0.28708   0.00000  Uiso   1.00
C27    C     0.17372   0.02401   0.25071   0.00000  Uiso   1.00
C28    C     0.17347   0.47560   0.25090   0.00000  Uiso   1.00
Cu29   Cu    0.16667   0.24999   0.29822   0.00000  Uiso   1.00
Cu30   Cu    0.16667   0.25000   0.20179   0.00000  Uiso   1.00
H31    H     0.20021   0.02935   0.32800   0.00000  Uiso   1.00
H32    H     0.21217   0.46969   0.18686   0.00000  Uiso   1.00
H33    H     0.14448   0.11039   0.17337   0.00000  Uiso   1.00
H34    H     0.13201   0.38969   0.31449   0.00000  Uiso   1.00
H35    H     0.14717   0.02990   0.17331   0.00000  Uiso   1.00
H36    H     0.13460   0.47026   0.31506   0.00000  Uiso   1.00
H37    H     0.22888   0.20395   0.04244   0.00000  Uiso   1.00
H38    H     0.10015   0.20886   0.45738   0.00000  Uiso   1.00
H39    H     0.22753   0.20390   0.13176   0.00000  Uiso   1.00
H40    H     0.10139   0.20867   0.36803   0.00000  Uiso   1.00
H41    H     0.10567   0.29606   0.11711   0.00000  Uiso   1.00
H42    H     0.23185   0.29138   0.38310   0.00000  Uiso   1.00
N43    N     0.16667   0.25001   0.12935   0.00000  Uiso   1.00
N44    N     0.16667   0.24999   0.37066   0.00000  Uiso   1.00
O45    O     0.16667   0.18572   0.29072   0.00000  Uiso   1.00
O46    O     0.16666   0.31427   0.20929   0.00000  Uiso   1.00
O47    O     0.16667   0.18573   0.20928   0.00000  Uiso   1.00
O48    O     0.16666   0.31427   0.29072   0.00000  Uiso   1.00
O49    O     0.09161   0.24999   0.28132   0.00000  Uiso   1.00
O50    O     0.24172   0.25000   0.21868   0.00000  Uiso   1.00
O51    O     0.09161   0.25000   0.19989   0.00000  Uiso   1.00
O52    O     0.24172   0.25000   0.30012   0.00000  Uiso   1.00
O53    O     0.32206   0.22782   0.18702   0.00000  Uiso   1.00
C54    C     0.00227   0.18327   0.17908   0.00000  Uiso   1.00
H55    H     0.04429   0.17711   0.18603   0.00000  Uiso   1.00
H56    H     0.32377   0.17581   0.13986   0.00000  Uiso   1.00
C57    C     0.30773   0.15114   0.20926   0.00000  Uiso   1.00
H58    H     0.26583   0.15717   0.20268   0.00000  Uiso   1.00
H59    H     0.31541   0.11663   0.19873   0.00000  Uiso   1.00
H60    H     0.32157   0.15513   0.24875   0.00000  Uiso   1.00
O61    O     0.01101   0.26686   0.31418   0.00000  Uiso   1.00
C62    C     0.00764   0.31329   0.31787   0.00000  Uiso   1.00
H63    H     0.30054   0.32384   0.31861   0.00000  Uiso   1.00
H64    H     0.02313   0.33007   0.28691   0.00000  Uiso   1.00
C65    C     0.03921   0.32805   0.36518   0.00000  Uiso   1.00
H66    H     0.08004   0.31880   0.36510   0.00000  Uiso   1.00
H67    H     0.03649   0.36450   0.36882   0.00000  Uiso   1.00
H68    H     0.02465   0.31205   0.39688   0.00000  Uiso   1.00
O69    O     0.20125   0.11492   0.33831   0.00000  Uiso   1.00
C70    C     0.25447   0.12317   0.34352   0.00000  Uiso   1.00
H71    H     0.26529   0.14177   0.31152   0.00000  Uiso   1.00
H72    H     0.27640   0.09157   0.34785   0.00000  Uiso   1.00
C73    C     0.26942   0.15116   0.38881   0.00000  Uiso   1.00
H74    H     0.31126   0.15778   0.39333   0.00000  Uiso   1.00
H75    H     0.24858   0.18318   0.38510   0.00000  Uiso   1.00
H76    H     0.25979   0.13352   0.42174   0.00000  Uiso   1.00
O77    O     0.21500   0.38387   0.17818   0.00000  Uiso   1.00
C78    C     0.26651   0.37343   0.19564   0.00000  Uiso   1.00
H79    H     0.26963   0.35432   0.23050   0.00000  Uiso   1.00
H80    H     0.28983   0.40412   0.20146   0.00000  Uiso   1.00
C81    C     0.28857   0.34504   0.15809   0.00000  Uiso   1.00
H82    H     0.28778   0.36356   0.12319   0.00000  Uiso   1.00
H83    H     0.32883   0.33599   0.17185   0.00000  Uiso   1.00
H84    H     0.26574   0.31430   0.15131   0.00000  Uiso   1.00
Br85   Br    0.08235   0.31394   0.01109   0.00000  Uiso   1.00
Br86   Br    0.25711   0.30709   0.48914   0.00000  Uiso   1.00
C87    C     0.50095   0.16484   0.25026   0.00000  Uiso   1.00
C88    C     0.50084   0.33507   0.24999   0.00000  Uiso   1.00
C89    C     0.53467   0.22442   0.05784   0.00000  Uiso   1.00
C90    C     0.46295   0.22712   0.44206   0.00000  Uiso   1.00
C91    C     0.53404   0.22446   0.10874   0.00000  Uiso   1.00
C92    C     0.46359   0.22707   0.39115   0.00000  Uiso   1.00
C93    C     0.46572   0.27581   0.10040   0.00000  Uiso   1.00
C94    C     0.53663   0.27315   0.39970   0.00000  Uiso   1.00
C95    C     0.46462   0.27652   0.04920   0.00000  Uiso   1.00
C96    C     0.53786   0.27370   0.45089   0.00000  Uiso   1.00
C97    C     0.49969   0.25056   0.02717   0.00000  Uiso   1.00
C98    C     0.50036   0.25051   0.47281   0.00000  Uiso   1.00
C99    C     0.40143   0.24858   0.23781   0.00000  Uiso   1.00
C100   C     0.59860   0.25030   0.26225   0.00000  Uiso   1.00
C101   C     0.34667   0.24276   0.23172   0.00000  Uiso   1.00
C102   C     0.65347   0.25393   0.26869   0.00000  Uiso   1.00
C103   C     0.52133   0.04707   0.29426   0.00000  Uiso   1.00
C104   C     0.52790   0.45223   0.21464   0.00000  Uiso   1.00
C105   C     0.52071   0.09315   0.29463   0.00000  Uiso   1.00
C106   C     0.52735   0.40613   0.21445   0.00000  Uiso   1.00
C107   C     0.50386   0.11649   0.25096   0.00000  Uiso   1.00
C108   C     0.50372   0.38325   0.25012   0.00000  Uiso   1.00
C109   C     0.49044   0.09317   0.20733   0.00000  Uiso   1.00
C110   C     0.48334   0.40677   0.28670   0.00000  Uiso   1.00
C111   C     0.49209   0.04728   0.20719   0.00000  Uiso   1.00
C112   C     0.48486   0.45265   0.28708   0.00000  Uiso   1.00
C113   C     0.50705   0.02401   0.25071   0.00000  Uiso   1.00
C114   C     0.50680   0.47560   0.25090   0.00000  Uiso   1.00
Cu115  Cu    0.50000   0.24999   0.29822   0.00000  Uiso   1.00
Cu116  Cu    0.50000   0.25000   0.20179   0.00000  Uiso   1.00
H117   H     0.53354   0.02935   0.32800   0.00000  Uiso   1.00
H118   H     0.54551   0.46969   0.18686   0.00000  Uiso   1.00
H119   H     0.47781   0.11039   0.17337   0.00000  Uiso   1.00
H120   H     0.46534   0.38969   0.31449   0.00000  Uiso   1.00
H121   H     0.48050   0.02990   0.17331   0.00000  Uiso   1.00
H122   H     0.46793   0.47026   0.31506   0.00000  Uiso   1.00
H123   H     0.56222   0.20395   0.04244   0.00000  Uiso   1.00
H124   H     0.43348   0.20886   0.45738   0.00000  Uiso   1.00
H125   H     0.56086   0.20390   0.13176   0.00000  Uiso   1.00
H126   H     0.43472   0.20867   0.36803   0.00000  Uiso   1.00
H127   H     0.43900   0.29606   0.11711   0.00000  Uiso   1.00
H128   H     0.56518   0.29138   0.38310   0.00000  Uiso   1.00
N129   N     0.50000   0.25001   0.12935   0.00000  Uiso   1.00
N130   N     0.50000   0.24999   0.37066   0.00000  Uiso   1.00
O131   O     0.50000   0.18572   0.29072   0.00000  Uiso   1.00
O132   O     0.50000   0.31427   0.20929   0.00000  Uiso   1.00
O133   O     0.50000   0.18573   0.20928   0.00000  Uiso   1.00
O134   O     0.50000   0.31427   0.29072   0.00000  Uiso   1.00
O135   O     0.42495   0.24999   0.28132   0.00000  Uiso   1.00
O136   O     0.57505   0.25000   0.21868   0.00000  Uiso   1.00
O137   O     0.42495   0.25000   0.19989   0.00000  Uiso   1.00
O138   O     0.57505   0.25000   0.30012   0.00000  Uiso   1.00
O139   O     0.65539   0.22782   0.18702   0.00000  Uiso   1.00
C140   C     0.33561   0.18327   0.17908   0.00000  Uiso   1.00
H141   H     0.37762   0.17711   0.18603   0.00000  Uiso   1.00
H142   H     0.65710   0.17581   0.13986   0.00000  Uiso   1.00
C143   C     0.64107   0.15114   0.20926   0.00000  Uiso   1.00
H144   H     0.59916   0.15717   0.20268   0.00000  Uiso   1.00
H145   H     0.64874   0.11663   0.19873   0.00000  Uiso   1.00
H146   H     0.65490   0.15513   0.24875   0.00000  Uiso   1.00
O147   O     0.34435   0.26686   0.31418   0.00000  Uiso   1.00
C148   C     0.34097   0.31329   0.31787   0.00000  Uiso   1.00
H149   H     0.63388   0.32384   0.31861   0.00000  Uiso   1.00
H150   H     0.35646   0.33007   0.28691   0.00000  Uiso   1.00
C151   C     0.37255   0.32805   0.36518   0.00000  Uiso   1.00
H152   H     0.41338   0.31880   0.36510   0.00000  Uiso   1.00
H153   H     0.36983   0.36450   0.36882   0.00000  Uiso   1.00
H154   H     0.35798   0.31205   0.39688   0.00000  Uiso   1.00
O155   O     0.53458   0.11492   0.33831   0.00000  Uiso   1.00
C156   C     0.58780   0.12317   0.34352   0.00000  Uiso   1.00
H157   H     0.59862   0.14177   0.31152   0.00000  Uiso   1.00
H158   H     0.60973   0.09157   0.34785   0.00000  Uiso   1.00
C159   C     0.60275   0.15116   0.38881   0.00000  Uiso   1.00
H160   H     0.64460   0.15778   0.39333   0.00000  Uiso   1.00
H161   H     0.58191   0.18318   0.38510   0.00000  Uiso   1.00
H162   H     0.59312   0.13352   0.42174   0.00000  Uiso   1.00
O163   O     0.54834   0.38387   0.17818   0.00000  Uiso   1.00
C164   C     0.59985   0.37343   0.19564   0.00000  Uiso   1.00
H165   H     0.60297   0.35432   0.23050   0.00000  Uiso   1.00
H166   H     0.62317   0.40412   0.20146   0.00000  Uiso   1.00
C167   C     0.62191   0.34504   0.15809   0.00000  Uiso   1.00
H168   H     0.62112   0.36356   0.12319   0.00000  Uiso   1.00
H169   H     0.66216   0.33599   0.17185   0.00000  Uiso   1.00
H170   H     0.59908   0.31430   0.15131   0.00000  Uiso   1.00
Br171  Br    0.41569   0.31394   0.01109   0.00000  Uiso   1.00
Br172  Br    0.59044   0.30709   0.48914   0.00000  Uiso   1.00
C173   C     0.83428   0.16484   0.25026   0.00000  Uiso   1.00
C174   C     0.83417   0.33507   0.24999   0.00000  Uiso   1.00
C175   C     0.86800   0.22442   0.05784   0.00000  Uiso   1.00
C176   C     0.79629   0.22712   0.44206   0.00000  Uiso   1.00
C177   C     0.86737   0.22446   0.10874   0.00000  Uiso   1.00
C178   C     0.79692   0.22707   0.39115   0.00000  Uiso   1.00
C179   C     0.79905   0.27581   0.10040   0.00000  Uiso   1.00
C180   C     0.86996   0.27315   0.39970   0.00000  Uiso   1.00
C181   C     0.79795   0.27652   0.04920   0.00000  Uiso   1.00
C182   C     0.87119   0.27370   0.45089   0.00000  Uiso   1.00
C183   C     0.83303   0.25056   0.02717   0.00000  Uiso   1.00
C184   C     0.83370   0.25051   0.47281   0.00000  Uiso   1.00
C185   C     0.73477   0.24858   0.23781   0.00000  Uiso   1.00
C186   C     0.93194   0.25030   0.26225   0.00000  Uiso   1.00
C187   C     0.68000   0.24276   0.23172   0.00000  Uiso   1.00
C188   C     0.98680   0.25393   0.26869   0.00000  Uiso   1.00
C189   C     0.85466   0.04707   0.29426   0.00000  Uiso   1.00
C190   C     0.86123   0.45223   0.21464   0.00000  Uiso   1.00
C191   C     0.85405   0.09315   0.29463   0.00000  Uiso   1.00
C192   C     0.86068   0.40613   0.21445   0.00000  Uiso   1.00
C193   C     0.83720   0.11649   0.25096   0.00000  Uiso   1.00
C194   C     0.83705   0.38325   0.25012   0.00000  Uiso   1.00
C195   C     0.82377   0.09317   0.20733   0.00000  Uiso   1.00
C196   C     0.81667   0.40677   0.28670   0.00000  Uiso   1.00
C197   C     0.82542   0.04728   0.20719   0.00000  Uiso   1.00
C198   C     0.81820   0.45265   0.28708   0.00000  Uiso   1.00
C199   C     0.84038   0.02401   0.25071   0.00000  Uiso   1.00
C200   C     0.84013   0.47560   0.25090   0.00000  Uiso   1.00
Cu201  Cu    0.83333   0.24999   0.29822   0.00000  Uiso   1.00
Cu202  Cu    0.83333   0.25000   0.20179   0.00000  Uiso   1.00
H203   H     0.86687   0.02935   0.32800   0.00000  Uiso   1.00
H204   H     0.87884   0.46969   0.18686   0.00000  Uiso   1.00
H205   H     0.81115   0.11039   0.17337   0.00000  Uiso   1.00
H206   H     0.79867   0.38969   0.31449   0.00000  Uiso   1.00
H207   H     0.81383   0.02990   0.17331   0.00000  Uiso   1.00
H208   H     0.80127   0.47026   0.31506   0.00000  Uiso   1.00
H209   H     0.89555   0.20395   0.04244   0.00000  Uiso   1.00
H210   H     0.76681   0.20886   0.45738   0.00000  Uiso   1.00
H211   H     0.89420   0.20390   0.13176   0.00000  Uiso   1.00
H212   H     0.76805   0.20867   0.36803   0.00000  Uiso   1.00
H213   H     0.77234   0.29606   0.11711   0.00000  Uiso   1.00
H214   H     0.89851   0.29138   0.38310   0.00000  Uiso   1.00
N215   N     0.83333   0.25001   0.12935   0.00000  Uiso   1.00
N216   N     0.83333   0.24999   0.37066   0.00000  Uiso   1.00
O217   O     0.83334   0.18572   0.29072   0.00000  Uiso   1.00
O218   O     0.83333   0.31427   0.20929   0.00000  Uiso   1.00
O219   O     0.83334   0.18573   0.20928   0.00000  Uiso   1.00
O220   O     0.83333   0.31427   0.29072   0.00000  Uiso   1.00
O221   O     0.75828   0.24999   0.28132   0.00000  Uiso   1.00
O222   O     0.90839   0.25000   0.21868   0.00000  Uiso   1.00
O223   O     0.75828   0.25000   0.19989   0.00000  Uiso   1.00
O224   O     0.90839   0.25000   0.30012   0.00000  Uiso   1.00
O225   O     0.98872   0.22782   0.18702   0.00000  Uiso   1.00
C226   C     0.66894   0.18327   0.17908   0.00000  Uiso   1.00
H227   H     0.71096   0.17711   0.18603   0.00000  Uiso   1.00
H228   H     0.99043   0.17581   0.13986   0.00000  Uiso   1.00
C229   C     0.97440   0.15114   0.20926   0.00000  Uiso   1.00
H230   H     0.93249   0.15717   0.20268   0.00000  Uiso   1.00
H231   H     0.98207   0.11663   0.19873   0.00000  Uiso   1.00
H232   H     0.98823   0.15513   0.24875   0.00000  Uiso   1.00
O233   O     0.67768   0.26686   0.31418   0.00000  Uiso   1.00
C234   C     0.67431   0.31329   0.31787   0.00000  Uiso   1.00
H235   H     0.96721   0.32384   0.31861   0.00000  Uiso   1.00
H236   H     0.68979   0.33007   0.28691   0.00000  Uiso   1.00
C237   C     0.70588   0.32805   0.36518   0.00000  Uiso   1.00
H238   H     0.74671   0.31880   0.36510   0.00000  Uiso   1.00
H239   H     0.70316   0.36450   0.36882   0.00000  Uiso   1.00
H240   H     0.69131   0.31205   0.39688   0.00000  Uiso   1.00
O241   O     0.86792   0.11492   0.33831   0.00000  Uiso   1.00
C242   C     0.92113   0.12317   0.34352   0.00000  Uiso   1.00
H243   H     0.93195   0.14177   0.31152   0.00000  Uiso   1.00
H244   H     0.94306   0.09157   0.34785   0.00000  Uiso   1.00
C245   C     0.93609   0.15116   0.38881   0.00000  Uiso   1.00
H246   H     0.97793   0.15778   0.39333   0.00000  Uiso   1.00
H247   H     0.91525   0.18318   0.38510   0.00000  Uiso   1.00
H248   H     0.92646   0.13352   0.42174   0.00000  Uiso   1.00
O249   O     0.88167   0.38387   0.17818   0.00000  Uiso   1.00
C250   C     0.93318   0.37343   0.19564   0.00000  Uiso   1.00
H251   H     0.93630   0.35432   0.23050   0.00000  Uiso   1.00
H252   H     0.95650   0.40412   0.20146   0.00000  Uiso   1.00
C253   C     0.95524   0.34504   0.15809   0.00000  Uiso   1.00
H254   H     0.95445   0.36356   0.12319   0.00000  Uiso   1.00
H255   H     0.99550   0.33599   0.17185   0.00000  Uiso   1.00
H256   H     0.93241   0.31430   0.15131   0.00000  Uiso   1.00
Br257  Br    0.74902   0.31394   0.01109   0.00000  Uiso   1.00
Br258  Br    0.92377   0.30709   0.48914   0.00000  Uiso   1.00
C259   C     0.16761   0.66484   0.25026   0.00000  Uiso   1.00
C260   C     0.16750   0.83507   0.24999   0.00000  Uiso   1.00
C261   C     0.20134   0.72442   0.05784   0.00000  Uiso   1.00
C262   C     0.12962   0.72712   0.44206   0.00000  Uiso   1.00
C263   C     0.20071   0.72446   0.10874   0.00000  Uiso   1.00
C264   C     0.13026   0.72707   0.39115   0.00000  Uiso   1.00
C265   C     0.13238   0.77581   0.10040   0.00000  Uiso   1.00
C266   C     0.20330   0.77315   0.39970   0.00000  Uiso   1.00
C267   C     0.13129   0.77652   0.04920   0.00000  Uiso   1.00
C268   C     0.20453   0.77370   0.45089   0.00000  Uiso   1.00
C269   C     0.16636   0.75056   0.02717   0.00000  Uiso   1.00
C270   C     0.16703   0.75051   0.47281   0.00000  Uiso   1.00
C271   C     0.06810   0.74858   0.23781   0.00000  Uiso   1.00
C272   C     0.26527   0.75030   0.26225   0.00000  Uiso   1.00
C273   C     0.01333   0.74276   0.23172   0.00000  Uiso   1.00
C274   C     0.32014   0.75393   0.26869   0.00000  Uiso   1.00
C275   C     0.18800   0.54707   0.29426   0.00000  Uiso   1.00
C276   C     0.19457   0.95223   0.21464   0.00000  Uiso   1.00
C277   C     0.18738   0.59315   0.29463   0.00000  Uiso   1.00
C278   C     0.19402   0.90613   0.21445   0.00000  Uiso   1.00
C279   C     0.17053   0.61649   0.25096   0.00000  Uiso   1.00
C280   C     0.17039   0.88325   0.25012   0.00000  Uiso   1.00
C281   C     0.15711   0.59317   0.20733   0.00000  Uiso   1.00
C282   C     0.15000   0.90677   0.28670   0.00000  Uiso   1.00
C283   C     0.15875   0.54728   0.20719   0.00000  Uiso   1.00
C284   C     0.15153   0.95265   0.28708   0.00000  Uiso   1.00
C285   C     0.17372   0.52401   0.25071   0.00000  Uiso   1.00
C286   C     0.17347   0.97560   0.25090   0.00000  Uiso   1.00
Cu287  Cu    0.16667   0.74999   0.29822   0.00000  Uiso   1.00
Cu288  Cu    0.16667   0.75000   0.20179   0.00000  Uiso   1.00
H289   H     0.20021   0.52935   0.32800   0.00000  Uiso   1.00
H290   H     0.21217   0.96969   0.18686   0.00000  Uiso   1.00
H291   H     0.14448   0.61039   0.17337   0.00000  Uiso   1.00
H292   H     0.13201   0.88969   0.31449   0.00000  Uiso   1.00
H293   H     0.14717   0.52990   0.17331   0.00000  Uiso   1.00
H294   H     0.13460   0.97026   0.31506   0.00000  Uiso   1.00
H295   H     0.22888   0.70395   0.04244   0.00000  Uiso   1.00
H296   H     0.10015   0.70886   0.45738   0.00000  Uiso   1.00
H297   H     0.22753   0.70390   0.13176   0.00000  Uiso   1.00
H298   H     0.10139   0.70867   0.36803   0.00000  Uiso   1.00
H299   H     0.10567   0.79606   0.11711   0.00000  Uiso   1.00
H300   H     0.23185   0.79138   0.38310   0.00000  Uiso   1.00
N301   N     0.16667   0.75001   0.12935   0.00000  Uiso   1.00
N302   N     0.16667   0.74999   0.37066   0.00000  Uiso   1.00
O303   O     0.16667   0.68572   0.29072   0.00000  Uiso   1.00
O304   O     0.16666   0.81427   0.20929   0.00000  Uiso   1.00
O305   O     0.16667   0.68573   0.20928   0.00000  Uiso   1.00
O306   O     0.16666   0.81427   0.29072   0.00000  Uiso   1.00
O307   O     0.09161   0.74999   0.28132   0.00000  Uiso   1.00
O308   O     0.24172   0.75000   0.21868   0.00000  Uiso   1.00
O309   O     0.09161   0.75000   0.19989   0.00000  Uiso   1.00
O310   O     0.24172   0.75000   0.30012   0.00000  Uiso   1.00
O311   O     0.32206   0.72782   0.18702   0.00000  Uiso   1.00
C312   C     0.00227   0.68327   0.17908   0.00000  Uiso   1.00
H313   H     0.04429   0.67711   0.18603   0.00000  Uiso   1.00
H314   H     0.32377   0.67581   0.13986   0.00000  Uiso   1.00
C315   C     0.30773   0.65114   0.20926   0.00000  Uiso   1.00
H316   H     0.26583   0.65717   0.20268   0.00000  Uiso   1.00
H317   H     0.31541   0.61663   0.19873   0.00000  Uiso   1.00
H318   H     0.32157   0.65513   0.24875   0.00000  Uiso   1.00
O319   O     0.01101   0.76686   0.31418   0.00000  Uiso   1.00
C320   C     0.00764   0.81329   0.31787   0.00000  Uiso   1.00
H321   H     0.30054   0.82384   0.31861   0.00000  Uiso   1.00
H322   H     0.02313   0.83007   0.28691   0.00000  Uiso   1.00
C323   C     0.03921   0.82805   0.36518   0.00000  Uiso   1.00
H324   H     0.08004   0.81880   0.36510   0.00000  Uiso   1.00
H325   H     0.03649   0.86450   0.36882   0.00000  Uiso   1.00
H326   H     0.02465   0.81205   0.39688   0.00000  Uiso   1.00
O327   O     0.20125   0.61492   0.33831   0.00000  Uiso   1.00
C328   C     0.25447   0.62317   0.34352   0.00000  Uiso   1.00
H329   H     0.26529   0.64177   0.31152   0.00000  Uiso   1.00
H330   H     0.27640   0.59157   0.34785   0.00000  Uiso   1.00
C331   C     0.26942   0.65116   0.38881   0.00000  Uiso   1.00
H332   H     0.31126   0.65778   0.39333   0.00000  Uiso   1.00
H333   H     0.24858   0.68318   0.38510   0.00000  Uiso   1.00
H334   H     0.25979   0.63352   0.42174   0.00000  Uiso   1.00
O335   O     0.21500   0.88387   0.17818   0.00000  Uiso   1.00
C336   C     0.26651   0.87343   0.19564   0.00000  Uiso   1.00
H337   H     0.26963   0.85432   0.23050   0.00000  Uiso   1.00
H338   H     0.28983   0.90412   0.20146   0.00000  Uiso   1.00
C339   C     0.28857   0.84504   0.15809   0.00000  Uiso   1.00
H340   H     0.28778   0.86356   0.12319   0.00000  Uiso   1.00
H341   H     0.32883   0.83599   0.17185   0.00000  Uiso   1.00
H342   H     0.26574   0.81430   0.15131   0.00000  Uiso   1.00
Br343  Br    0.08235   0.81394   0.01109   0.00000  Uiso   1.00
Br344  Br    0.25711   0.80709   0.48914   0.00000  Uiso   1.00
C345   C     0.50095   0.66484   0.25026   0.00000  Uiso   1.00
C346   C     0.50084   0.83507   0.24999   0.00000  Uiso   1.00
C347   C     0.53467   0.72442   0.05784   0.00000  Uiso   1.00
C348   C     0.46295   0.72712   0.44206   0.00000  Uiso   1.00
C349   C     0.53404   0.72446   0.10874   0.00000  Uiso   1.00
C350   C     0.46359   0.72707   0.39115   0.00000  Uiso   1.00
C351   C     0.46572   0.77581   0.10040   0.00000  Uiso   1.00
C352   C     0.53663   0.77315   0.39970   0.00000  Uiso   1.00
C353   C     0.46462   0.77652   0.04920   0.00000  Uiso   1.00
C354   C     0.53786   0.77370   0.45089   0.00000  Uiso   1.00
C355   C     0.49969   0.75056   0.02717   0.00000  Uiso   1.00
C356   C     0.50036   0.75051   0.47281   0.00000  Uiso   1.00
C357   C     0.40143   0.74858   0.23781   0.00000  Uiso   1.00
C358   C     0.59860   0.75030   0.26225   0.00000  Uiso   1.00
C359   C     0.34667   0.74276   0.23172   0.00000  Uiso   1.00
C360   C     0.65347   0.75393   0.26869   0.00000  Uiso   1.00
C361   C     0.52133   0.54707   0.29426   0.00000  Uiso   1.00
C362   C     0.52790   0.95223   0.21464   0.00000  Uiso   1.00
C363   C     0.52071   0.59315   0.29463   0.00000  Uiso   1.00
C364   C     0.52735   0.90613   0.21445   0.00000  Uiso   1.00
C365   C     0.50386   0.61649   0.25096   0.00000  Uiso   1.00
C366   C     0.50372   0.88325   0.25012   0.00000  Uiso   1.00
C367   C     0.49044   0.59317   0.20733   0.00000  Uiso   1.00
C368   C     0.48334   0.90677   0.28670   0.00000  Uiso   1.00
C369   C     0.49209   0.54728   0.20719   0.00000  Uiso   1.00
C370   C     0.48486   0.95265   0.28708   0.00000  Uiso   1.00
C371   C     0.50705   0.52401   0.25071   0.00000  Uiso   1.00
C372   C     0.50680   0.97560   0.25090   0.00000  Uiso   1.00
Cu373  Cu    0.50000   0.74999   0.29822   0.00000  Uiso   1.00
Cu374  Cu    0.50000   0.75000   0.20179   0.00000  Uiso   1.00
H375   H     0.53354   0.52935   0.32800   0.00000  Uiso   1.00
H376   H     0.54551   0.96969   0.18686   0.00000  Uiso   1.00
H377   H     0.47781   0.61039   0.17337   0.00000  Uiso   1.00
H378   H     0.46534   0.88969   0.31449   0.00000  Uiso   1.00
H379   H     0.48050   0.52990   0.17331   0.00000  Uiso   1.00
H380   H     0.46793   0.97026   0.31506   0.00000  Uiso   1.00
H381   H     0.56222   0.70395   0.04244   0.00000  Uiso   1.00
H382   H     0.43348   0.70886   0.45738   0.00000  Uiso   1.00
H383   H     0.56086   0.70390   0.13176   0.00000  Uiso   1.00
H384   H     0.43472   0.70867   0.36803   0.00000  Uiso   1.00
H385   H     0.43900   0.79606   0.11711   0.00000  Uiso   1.00
H386   H     0.56518   0.79138   0.38310   0.00000  Uiso   1.00
N387   N     0.50000   0.75001   0.12935   0.00000  Uiso   1.00
N388   N     0.50000   0.74999   0.37066   0.00000  Uiso   1.00
O389   O     0.50000   0.68572   0.29072   0.00000  Uiso   1.00
O390   O     0.50000   0.81427   0.20929   0.00000  Uiso   1.00
O391   O     0.50000   0.68573   0.20928   0.00000  Uiso   1.00
O392   O     0.50000   0.81427   0.29072   0.00000  Uiso   1.00
O393   O     0.42495   0.74999   0.28132   0.00000  Uiso   1.00
O394   O     0.57505   0.75000   0.21868   0.00000  Uiso   1.00
O395   O     0.42495   0.75000   0.19989   0.00000  Uiso   1.00
O396   O     0.57505   0.75000   0.30012   0.00000  Uiso   1.00
O397   O     0.65539   0.72782   0.18702   0.00000  Uiso   1.00
C398   C     0.33561   0.68327   0.17908   0.00000  Uiso   1.00
H399   H     0.37762   0.67711   0.18603   0.00000  Uiso   1.00
H400   H     0.65710   0.67581   0.13986   0.00000  Uiso   1.00
C401   C     0.64107   0.65114   0.20926   0.00000  Uiso   1.00
H402   H     0.59916   0.65717   0.20268   0.00000  Uiso   1.00
H403   H     0.64874   0.61663   0.19873   0.00000  Uiso   1.00
H404   H     0.65490   0.65513   0.24875   0.00000  Uiso   1.00
O405   O     0.34435   0.76686   0.31418   0.00000  Uiso   1.00
C406   C     0.34097   0.81329   0.31787   0.00000  Uiso   1.00
H407   H     0.63388   0.82384   0.31861   0.00000  Uiso   1.00
H408   H     0.35646   0.83007   0.28691   0.00000  Uiso   1.00
C409   C     0.37255   0.82805   0.36518   0.00000  Uiso   1.00
H410   H     0.41338   0.81880   0.36510   0.00000  Uiso   1.00
H411   H     0.36983   0.86450   0.36882   0.00000  Uiso   1.00
H412   H     0.35798   0.81205   0.39688   0.00000  Uiso   1.00
O413   O     0.53458   0.61492   0.33831   0.00000  Uiso   1.00
C414   C     0.58780   0.62317   0.34352   0.00000  Uiso   1.00
H415   H     0.59862   0.64177   0.31152   0.00000  Uiso   1.00
H416   H     0.60973   0.59157   0.34785   0.00000  Uiso   1.00
C417   C     0.60275   0.65116   0.38881   0.00000  Uiso   1.00
H418   H     0.64460   0.65778   0.39333   0.00000  Uiso   1.00
H419   H     0.58191   0.68318   0.38510   0.00000  Uiso   1.00
H420   H     0.59312   0.63352   0.42174   0.00000  Uiso   1.00
O421   O     0.54834   0.88387   0.17818   0.00000  Uiso   1.00
C422   C     0.59985   0.87343   0.19564   0.00000  Uiso   1.00
H423   H     0.60297   0.85432   0.23050   0.00000  Uiso   1.00
H424   H     0.62317   0.90412   0.20146   0.00000  Uiso   1.00
C425   C     0.62191   0.84504   0.15809   0.00000  Uiso   1.00
H426   H     0.62112   0.86356   0.12319   0.00000  Uiso   1.00
H427   H     0.66216   0.83599   0.17185   0.00000  Uiso   1.00
H428   H     0.59908   0.81430   0.15131   0.00000  Uiso   1.00
Br429  Br    0.41569   0.81394   0.01109   0.00000  Uiso   1.00
Br430  Br    0.59044   0.80709   0.48914   0.00000  Uiso   1.00
C431   C     0.83428   0.66484   0.25026   0.00000  Uiso   1.00
C432   C     0.83417   0.83507   0.24999   0.00000  Uiso   1.00
C433   C     0.86800   0.72442   0.05784   0.00000  Uiso   1.00
C434   C     0.79629   0.72712   0.44206   0.00000  Uiso   1.00
C435   C     0.86737   0.72446   0.10874   0.00000  Uiso   1.00
C436   C     0.79692   0.72707   0.39115   0.00000  Uiso   1.00
C437   C     0.79905   0.77581   0.10040   0.00000  Uiso   1.00
C438   C     0.86996   0.77315   0.39970   0.00000  Uiso   1.00
C439   C     0.79795   0.77652   0.04920   0.00000  Uiso   1.00
C440   C     0.87119   0.77370   0.45089   0.00000  Uiso   1.00
C441   C     0.83303   0.75056   0.02717   0.00000  Uiso   1.00
C442   C     0.83370   0.75051   0.47281   0.00000  Uiso   1.00
C443   C     0.73477   0.74858   0.23781   0.00000  Uiso   1.00
C444   C     0.93194   0.75030   0.26225   0.00000  Uiso   1.00
C445   C     0.68000   0.74276   0.23172   0.00000  Uiso   1.00
C446   C     0.98680   0.75393   0.26869   0.00000  Uiso   1.00
C447   C     0.85466   0.54707   0.29426   0.00000  Uiso   1.00
C448   C     0.86123   0.95223   0.21464   0.00000  Uiso   1.00
C449   C     0.85405   0.59315   0.29463   0.00000  Uiso   1.00
C450   C     0.86068   0.90613   0.21445   0.00000  Uiso   1.00
C451   C     0.83720   0.61649   0.25096   0.00000  Uiso   1.00
C452   C     0.83705   0.88325   0.25012   0.00000  Uiso   1.00
C453   C     0.82377   0.59317   0.20733   0.00000  Uiso   1.00
C454   C     0.81667   0.90677   0.28670   0.00000  Uiso   1.00
C455   C     0.82542   0.54728   0.20719   0.00000  Uiso   1.00
C456   C     0.81820   0.95265   0.28708   0.00000  Uiso   1.00
C457   C     0.84038   0.52401   0.25071   0.00000  Uiso   1.00
C458   C     0.84013   0.97560   0.25090   0.00000  Uiso   1.00
Cu459  Cu    0.83333   0.74999   0.29822   0.00000  Uiso   1.00
Cu460  Cu    0.83333   0.75000   0.20179   0.00000  Uiso   1.00
H461   H     0.86687   0.52935   0.32800   0.00000  Uiso   1.00
H462   H     0.87884   0.96969   0.18686   0.00000  Uiso   1.00
H463   H     0.81115   0.61039   0.17337   0.00000  Uiso   1.00
H464   H     0.79867   0.88969   0.31449   0.00000  Uiso   1.00
H465   H     0.81383   0.52990   0.17331   0.00000  Uiso   1.00
H466   H     0.80127   0.97026   0.31506   0.00000  Uiso   1.00
H467   H     0.89555   0.70395   0.04244   0.00000  Uiso   1.00
H468   H     0.76681   0.70886   0.45738   0.00000  Uiso   1.00
H469   H     0.89420   0.70390   0.13176   0.00000  Uiso   1.00
H470   H     0.76805   0.70867   0.36803   0.00000  Uiso   1.00
H471   H     0.77234   0.79606   0.11711   0.00000  Uiso   1.00
H472   H     0.89851   0.79138   0.38310   0.00000  Uiso   1.00
N473   N     0.83333   0.75001   0.12935   0.00000  Uiso   1.00
N474   N     0.83333   0.74999   0.37066   0.00000  Uiso   1.00
O475   O     0.83334   0.68572   0.29072   0.00000  Uiso   1.00
O476   O     0.83333   0.81427   0.20929   0.00000  Uiso   1.00
O477   O     0.83334   0.68573   0.20928   0.00000  Uiso   1.00
O478   O     0.83333   0.81427   0.29072   0.00000  Uiso   1.00
O479   O     0.75828   0.74999   0.28132   0.00000  Uiso   1.00
O480   O     0.90839   0.75000   0.21868   0.00000  Uiso   1.00
O481   O     0.75828   0.75000   0.19989   0.00000  Uiso   1.00
O482   O     0.90839   0.75000   0.30012   0.00000  Uiso   1.00
O483   O     0.98872   0.72782   0.18702   0.00000  Uiso   1.00
C484   C     0.66894   0.68327   0.17908   0.00000  Uiso   1.00
H485   H     0.71096   0.67711   0.18603   0.00000  Uiso   1.00
H486   H     0.99043   0.67581   0.13986   0.00000  Uiso   1.00
C487   C     0.97440   0.65114   0.20926   0.00000  Uiso   1.00
H488   H     0.93249   0.65717   0.20268   0.00000  Uiso   1.00
H489   H     0.98207   0.61663   0.19873   0.00000  Uiso   1.00
H490   H     0.98823   0.65513   0.24875   0.00000  Uiso   1.00
O491   O     0.67768   0.76686   0.31418   0.00000  Uiso   1.00
C492   C     0.67431   0.81329   0.31787   0.00000  Uiso   1.00
H493   H     0.96721   0.82384   0.31861   0.00000  Uiso   1.00
H494   H     0.68979   0.83007   0.28691   0.00000  Uiso   1.00
C495   C     0.70588   0.82805   0.36518   0.00000  Uiso   1.00
H496   H     0.74671   0.81880   0.36510   0.00000  Uiso   1.00
H497   H     0.70316   0.86450   0.36882   0.00000  Uiso   1.00
H498   H     0.69131   0.81205   0.39688   0.00000  Uiso   1.00
O499   O     0.86792   0.61492   0.33831   0.00000  Uiso   1.00
C500   C     0.92113   0.62317   0.34352   0.00000  Uiso   1.00
H501   H     0.93195   0.64177   0.31152   0.00000  Uiso   1.00
H502   H     0.94306   0.59157   0.34785   0.00000  Uiso   1.00
C503   C     0.93609   0.65116   0.38881   0.00000  Uiso   1.00
H504   H     0.97793   0.65778   0.39333   0.00000  Uiso   1.00
H505   H     0.91525   0.68318   0.38510   0.00000  Uiso   1.00
H506   H     0.92646   0.63352   0.42174   0.00000  Uiso   1.00
O507   O     0.88167   0.88387   0.17818   0.00000  Uiso   1.00
C508   C     0.93318   0.87343   0.19564   0.00000  Uiso   1.00
H509   H     0.93630   0.85432   0.23050   0.00000  Uiso   1.00
H510   H     0.95650   0.90412   0.20146   0.00000  Uiso   1.00
C511   C     0.95524   0.84504   0.15809   0.00000  Uiso   1.00
H512   H     0.95445   0.86356   0.12319   0.00000  Uiso   1.00
H513   H     0.99550   0.83599   0.17185   0.00000  Uiso   1.00
H514   H     0.93241   0.81430   0.15131   0.00000  Uiso   1.00
Br515  Br    0.74902   0.81394   0.01109   0.00000  Uiso   1.00
Br516  Br    0.92377   0.80709   0.48914   0.00000  Uiso   1.00
C517   C     0.16761   0.16484   0.75026   0.00000  Uiso   1.00
C518   C     0.16750   0.33507   0.74999   0.00000  Uiso   1.00
C519   C     0.20134   0.22442   0.55784   0.00000  Uiso   1.00
C520   C     0.12962   0.22712   0.94206   0.00000  Uiso   1.00
C521   C     0.20071   0.22446   0.60874   0.00000  Uiso   1.00
C522   C     0.13026   0.22707   0.89115   0.00000  Uiso   1.00
C523   C     0.13238   0.27581   0.60040   0.00000  Uiso   1.00
C524   C     0.20330   0.27315   0.89970   0.00000  Uiso   1.00
C525   C     0.13129   0.27652   0.54920   0.00000  Uiso   1.00
C526   C     0.20453   0.27370   0.95089   0.00000  Uiso   1.00
C527   C     0.16636   0.25056   0.52717   0.00000  Uiso   1.00
C528   C     0.16703   0.25051   0.97281   0.00000  Uiso   1.00
C529   C     0.06810   0.24858   0.73781   0.00000  Uiso   1.00
C530   C     0.26527   0.25030   0.76225   0.00000  Uiso   1.00
C531   C     0.01333   0.24276   0.73172   0.00000  Uiso   1.00
C532   C     0.32014   0.25393   0.76869   0.00000  Uiso   1.00
C533   C     0.18800   0.04707   0.79426   0.00000  Uiso   1.00
C534   C     0.19457   0.45223   0.71464   0.00000  Uiso   1.00
C535   C     0.18738   0.09315   0.79463   0.00000  Uiso   1.00
C536   C     0.19402   0.40613   0.71445   0.00000  Uiso   1.00
C537   C     0.17053   0.11649   0.75096   0.00000  Uiso   1.00
C538   C     0.17039   0.38325   0.75012   0.00000  Uiso   1.00
C539   C     0.15711   0.09317   0.70733   0.00000  Uiso   1.00
C540   C     0.15000   0.40677   0.78670   0.00000  Uiso   1.00
C541   C     0.15875   0.04728   0.70719   0.00000  Uiso   1.00
C542   C     0.15153   0.45265   0.78708   0.00000  Uiso   1.00
C543   C     0.17372   0.02401   0.75071   0.00000  Uiso   1.00
C544   C     0.17347   0.47560   0.75090   0.00000  Uiso   1.00
Cu545  Cu    0.16667   0.24999   0.79822   0.00000  Uiso   1.00
Cu546  Cu    0.16667   0.25000   0.70179   0.00000  Uiso   1.00
H547   H     0.20021   0.02935   0.82800   0.00000  Uiso   1.00
H548   H     0.21217   0.46969   0.68686   0.00000  Uiso   1.00
H549   H     0.14448   0.11039   0.67337   0.00000  Uiso   1.00
H550   H     0.13201   0.38969   0.81449   0.00000  Uiso   1.00
H551   H     0.14717   0.02990   0.67331   0.00000  Uiso   1.00
H552   H     0.13460   0.47026   0.81506   0.00000  Uiso   1.00
H553   H     0.22888   0.20395   0.54244   0.00000  Uiso   1.00
H554   H     0.10015   0.20886   0.95738   0.00000  Uiso   1.00
H555   H     0.22753   0.20390   0.63176   0.00000  Uiso   1.00
H556   H     0.10139   0.20867   0.86803   0.00000  Uiso   1.00
H557   H     0.10567   0.29606   0.61711   0.00000  Uiso   1.00
H558   H     0.23185   0.29138   0.88310   0.00000  Uiso   1.00
N559   N     0.16667   0.25001   0.62935   0.00000  Uiso   1.00
N560   N     0.16667   0.24999   0.87066   0.00000  Uiso   1.00
O561   O     0.16667   0.18572   0.79072   0.00000  Uiso   1.00
O562   O     0.16666   0.31427   0.70929   0.00000  Uiso   1.00
O563   O     0.16667   0.18573   0.70928   0.00000  Uiso   1.00
O564   O     0.16666   0.31427   0.79072   0.00000  Uiso   1.00
O565   O     0.09161   0.24999   0.78132   0.00000  Uiso   1.00
O566   O     0.24172   0.25000   0.71868   0.00000  Uiso   1.00
O567   O     0.09161   0.25000   0.69989   0.00000  Uiso   1.00
O568   O     0.24172   0.25000   0.80012   0.00000  Uiso   1.00
O569   O     0.32206   0.22782   0.68702   0.00000  Uiso   1.00
C570   C     0.00227   0.18327   0.67908   0.00000  Uiso   1.00
H571   H     0.04429   0.17711   0.68603   0.00000  Uiso   1.00
H572   H     0.32377   0.17581   0.63986   0.00000  Uiso   1.00
C573   C     0.30773   0.15114   0.70926   0.00000  Uiso   1.00
H574   H     0.26583   0.15717   0.70268   0.00000  Uiso   1.00
H575   H     0.31541   0.11663   0.69873   0.00000  Uiso   1.00
H576   H     0.32157   0.15513   0.74875   0.00000  Uiso   1.00
O577   O     0.01101   0.26686   0.81418   0.00000  Uiso   1.00
C578   C     0.00764   0.31329   0.81787   0.00000  Uiso   1.00
H579   H     0.30054   0.32384   0.81861   0.00000  Uiso   1.00
H580   H     0.02313   0.33007   0.78691   0.00000  Uiso   1.00
C581   C     0.03921   0.32805   0.86518   0.00000  Uiso   1.00
H582   H     0.08004   0.31880   0.86510   0.00000  Uiso   1.00
H583   H     0.03649   0.36450   0.86882   0.00000  Uiso   1.00
H584   H     0.02465   0.31205   0.89688   0.00000  Uiso   1.00
O585   O     0.20125   0.11492   0.83831   0.00000  Uiso   1.00
C586   C     0.25447   0.12317   0.84352   0.00000  Uiso   1.00
H587   H     0.26529   0.14177   0.81152   0.00000  Uiso   1.00
H588   H     0.27640   0.09157   0.84785   0.00000  Uiso   1.00
C589   C     0.26942   0.15116   0.88881   0.00000  Uiso   1.00
H590   H     0.31126   0.15778   0.89333   0.00000  Uiso   1.00
H591   H     0.24858   0.18318   0.88510   0.00000  Uiso   1.00
H592   H     0.25979   0.13352   0.92174   0.00000  Uiso   1.00
O593   O     0.21500   0.38387   0.67818   0.00000  Uiso   1.00
C594   C     0.26651   0.37343   0.69564   0.00000  Uiso   1.00
H595   H     0.26963   0.35432   0.73050   0.00000  Uiso   1.00
H596   H     0.28983   0.40412   0.70146   0.00000  Uiso   1.00
C597   C     0.28857   0.34504   0.65809   0.00000  Uiso   1.00
H598   H     0.28778   0.36356   0.62319   0.00000  Uiso   1.00
H599   H     0.32883   0.33599   0.67185   0.00000  Uiso   1.00
H600   H     0.26574   0.31430   0.65131   0.00000  Uiso   1.00
Br601  Br    0.08235   0.31394   0.51109   0.00000  Uiso   1.00
Br602  Br    0.25711   0.30709   0.98914   0.00000  Uiso   1.00
C603   C     0.50095   0.16484   0.75026   0.00000  Uiso   1.00
C604   C     0.50084   0.33507   0.74999   0.00000  Uiso   1.00
C605   C     0.53467   0.22442   0.55784   0.00000  Uiso   1.00
C606   C     0.46295   0.22712   0.94206   0.00000  Uiso   1.00
C607   C     0.53404   0.22446   0.60874   0.00000  Uiso   1.00
C608   C     0.46359   0.22707   0.89115   0.00000  Uiso   1.00
C609   C     0.46572   0.27581   0.60040   0.00000  Uiso   1.00
C610   C     0.53663   0.27315   0.89970   0.00000  Uiso   1.00
C611   C     0.46462   0.27652   0.54920   0.00000  Uiso   1.00
C612   C     0.53786   0.27370   0.95089   0.00000  Uiso   1.00
C613   C     0.49969   0.25056   0.52717   0.00000  Uiso   1.00
C614   C     0.50036   0.25051   0.97281   0.00000  Uiso   1.00
C615   C     0.40143   0.24858   0.73781   0.00000  Uiso   1.00
C616   C     0.59860   0.25030   0.76225   0.00000  Uiso   1.00
C617   C     0.34667   0.24276   0.73172   0.00000  Uiso   1.00
C618   C     0.65347   0.25393   0.76869   0.00000  Uiso   1.00
C619   C     0.52133   0.04707   0.79426   0.00000  Uiso   1.00
C620   C     0.52790   0.45223   0.71464   0.00000  Uiso   1.00
C621   C     0.52071   0.09315   0.79463   0.00000  Uiso   1.00
C622   C     0.52735   0.40613   0.71445   0.00000  Uiso   1.00
C623   C     0.50386   0.11649   0.75096   0.00000  Uiso   1.00
C624   C     0.50372   0.38325   0.75012   0.00000  Uiso   1.00
C625   C     0.49044   0.09317   0.70733   0.00000  Uiso   1.00
C626   C     0.48334   0.40677   0.78670   0.00000  Uiso   1.00
C627   C     0.49209   0.04728   0.70719   0.00000  Uiso   1.00
C628   C     0.48486   0.45265   0.78708   0.00000  Uiso   1.00
C629   C     0.50705   0.02401   0.75071   0.00000  Uiso   1.00
C630   C     0.50680   0.47560   0.75090   0.00000  Uiso   1.00
Cu631  Cu    0.50000   0.24999   0.79822   0.00000  Uiso   1.00
Cu632  Cu    0.50000   0.25000   0.70179   0.00000  Uiso   1.00
H633   H     0.53354   0.02935   0.82800   0.00000  Uiso   1.00
H634   H     0.54551   0.46969   0.68686   0.00000  Uiso   1.00
H635   H     0.47781   0.11039   0.67337   0.00000  Uiso   1.00
H636   H     0.46534   0.38969   0.81449   0.00000  Uiso   1.00
H637   H     0.48050   0.02990   0.67331   0.00000  Uiso   1.00
H638   H     0.46793   0.47026   0.81506   0.00000  Uiso   1.00
H639   H     0.56222   0.20395   0.54244   0.00000  Uiso   1.00
H640   H     0.43348   0.20886   0.95738   0.00000  Uiso   1.00
H641   H     0.56086   0.20390   0.63176   0.00000  Uiso   1.00
H642   H     0.43472   0.20867   0.86803   0.00000  Uiso   1.00
H643   H     0.43900   0.29606   0.61711   0.00000  Uiso   1.00
H644   H     0.56518   0.29138   0.88310   0.00000  Uiso   1.00
N645   N     0.50000   0.25001   0.62935   0.00000  Uiso   1.00
N646   N     0.50000   0.24999   0.87066   0.00000  Uiso   1.00
O647   O     0.50000   0.18572   0.79072   0.00000  Uiso   1.00
O648   O     0.50000   0.31427   0.70929   0.00000  Uiso   1.00
O649   O     0.50000   0.18573   0.70928   0.00000  Uiso   1.00
O650   O     0.50000   0.31427   0.79072   0.00000  Uiso   1.00
O651   O     0.42495   0.24999   0.78132   0.00000  Uiso   1.00
O652   O     0.57505   0.25000   0.71868   0.00000  Uiso   1.00
O653   O     0.42495   0.25000   0.69989   0.00000  Uiso   1.00
O654   O     0.57505   0.25000   0.80012   0.00000  Uiso   1.00
O655   O     0.65539   0.22782   0.68702   0.00000  Uiso   1.00
C656   C     0.33561   0.18327   0.67908   0.00000  Uiso   1.00
H657   H     0.37762   0.17711   0.68603   0.00000  Uiso   1.00
H658   H     0.65710   0.17581   0.63986   0.00000  Uiso   1.00
C659   C     0.64107   0.15114   0.70926   0.00000  Uiso   1.00
H660   H     0.59916   0.15717   0.70268   0.00000  Uiso   1.00
H661   H     0.64874   0.11663   0.69873   0.00000  Uiso   1.00
H662   H     0.65490   0.15513   0.74875   0.00000  Uiso   1.00
O663   O     0.34435   0.26686   0.81418   0.00000  Uiso   1.00
C664   C     0.34097   0.31329   0.81787   0.00000  Uiso   1.00
H665   H     0.63388   0.32384   0.81861   0.00000  Uiso   1.00
H666   H     0.35646   0.33007   0.78691   0.00000  Uiso   1.00
C667   C     0.37255   0.32805   0.86518   0.00000  Uiso   1.00
H668   H     0.41338   0.31880   0.86510   0.00000  Uiso   1.00
H669   H     0.36983   0.36450   0.86882   0.00000  Uiso   1.00
H670   H     0.35798   0.31205   0.89688   0.00000  Uiso   1.00
O671   O     0.53458   0.11492   0.83831   0.00000  Uiso   1.00
C672   C     0.58780   0.12317   0.84352   0.00000  Uiso   1.00
H673   H     0.59862   0.14177   0.81152   0.00000  Uiso   1.00
H674   H     0.60973   0.09157   0.84785   0.00000  Uiso   1.00
C675   C     0.60275   0.15116   0.88881   0.00000  Uiso   1.00
H676   H     0.64460   0.15778   0.89333   0.00000  Uiso   1.00
H677   H     0.58191   0.18318   0.88510   0.00000  Uiso   1.00
H678   H     0.59312   0.13352   0.92174   0.00000  Uiso   1.00
O679   O     0.54834   0.38387   0.67818   0.00000  Uiso   1.00
C680   C     0.59985   0.37343   0.69564   0.00000  Uiso   1.00
H681   H     0.60297   0.35432   0.73050   0.00000  Uiso   1.00
H682   H     0.62317   0.40412   0.70146   0.00000  Uiso   1.00
C683   C     0.62191   0.34504   0.65809   0.00000  Uiso   1.00
H684   H     0.62112   0.36356   0.62319   0.00000  Uiso   1.00
H685   H     0.66216   0.33599   0.67185   0.00000  Uiso   1.00
H686   H     0.59908   0.31430   0.65131   0.00000  Uiso   1.00
Br687  Br    0.41569   0.31394   0.51109   0.00000  Uiso   1.00
Br688  Br    0.59044   0.30709   0.98914   0.00000  Uiso   1.00
C689   C     0.83428   0.16484   0.75026   0.00000  Uiso   1.00
C690   C     0.83417   0.33507   0.74999   0.00000  Uiso   1.00
C691   C     0.86800   0.22442   0.55784   0.00000  Uiso   1.00
C692   C     0.79629   0.22712   0.94206   0.00000  Uiso   1.00
C693   C     0.86737   0.22446   0.60874   0.00000  Uiso   1.00
C694   C     0.79692   0.22707   0.89115   0.00000  Uiso   1.00
C695   C     0.79905   0.27581   0.60040   0.00000  Uiso   1.00
C696   C     0.86996   0.27315   0.89970   0.00000  Uiso   1.00
C697   C     0.79795   0.27652   0.54920   0.00000  Uiso   1.00
C698   C     0.87119   0.27370   0.95089   0.00000  Uiso   1.00
C699   C     0.83303   0.25056   0.52717   0.00000  Uiso   1.00
C700   C     0.83370   0.25051   0.97281   0.00000  Uiso   1.00
C701   C     0.73477   0.24858   0.73781   0.00000  Uiso   1.00
C702   C     0.93194   0.25030   0.76225   0.00000  Uiso   1.00
C703   C     0.68000   0.24276   0.73172   0.00000  Uiso   1.00
C704   C     0.98680   0.25393   0.76869   0.00000  Uiso   1.00
C705   C     0.85466   0.04707   0.79426   0.00000  Uiso   1.00
C706   C     0.86123   0.45223   0.71464   0.00000  Uiso   1.00
C707   C     0.85405   0.09315   0.79463   0.00000  Uiso   1.00
C708   C     0.86068   0.40613   0.71445   0.00000  Uiso   1.00
C709   C     0.83720   0.11649   0.75096   0.00000  Uiso   1.00
C710   C     0.83705   0.38325   0.75012   0.00000  Uiso   1.00
C711   C     0.82377   0.09317   0.70733   0.00000  Uiso   1.00
C712   C     0.81667   0.40677   0.78670   0.00000  Uiso   1.00
C713   C     0.82542   0.04728   0.70719   0.00000  Uiso   1.00
C714   C     0.81820   0.45265   0.78708   0.00000  Uiso   1.00
C715   C     0.84038   0.02401   0.75071   0.00000  Uiso   1.00
C716   C     0.84013   0.47560   0.75090   0.00000  Uiso   1.00
Cu717  Cu    0.83333   0.24999   0.79822   0.00000  Uiso   1.00
Cu718  Cu    0.83333   0.25000   0.70179   0.00000  Uiso   1.00
H719   H     0.86687   0.02935   0.82800   0.00000  Uiso   1.00
H720   H     0.87884   0.46969   0.68686   0.00000  Uiso   1.00
H721   H     0.81115   0.11039   0.67337   0.00000  Uiso   1.00
H722   H     0.79867   0.38969   0.81449   0.00000  Uiso   1.00
H723   H     0.81383   0.02990   0.67331   0.00000  Uiso   1.00
H724   H     0.80127   0.47026   0.81506   0.00000  Uiso   1.00
H725   H     0.89555   0.20395   0.54244   0.00000  Uiso   1.00
H726   H     0.76681   0.20886   0.95738   0.00000  Uiso   1.00
H727   H     0.89420   0.20390   0.63176   0.00000  Uiso   1.00
H728   H     0.76805   0.20867   0.86803   0.00000  Uiso   1.00
H729   H     0.77234   0.29606   0.61711   0.00000  Uiso   1.00
H730   H     0.89851   0.29138   0.88310   0.00000  Uiso   1.00
N731   N     0.83333   0.25001   0.62935   0.00000  Uiso   1.00
N732   N     0.83333   0.24999   0.87066   0.00000  Uiso   1.00
O733   O     0.83334   0.18572   0.79072   0.00000  Uiso   1.00
O734   O     0.83333   0.31427   0.70929   0.00000  Uiso   1.00
O735   O     0.83334   0.18573   0.70928   0.00000  Uiso   1.00
O736   O     0.83333   0.31427   0.79072   0.00000  Uiso   1.00
O737   O     0.75828   0.24999   0.78132   0.00000  Uiso   1.00
O738   O     0.90839   0.25000   0.71868   0.00000  Uiso   1.00
O739   O     0.75828   0.25000   0.69989   0.00000  Uiso   1.00
O740   O     0.90839   0.25000   0.80012   0.00000  Uiso   1.00
O741   O     0.98872   0.22782   0.68702   0.00000  Uiso   1.00
C742   C     0.66894   0.18327   0.67908   0.00000  Uiso   1.00
H743   H     0.71096   0.17711   0.68603   0.00000  Uiso   1.00
H744   H     0.99043   0.17581   0.63986   0.00000  Uiso   1.00
C745   C     0.97440   0.15114   0.70926   0.00000  Uiso   1.00
H746   H     0.93249   0.15717   0.70268   0.00000  Uiso   1.00
H747   H     0.98207   0.11663   0.69873   0.00000  Uiso   1.00
H748   H     0.98823   0.15513   0.74875   0.00000  Uiso   1.00
O749   O     0.67768   0.26686   0.81418   0.00000  Uiso   1.00
C750   C     0.67431   0.31329   0.81787   0.00000  Uiso   1.00
H751   H     0.96721   0.32384   0.81861   0.00000  Uiso   1.00
H752   H     0.68979   0.33007   0.78691   0.00000  Uiso   1.00
C753   C     0.70588   0.32805   0.86518   0.00000  Uiso   1.00
H754   H     0.74671   0.31880   0.86510   0.00000  Uiso   1.00
H755   H     0.70316   0.36450   0.86882   0.00000  Uiso   1.00
H756   H     0.69131   0.31205   0.89688   0.00000  Uiso   1.00
O757   O     0.86792   0.11492   0.83831   0.00000  Uiso   1.00
C758   C     0.92113   0.12317   0.84352   0.00000  Uiso   1.00
H759   H     0.93195   0.14177   0.81152   0.00000  Uiso   1.00
H760   H     0.94306   0.09157   0.84785   0.00000  Uiso   1.00
C761   C     0.93609   0.15116   0.88881   0.00000  Uiso   1.00
H762   H     0.97793   0.15778   0.89333   0.00000  Uiso   1.00
H763   H     0.91525   0.18318   0.88510   0.00000  Uiso   1.00
H764   H     0.92646   0.13352   0.92174   0.00000  Uiso   1.00
O765   O     0.88167   0.38387   0.67818   0.00000  Uiso   1.00
C766   C     0.93318   0.37343   0.69564   0.00000  Uiso   1.00
H767   H     0.93630   0.35432   0.73050   0.00000  Uiso   1.00
H768   H     0.95650   0.40412   0.70146   0.00000  Uiso   1.00
C769   C     0.95524   0.34504   0.65809   0.00000  Uiso   1.00
H770   H     0.95445   0.36356   0.62319   0.00000  Uiso   1.00
H771   H     0.99550   0.33599   0.67185   0.00000  Uiso   1.00
H772   H     0.93241   0.31430   0.65131   0.00000  Uiso   1.00
Br773  Br    0.74902   0.31394   0.51109   0.00000  Uiso   1.00
Br774  Br    0.92377   0.30709   0.98914   0.00000  Uiso   1.00
C775   C     0.16761   0.66484   0.75026   0.00000  Uiso   1.00
C776   C     0.16750   0.83507   0.74999   0.00000  Uiso   1.00
C777   C     0.20134   0.72442   0.55784   0.00000  Uiso   1.00
C778   C     0.12962   0.72712   0.94206   0.00000  Uiso   1.00
C779   C     0.20071   0.72446   0.60874   0.00000  Uiso   1.00
C780   C     0.13026   0.72707   0.89115   0.00000  Uiso   1.00
C781   C     0.13238   0.77581   0.60040   0.00000  Uiso   1.00
C782   C     0.20330   0.77315   0.89970   0.00000  Uiso   1.00
C783   C     0.13129   0.77652   0.54920   0.00000  Uiso   1.00
C784   C     0.20453   0.77370   0.95089   0.00000  Uiso   1.00
C785   C     0.16636   0.75056   0.52717   0.00000  Uiso   1.00
C786   C     0.16703   0.75051   0.97281   0.00000  Uiso   1.00
C787   C     0.06810   0.74858   0.73781   0.00000  Uiso   1.00
C788   C     0.26527   0.75030   0.76225   0.00000  Uiso   1.00
C789   C     0.01333   0.74276   0.73172   0.00000  Uiso   1.00
C790   C     0.32014   0.75393   0.76869   0.00000  Uiso   1.00
C791   C     0.18800   0.54707   0.79426   0.00000  Uiso   1.00
C792   C     0.19457   0.95223   0.71464   0.00000  Uiso   1.00
C793   C     0.18738   0.59315   0.79463   0.00000  Uiso   1.00
C794   C     0.19402   0.90613   0.71445   0.00000  Uiso   1.00
C795   C     0.17053   0.61649   0.75096   0.00000  Uiso   1.00
C796   C     0.17039   0.88325   0.75012   0.00000  Uiso   1.00
C797   C     0.15711   0.59317   0.70733   0.00000  Uiso   1.00
C798   C     0.15000   0.90677   0.78670   0.00000  Uiso   1.00
C799   C     0.15875   0.54728   0.70719   0.00000  Uiso   1.00
C800   C     0.15153   0.95265   0.78708   0.00000  Uiso   1.00
C801   C     0.17372   0.52401   0.75071   0.00000  Uiso   1.00
C802   C     0.17347   0.97560   0.75090   0.00000  Uiso   1.00
Cu803  Cu    0.16667   0.74999   0.79822   0.00000  Uiso   1.00
Cu804  Cu    0.16667   0.75000   0.70179   0.00000  Uiso   1.00
H805   H     0.20021   0.52935   0.82800   0.00000  Uiso   1.00
H806   H     0.21217   0.96969   0.68686   0.00000  Uiso   1.00
H807   H     0.14448   0.61039   0.67337   0.00000  Uiso   1.00
H808   H     0.13201   0.88969   0.81449   0.00000  Uiso   1.00
H809   H     0.14717   0.52990   0.67331   0.00000  Uiso   1.00
H810   H     0.13460   0.97026   0.81506   0.00000  Uiso   1.00
H811   H     0.22888   0.70395   0.54244   0.00000  Uiso   1.00
H812   H     0.10015   0.70886   0.95738   0.00000  Uiso   1.00
H813   H     0.22753   0.70390   0.63176   0.00000  Uiso   1.00
H814   H     0.10139   0.70867   0.86803   0.00000  Uiso   1.00
H815   H     0.10567   0.79606   0.61711   0.00000  Uiso   1.00
H816   H     0.23185   0.79138   0.88310   0.00000  Uiso   1.00
N817   N     0.16667   0.75001   0.62935   0.00000  Uiso   1.00
N818   N     0.16667   0.74999   0.87066   0.00000  Uiso   1.00
O819   O     0.16667   0.68572   0.79072   0.00000  Uiso   1.00
O820   O     0.16666   0.81427   0.70929   0.00000  Uiso   1.00
O821   O     0.16667   0.68573   0.70928   0.00000  Uiso   1.00
O822   O     0.16666   0.81427   0.79072   0.00000  Uiso   1.00
O823   O     0.09161   0.74999   0.78132   0.00000  Uiso   1.00
O824   O     0.24172   0.75000   0.71868   0.00000  Uiso   1.00
O825   O     0.09161   0.75000   0.69989   0.00000  Uiso   1.00
O826   O     0.24172   0.75000   0.80012   0.00000  Uiso   1.00
O827   O     0.32206   0.72782   0.68702   0.00000  Uiso   1.00
C828   C     0.00227   0.68327   0.67908   0.00000  Uiso   1.00
H829   H     0.04429   0.67711   0.68603   0.00000  Uiso   1.00
H830   H     0.32377   0.67581   0.63986   0.00000  Uiso   1.00
C831   C     0.30773   0.65114   0.70926   0.00000  Uiso   1.00
H832   H     0.26583   0.65717   0.70268   0.00000  Uiso   1.00
H833   H     0.31541   0.61663   0.69873   0.00000  Uiso   1.00
H834   H     0.32157   0.65513   0.74875   0.00000  Uiso   1.00
O835   O     0.01101   0.76686   0.81418   0.00000  Uiso   1.00
C836   C     0.00764   0.81329   0.81787   0.00000  Uiso   1.00
H837   H     0.30054   0.82384   0.81861   0.00000  Uiso   1.00
H838   H     0.02313   0.83007   0.78691   0.00000  Uiso   1.00
C839   C     0.03921   0.82805   0.86518   0.00000  Uiso   1.00
H840   H     0.08004   0.81880   0.86510   0.00000  Uiso   1.00
H841   H     0.03649   0.86450   0.86882   0.00000  Uiso   1.00
H842   H     0.02465   0.81205   0.89688   0.00000  Uiso   1.00
O843   O     0.20125   0.61492   0.83831   0.00000  Uiso   1.00
C844   C     0.25447   0.62317   0.84352   0.00000  Uiso   1.00
H845   H     0.26529   0.64177   0.81152   0.00000  Uiso   1.00
H846   H     0.27640   0.59157   0.84785   0.00000  Uiso   1.00
C847   C     0.26942   0.65116   0.88881   0.00000  Uiso   1.00
H848   H     0.31126   0.65778   0.89333   0.00000  Uiso   1.00
H849   H     0.24858   0.68318   0.88510   0.00000  Uiso   1.00
H850   H     0.25979   0.63352   0.92174   0.00000  Uiso   1.00
O851   O     0.21500   0.88387   0.67818   0.00000  Uiso   1.00
C852   C     0.26651   0.87343   0.69564   0.00000  Uiso   1.00
H853   H     0.26963   0.85432   0.73050   0.00000  Uiso   1.00
H854   H     0.28983   0.90412   0.70146   0.00000  Uiso   1.00
C855   C     0.28857   0.84504   0.65809   0.00000  Uiso   1.00
H856   H     0.28778   0.86356   0.62319   0.00000  Uiso   1.00
H857   H     0.32883   0.83599   0.67185   0.00000  Uiso   1.00
H858   H     0.26574   0.81430   0.65131   0.00000  Uiso   1.00
Br859  Br    0.08235   0.81394   0.51109   0.00000  Uiso   1.00
Br860  Br    0.25711   0.80709   0.98914   0.00000  Uiso   1.00
C861   C     0.50095   0.66484   0.75026   0.00000  Uiso   1.00
C862   C     0.50084   0.83507   0.74999   0.00000  Uiso   1.00
C863   C     0.53467   0.72442   0.55784   0.00000  Uiso   1.00
C864   C     0.46295   0.72712   0.94206   0.00000  Uiso   1.00
C865   C     0.53404   0.72446   0.60874   0.00000  Uiso   1.00
C866   C     0.46359   0.72707   0.89115   0.00000  Uiso   1.00
C867   C     0.46572   0.77581   0.60040   0.00000  Uiso   1.00
C868   C     0.53663   0.77315   0.89970   0.00000  Uiso   1.00
C869   C     0.46462   0.77652   0.54920   0.00000  Uiso   1.00
C870   C     0.53786   0.77370   0.95089   0.00000  Uiso   1.00
C871   C     0.49969   0.75056   0.52717   0.00000  Uiso   1.00
C872   C     0.50036   0.75051   0.97281   0.00000  Uiso   1.00
C873   C     0.40143   0.74858   0.73781   0.00000  Uiso   1.00
C874   C     0.59860   0.75030   0.76225   0.00000  Uiso   1.00
C875   C     0.34667   0.74276   0.73172   0.00000  Uiso   1.00
C876   C     0.65347   0.75393   0.76869   0.00000  Uiso   1.00
C877   C     0.52133   0.54707   0.79426   0.00000  Uiso   1.00
C878   C     0.52790   0.95223   0.71464   0.00000  Uiso   1.00
C879   C     0.52071   0.59315   0.79463   0.00000  Uiso   1.00
C880   C     0.52735   0.90613   0.71445   0.00000  Uiso   1.00
C881   C     0.50386   0.61649   0.75096   0.00000  Uiso   1.00
C882   C     0.50372   0.88325   0.75012   0.00000  Uiso   1.00
C883   C     0.49044   0.59317   0.70733   0.00000  Uiso   1.00
C884   C     0.48334   0.90677   0.78670   0.00000  Uiso   1.00
C885   C     0.49209   0.54728   0.70719   0.00000  Uiso   1.00
C886   C     0.48486   0.95265   0.78708   0.00000  Uiso   1.00
C887   C     0.50705   0.52401   0.75071   0.00000  Uiso   1.00
C888   C     0.50680   0.97560   0.75090   0.00000  Uiso   1.00
Cu889  Cu    0.50000   0.74999   0.79822   0.00000  Uiso   1.00
Cu890  Cu    0.50000   0.75000   0.70179   0.00000  Uiso   1.00
H891   H     0.53354   0.52935   0.82800   0.00000  Uiso   1.00
H892   H     0.54551   0.96969   0.68686   0.00000  Uiso   1.00
H893   H     0.47781   0.61039   0.67337   0.00000  Uiso   1.00
H894   H     0.46534   0.88969   0.81449   0.00000  Uiso   1.00
H895   H     0.48050   0.52990   0.67331   0.00000  Uiso   1.00
H896   H     0.46793   0.97026   0.81506   0.00000  Uiso   1.00
H897   H     0.56222   0.70395   0.54244   0.00000  Uiso   1.00
H898   H     0.43348   0.70886   0.95738   0.00000  Uiso   1.00
H899   H     0.56086   0.70390   0.63176   0.00000  Uiso   1.00
H900   H     0.43472   0.70867   0.86803   0.00000  Uiso   1.00
H901   H     0.43900   0.79606   0.61711   0.00000  Uiso   1.00
H902   H     0.56518   0.79138   0.88310   0.00000  Uiso   1.00
N903   N     0.50000   0.75001   0.62935   0.00000  Uiso   1.00
N904   N     0.50000   0.74999   0.87066   0.00000  Uiso   1.00
O905   O     0.50000   0.68572   0.79072   0.00000  Uiso   1.00
O906   O     0.50000   0.81427   0.70929   0.00000  Uiso   1.00
O907   O     0.50000   0.68573   0.70928   0.00000  Uiso   1.00
O908   O     0.50000   0.81427   0.79072   0.00000  Uiso   1.00
O909   O     0.42495   0.74999   0.78132   0.00000  Uiso   1.00
O910   O     0.57505   0.75000   0.71868   0.00000  Uiso   1.00
O911   O     0.42495   0.75000   0.69989   0.00000  Uiso   1.00
O912   O     0.57505   0.75000   0.80012   0.00000  Uiso   1.00
O913   O     0.65539   0.72782   0.68702   0.00000  Uiso   1.00
C914   C     0.33561   0.68327   0.67908   0.00000  Uiso   1.00
H915   H     0.37762   0.67711   0.68603   0.00000  Uiso   1.00
H916   H     0.65710   0.67581   0.63986   0.00000  Uiso   1.00
C917   C     0.64107   0.65114   0.70926   0.00000  Uiso   1.00
H918   H     0.59916   0.65717   0.70268   0.00000  Uiso   1.00
H919   H     0.64874   0.61663   0.69873   0.00000  Uiso   1.00
H920   H     0.65490   0.65513   0.74875   0.00000  Uiso   1.00
O921   O     0.34435   0.76686   0.81418   0.00000  Uiso   1.00
C922   C     0.34097   0.81329   0.81787   0.00000  Uiso   1.00
H923   H     0.63388   0.82384   0.81861   0.00000  Uiso   1.00
H924   H     0.35646   0.83007   0.78691   0.00000  Uiso   1.00
C925   C     0.37255   0.82805   0.86518   0.00000  Uiso   1.00
H926   H     0.41338   0.81880   0.86510   0.00000  Uiso   1.00
H927   H     0.36983   0.86450   0.86882   0.00000  Uiso   1.00
H928   H     0.35798   0.81205   0.89688   0.00000  Uiso   1.00
O929   O     0.53458   0.61492   0.83831   0.00000  Uiso   1.00
C930   C     0.58780   0.62317   0.84352   0.00000  Uiso   1.00
H931   H     0.59862   0.64177   0.81152   0.00000  Uiso   1.00
H932   H     0.60973   0.59157   0.84785   0.00000  Uiso   1.00
C933   C     0.60275   0.65116   0.88881   0.00000  Uiso   1.00
H934   H     0.64460   0.65778   0.89333   0.00000  Uiso   1.00
H935   H     0.58191   0.68318   0.88510   0.00000  Uiso   1.00
H936   H     0.59312   0.63352   0.92174   0.00000  Uiso   1.00
O937   O     0.54834   0.88387   0.67818   0.00000  Uiso   1.00
C938   C     0.59985   0.87343   0.69564   0.00000  Uiso   1.00
H939   H     0.60297   0.85432   0.73050   0.00000  Uiso   1.00
H940   H     0.62317   0.90412   0.70146   0.00000  Uiso   1.00
C941   C     0.62191   0.84504   0.65809   0.00000  Uiso   1.00
H942   H     0.62112   0.86356   0.62319   0.00000  Uiso   1.00
H943   H     0.66216   0.83599   0.67185   0.00000  Uiso   1.00
H944   H     0.59908   0.81430   0.65131   0.00000  Uiso   1.00
Br945  Br    0.41569   0.81394   0.51109   0.00000  Uiso   1.00
Br946  Br    0.59044   0.80709   0.98914   0.00000  Uiso   1.00
C947   C     0.83428   0.66484   0.75026   0.00000  Uiso   1.00
C948   C     0.83417   0.83507   0.74999   0.00000  Uiso   1.00
C949   C     0.86800   0.72442   0.55784   0.00000  Uiso   1.00
C950   C     0.79629   0.72712   0.94206   0.00000  Uiso   1.00
C951   C     0.86737   0.72446   0.60874   0.00000  Uiso   1.00
C952   C     0.79692   0.72707   0.89115   0.00000  Uiso   1.00
C953   C     0.79905   0.77581   0.60040   0.00000  Uiso   1.00
C954   C     0.86996   0.77315   0.89970   0.00000  Uiso   1.00
C955   C     0.79795   0.77652   0.54920   0.00000  Uiso   1.00
C956   C     0.87119   0.77370   0.95089   0.00000  Uiso   1.00
C957   C     0.83303   0.75056   0.52717   0.00000  Uiso   1.00
C958   C     0.83370   0.75051   0.97281   0.00000  Uiso   1.00
C959   C     0.73477   0.74858   0.73781   0.00000  Uiso   1.00
C960   C     0.93194   0.75030   0.76225   0.00000  Uiso   1.00
C961   C     0.68000   0.74276   0.73172   0.00000  Uiso   1.00
C962   C     0.98680   0.75393   0.76869   0.00000  Uiso   1.00
C963   C     0.85466   0.54707   0.79426   0.00000  Uiso   1.00
C964   C     0.86123   0.95223   0.71464   0.00000  Uiso   1.00
C965   C     0.85405   0.59315   0.79463   0.00000  Uiso   1.00
C966   C     0.86068   0.90613   0.71445   0.00000  Uiso   1.00
C967   C     0.83720   0.61649   0.75096   0.00000  Uiso   1.00
C968   C     0.83705   0.88325   0.75012   0.00000  Uiso   1.00
C969   C     0.82377   0.59317   0.70733   0.00000  Uiso   1.00
C970   C     0.81667   0.90677   0.78670   0.00000  Uiso   1.00
C971   C     0.82542   0.54728   0.70719   0.00000  Uiso   1.00
C972   C     0.81820   0.95265   0.78708   0.00000  Uiso   1.00
C973   C     0.84038   0.52401   0.75071   0.00000  Uiso   1.00
C974   C     0.84013   0.97560   0.75090   0.00000  Uiso   1.00
Cu975  Cu    0.83333   0.74999   0.79822   0.00000  Uiso   1.00
Cu976  Cu    0.83333   0.75000   0.70179   0.00000  Uiso   1.00
H977   H     0.86687   0.52935   0.82800   0.00000  Uiso   1.00
H978   H     0.87884   0.96969   0.68686   0.00000  Uiso   1.00
H979   H     0.81115   0.61039   0.67337   0.00000  Uiso   1.00
H980   H     0.79867   0.88969   0.81449   0.00000  Uiso   1.00
H981   H     0.81383   0.52990   0.67331   0.00000  Uiso   1.00
H982   H     0.80127   0.97026   0.81506   0.00000  Uiso   1.00
H983   H     0.89555   0.70395   0.54244   0.00000  Uiso   1.00
H984   H     0.76681   0.70886   0.95738   0.00000  Uiso   1.00
H985   H     0.89420   0.70390   0.63176   0.00000  Uiso   1.00
H986   H     0.76805   0.70867   0.86803   0.00000  Uiso   1.00
H987   H     0.77234   0.79606   0.61711   0.00000  Uiso   1.00
H988   H     0.89851   0.79138   0.88310   0.00000  Uiso   1.00
N989   N     0.83333   0.75001   0.62935   0.00000  Uiso   1.00
N990   N     0.83333   0.74999   0.87066   0.00000  Uiso   1.00
O991   O     0.83334   0.68572   0.79072   0.00000  Uiso   1.00
O992   O     0.83333   0.81427   0.70929   0.00000  Uiso   1.00
O993   O     0.83334   0.68573   0.70928   0.00000  Uiso   1.00
O994   O     0.83333   0.81427   0.79072   0.00000  Uiso   1.00
O995   O     0.75828   0.74999   0.78132   0.00000  Uiso   1.00
O996   O     0.90839   0.75000   0.71868   0.00000  Uiso   1.00
O997   O     0.75828   0.75000   0.69989   0.00000  Uiso   1.00
O998   O     0.90839   0.75000   0.80012   0.00000  Uiso   1.00
O999   O     0.98872   0.72782   0.68702   0.00000  Uiso   1.00
C1000  C     0.66894   0.68327   0.67908   0.00000  Uiso   1.00
H1001  H     0.71096   0.67711   0.68603   0.00000  Uiso   1.00
H1002  H     0.99043   0.67581   0.63986   0.00000  Uiso   1.00
C1003  C     0.97440   0.65114   0.70926   0.00000  Uiso   1.00
H1004  H     0.93249   0.65717   0.70268   0.00000  Uiso   1.00
H1005  H     0.98207   0.61663   0.69873   0.00000  Uiso   1.00
H1006  H     0.98823   0.65513   0.74875   0.00000  Uiso   1.00
O1007  O     0.67768   0.76686   0.81418   0.00000  Uiso   1.00
C1008  C     0.67431   0.81329   0.81787   0.00000  Uiso   1.00
H1009  H     0.96721   0.82384   0.81861   0.00000  Uiso   1.00
H1010  H     0.68979   0.83007   0.78691   0.00000  Uiso   1.00
C1011  C     0.70588   0.82805   0.86518   0.00000  Uiso   1.00
H1012  H     0.74671   0.81880   0.86510   0.00000  Uiso   1.00
H1013  H     0.70316   0.86450   0.86882   0.00000  Uiso   1.00
H1014  H     0.69131   0.81205   0.89688   0.00000  Uiso   1.00
O1015  O     0.86792   0.61492   0.83831   0.00000  Uiso   1.00
C1016  C     0.92113   0.62317   0.84352   0.00000  Uiso   1.00
H1017  H     0.93195   0.64177   0.81152   0.00000  Uiso   1.00
H1018  H     0.94306   0.59157   0.84785   0.00000  Uiso   1.00
C1019  C     0.93609   0.65116   0.88881   0.00000  Uiso   1.00
H1020  H     0.97793   0.65778   0.89333   0.00000  Uiso   1.00
H1021  H     0.91525   0.68318   0.88510   0.00000  Uiso   1.00
H1022  H     0.92646   0.63352   0.92174   0.00000  Uiso   1.00
O1023  O     0.88167   0.88387   0.67818   0.00000  Uiso   1.00
C1024  C     0.93318   0.87343   0.69564   0.00000  Uiso   1.00
H1025  H     0.93630   0.85432   0.73050   0.00000  Uiso   1.00
H1026  H     0.95650   0.90412   0.70146   0.00000  Uiso   1.00
C1027  C     0.95524   0.84504   0.65809   0.00000  Uiso   1.00
H1028  H     0.95445   0.86356   0.62319   0.00000  Uiso   1.00
H1029  H     0.99550   0.83599   0.67185   0.00000  Uiso   1.00
H1030  H     0.93241   0.81430   0.65131   0.00000  Uiso   1.00
Br1031 Br    0.74902   0.81394   0.51109   0.00000  Uiso   1.00
Br1032 Br    0.92377   0.80709   0.98914   0.00000  Uiso   1.00
loop_
_geom_bond_atom_site_label_1
_geom_bond_atom_site_label_2
_geom_bond_distance
_geom_bond_site_symmetry_2
_ccdc_geom_bond_type
C1     C21     1.464   .     S
C1     O47     1.291   .     A
C1     O45     1.288   .     A
C2     O46     1.288   .     A
C2     C22     1.459   .     S
C2     O48     1.289   .     A
C3     C5      1.408   .     A
C3     C11     1.405   .     A
C3     H37     1.083   .     S
C4     C12     1.406   .     A
C4     C6      1.408   .     A
C4     H38     1.083   .     S
C5     H39     1.080   .     S
C5     N43     1.364   .     A
C6     N44     1.365   .     A
C6     H40     1.082   .     S
C7     N43     1.365   .     A
C7     C9      1.410   .     A
C7     H41     1.082   .     S
C8     H42     1.082   .     S
C8     N44     1.365   .     A
C8     C10     1.410   .     A
C9     Br85    1.917   .     S
C9     C11     1.411   .     A
C10    C12     1.411   .     A
C10    Br86    1.917   .     S
C11    C528    1.503   1_554 S
C12    C527    1.503   .     S
C13    O51     1.286   .     A
C13    O49     1.277   .     A
C13    C15     1.440   .     S
C14    O52     1.285   .     A
C14    C16     1.436   .     S
C14    O50     1.278   .     A
C15    C188    1.355   1_455 S
C15    O225    1.393   1_455 S
C16    C101    1.355   .     S
C16    O147    1.389   .     S
C17    C27     1.400   .     A
C17    H31     1.084   .     S
C17    C19     1.394   .     A
C18    C20     1.394   .     A
C18    C28     1.401   .     A
C18    H32     1.084   .     S
C19    C21     1.414   .     A
C19    O69     1.383   .     S
C20    O77     1.383   .     S
C20    C22     1.412   .     A
C21    C23     1.403   .     A
C22    C24     1.401   .     A
C23    H33     1.083   .     S
C23    C25     1.389   .     A
C24    H34     1.084   .     S
C24    C26     1.388   .     A
C25    H35     1.083   .     S
C25    C27     1.400   .     A
C26    H36     1.083   .     S
C26    C28     1.401   .     A
C27    C286    1.464   1_545 S
C28    C285    1.464   .     S
Cu29   O49     1.969   .     S
Cu29   Cu30    2.663   .     S
Cu29   O48     1.954   .     S
Cu29   O45     1.956   .     S
Cu29   N44     2.000   .     S
Cu29   O52     1.970   .     S
Cu30   O51     1.970   .     S
Cu30   O50     1.969   .     S
Cu30   O47     1.954   .     S
Cu30   N43     2.000   .     S
Cu30   O46     1.956   .     S
O53    C101    1.393   .     S
O53    C140    1.419   .     S
C54    H55     1.113   .     S
C54    O225    1.419   1_455 S
C54    H228    1.110   1_455 S
C54    C229    1.528   1_455 S
H56    C140    1.110   .     S
C57    H59     1.110   .     S
C57    H60     1.110   .     S
C57    H58     1.109   .     S
C57    C140    1.528   .     S
O61    C62     1.412   .     S
O61    C188    1.389   1_455 S
C62    H64     1.116   .     S
C62    C65     1.521   .     S
C62    H235    1.114   1_455 S
H63    C148    1.114   .     S
C65    H67     1.110   .     S
C65    H68     1.111   .     S
C65    H66     1.111   .     S
O69    C70     1.412   .     S
C70    H71     1.114   .     S
C70    C73     1.521   .     S
C70    H72     1.114   .     S
C73    H74     1.111   .     S
C73    H75     1.110   .     S
C73    H76     1.111   .     S
O77    C78     1.413   .     S
C78    H80     1.114   .     S
C78    H79     1.114   .     S
C78    C81     1.522   .     S
C81    H82     1.111   .     S
C81    H83     1.111   .     S
C81    H84     1.111   .     S
C87    C107    1.464   .     S
C87    O133    1.291   .     A
C87    O131    1.288   .     A
C88    O132    1.288   .     A
C88    C108    1.459   .     S
C88    O134    1.289   .     A
C89    C91     1.408   .     A
C89    C97     1.405   .     A
C89    H123    1.083   .     S
C90    C98     1.406   .     A
C90    C92     1.408   .     A
C90    H124    1.083   .     S
C91    H125    1.080   .     S
C91    N129    1.364   .     A
C92    N130    1.365   .     A
C92    H126    1.082   .     S
C93    N129    1.365   .     A
C93    C95     1.410   .     A
C93    H127    1.082   .     S
C94    H128    1.082   .     S
C94    N130    1.365   .     A
C94    C96     1.410   .     A
C95    Br171   1.917   .     S
C95    C97     1.411   .     A
C96    C98     1.411   .     A
C96    Br172   1.917   .     S
C97    C614    1.503   1_554 S
C98    C613    1.503   .     S
C99    O137    1.286   .     A
C99    O135    1.277   .     A
C99    C101    1.440   .     S
C100   O138    1.285   .     A
C100   C102    1.436   .     S
C100   O136    1.278   .     A
C102   C187    1.355   .     S
C102   O233    1.389   .     S
C103   C113    1.400   .     A
C103   H117    1.084   .     S
C103   C105    1.394   .     A
C104   C106    1.394   .     A
C104   C114    1.401   .     A
C104   H118    1.084   .     S
C105   C107    1.414   .     A
C105   O155    1.383   .     S
C106   O163    1.383   .     S
C106   C108    1.412   .     A
C107   C109    1.403   .     A
C108   C110    1.401   .     A
C109   H119    1.083   .     S
C109   C111    1.389   .     A
C110   H120    1.084   .     S
C110   C112    1.388   .     A
C111   H121    1.083   .     S
C111   C113    1.400   .     A
C112   H122    1.083   .     S
C112   C114    1.401   .     A
C113   C372    1.464   1_545 S
C114   C371    1.464   .     S
Cu115  O135    1.969   .     S
Cu115  Cu116   2.663   .     S
Cu115  O134    1.954   .     S
Cu115  O131    1.956   .     S
Cu115  N130    2.000   .     S
Cu115  O138    1.970   .     S
Cu116  O137    1.970   .     S
Cu116  O136    1.969   .     S
Cu116  O133    1.954   .     S
Cu116  N129    2.000   .     S
Cu116  O132    1.956   .     S
O139   C187    1.393   .     S
O139   C226    1.419   .     S
C140   H141    1.113   .     S
H142   C226    1.110   .     S
C143   H145    1.110   .     S
C143   H146    1.110   .     S
C143   H144    1.109   .     S
C143   C226    1.528   .     S
O147   C148    1.412   .     S
C148   H150    1.116   .     S
C148   C151    1.521   .     S
H149   C234    1.114   .     S
C151   H153    1.110   .     S
C151   H154    1.111   .     S
C151   H152    1.111   .     S
O155   C156    1.412   .     S
C156   H157    1.114   .     S
C156   C159    1.521   .     S
C156   H158    1.114   .     S
C159   H160    1.111   .     S
C159   H161    1.110   .     S
C159   H162    1.111   .     S
O163   C164    1.413   .     S
C164   H166    1.114   .     S
C164   H165    1.114   .     S
C164   C167    1.522   .     S
C167   H168    1.111   .     S
C167   H169    1.111   .     S
C167   H170    1.111   .     S
C173   C193    1.464   .     S
C173   O219    1.291   .     A
C173   O217    1.288   .     A
C174   O218    1.288   .     A
C174   C194    1.459   .     S
C174   O220    1.289   .     A
C175   C177    1.408   .     A
C175   C183    1.405   .     A
C175   H209    1.083   .     S
C176   C184    1.406   .     A
C176   C178    1.408   .     A
C176   H210    1.083   .     S
C177   H211    1.080   .     S
C177   N215    1.364   .     A
C178   N216    1.365   .     A
C178   H212    1.082   .     S
C179   N215    1.365   .     A
C179   C181    1.410   .     A
C179   H213    1.082   .     S
C180   H214    1.082   .     S
C180   N216    1.365   .     A
C180   C182    1.410   .     A
C181   Br257   1.917   .     S
C181   C183    1.411   .     A
C182   C184    1.411   .     A
C182   Br258   1.917   .     S
C183   C700    1.503   1_554 S
C184   C699    1.503   .     S
C185   O223    1.286   .     A
C185   O221    1.277   .     A
C185   C187    1.440   .     S
C186   O224    1.285   .     A
C186   C188    1.436   .     S
C186   O222    1.278   .     A
C188   C15     1.355   1_655 S
C188   O61     1.389   1_655 S
C189   C199    1.400   .     A
C189   H203    1.084   .     S
C189   C191    1.394   .     A
C190   C192    1.394   .     A
C190   C200    1.401   .     A
C190   H204    1.084   .     S
C191   C193    1.414   .     A
C191   O241    1.383   .     S
C192   O249    1.383   .     S
C192   C194    1.412   .     A
C193   C195    1.403   .     A
C194   C196    1.401   .     A
C195   H205    1.083   .     S
C195   C197    1.389   .     A
C196   H206    1.084   .     S
C196   C198    1.388   .     A
C197   H207    1.083   .     S
C197   C199    1.400   .     A
C198   H208    1.083   .     S
C198   C200    1.401   .     A
C199   C458    1.464   1_545 S
C200   C457    1.464   .     S
Cu201  O221    1.969   .     S
Cu201  Cu202   2.663   .     S
Cu201  O220    1.954   .     S
Cu201  O217    1.956   .     S
Cu201  N216    2.000   .     S
Cu201  O224    1.970   .     S
Cu202  O223    1.970   .     S
Cu202  O222    1.969   .     S
Cu202  O219    1.954   .     S
Cu202  N215    2.000   .     S
Cu202  O218    1.956   .     S
O225   C15     1.393   1_655 S
O225   C54     1.419   1_655 S
C226   H227    1.113   .     S
H228   C54     1.110   1_655 S
C229   H231    1.110   .     S
C229   H232    1.110   .     S
C229   H230    1.109   .     S
C229   C54     1.528   1_655 S
O233   C234    1.412   .     S
C234   H236    1.116   .     S
C234   C237    1.521   .     S
H235   C62     1.114   1_655 S
C237   H239    1.110   .     S
C237   H240    1.111   .     S
C237   H238    1.111   .     S
O241   C242    1.412   .     S
C242   H243    1.114   .     S
C242   C245    1.521   .     S
C242   H244    1.114   .     S
C245   H246    1.111   .     S
C245   H247    1.110   .     S
C245   H248    1.111   .     S
O249   C250    1.413   .     S
C250   H252    1.114   .     S
C250   H251    1.114   .     S
C250   C253    1.522   .     S
C253   H254    1.111   .     S
C253   H255    1.111   .     S
C253   H256    1.111   .     S
C259   C279    1.464   .     S
C259   O305    1.291   .     A
C259   O303    1.288   .     A
C260   O304    1.288   .     A
C260   C280    1.459   .     S
C260   O306    1.289   .     A
C261   C263    1.408   .     A
C261   C269    1.405   .     A
C261   H295    1.083   .     S
C262   C270    1.406   .     A
C262   C264    1.408   .     A
C262   H296    1.083   .     S
C263   H297    1.080   .     S
C263   N301    1.364   .     A
C264   N302    1.365   .     A
C264   H298    1.082   .     S
C265   N301    1.365   .     A
C265   C267    1.410   .     A
C265   H299    1.082   .     S
C266   H300    1.082   .     S
C266   N302    1.365   .     A
C266   C268    1.410   .     A
C267   Br343   1.917   .     S
C267   C269    1.411   .     A
C268   C270    1.411   .     A
C268   Br344   1.917   .     S
C269   C786    1.503   1_554 S
C270   C785    1.503   .     S
C271   O309    1.286   .     A
C271   O307    1.277   .     A
C271   C273    1.440   .     S
C272   O310    1.285   .     A
C272   C274    1.436   .     S
C272   O308    1.278   .     A
C273   C446    1.355   1_455 S
C273   O483    1.393   1_455 S
C274   C359    1.355   .     S
C274   O405    1.389   .     S
C275   C285    1.400   .     A
C275   H289    1.084   .     S
C275   C277    1.394   .     A
C276   C278    1.394   .     A
C276   C286    1.401   .     A
C276   H290    1.084   .     S
C277   C279    1.414   .     A
C277   O327    1.383   .     S
C278   O335    1.383   .     S
C278   C280    1.412   .     A
C279   C281    1.403   .     A
C280   C282    1.401   .     A
C281   H291    1.083   .     S
C281   C283    1.389   .     A
C282   H292    1.084   .     S
C282   C284    1.388   .     A
C283   H293    1.083   .     S
C283   C285    1.400   .     A
C284   H294    1.083   .     S
C284   C286    1.401   .     A
C286   C27     1.464   1_565 S
Cu287  O307    1.969   .     S
Cu287  Cu288   2.663   .     S
Cu287  O306    1.954   .     S
Cu287  O303    1.956   .     S
Cu287  N302    2.000   .     S
Cu287  O310    1.970   .     S
Cu288  O309    1.970   .     S
Cu288  O308    1.969   .     S
Cu288  O305    1.954   .     S
Cu288  N301    2.000   .     S
Cu288  O304    1.956   .     S
O311   C359    1.393   .     S
O311   C398    1.419   .     S
C312   H313    1.113   .     S
C312   O483    1.419   1_455 S
C312   H486    1.110   1_455 S
C312   C487    1.528   1_455 S
H314   C398    1.110   .     S
C315   H317    1.110   .     S
C315   H318    1.110   .     S
C315   H316    1.109   .     S
C315   C398    1.528   .     S
O319   C320    1.412   .     S
O319   C446    1.389   1_455 S
C320   H322    1.116   .     S
C320   C323    1.521   .     S
C320   H493    1.114   1_455 S
H321   C406    1.114   .     S
C323   H325    1.110   .     S
C323   H326    1.111   .     S
C323   H324    1.111   .     S
O327   C328    1.412   .     S
C328   H329    1.114   .     S
C328   C331    1.521   .     S
C328   H330    1.114   .     S
C331   H332    1.111   .     S
C331   H333    1.110   .     S
C331   H334    1.111   .     S
O335   C336    1.413   .     S
C336   H338    1.114   .     S
C336   H337    1.114   .     S
C336   C339    1.522   .     S
C339   H340    1.111   .     S
C339   H341    1.111   .     S
C339   H342    1.111   .     S
C345   C365    1.464   .     S
C345   O391    1.291   .     A
C345   O389    1.288   .     A
C346   O390    1.288   .     A
C346   C366    1.459   .     S
C346   O392    1.289   .     A
C347   C349    1.408   .     A
C347   C355    1.405   .     A
C347   H381    1.083   .     S
C348   C356    1.406   .     A
C348   C350    1.408   .     A
C348   H382    1.083   .     S
C349   H383    1.080   .     S
C349   N387    1.364   .     A
C350   N388    1.365   .     A
C350   H384    1.082   .     S
C351   N387    1.365   .     A
C351   C353    1.410   .     A
C351   H385    1.082   .     S
C352   H386    1.082   .     S
C352   N388    1.365   .     A
C352   C354    1.410   .     A
C353   Br429   1.917   .     S
C353   C355    1.411   .     A
C354   C356    1.411   .     A
C354   Br430   1.917   .     S
C355   C872    1.503   1_554 S
C356   C871    1.503   .     S
C357   O395    1.286   .     A
C357   O393    1.277   .     A
C357   C359    1.440   .     S
C358   O396    1.285   .     A
C358   C360    1.436   .     S
C358   O394    1.278   .     A
C360   C445    1.355   .     S
C360   O491    1.389   .     S
C361   C371    1.400   .     A
C361   H375    1.084   .     S
C361   C363    1.394   .     A
C362   C364    1.394   .     A
C362   C372    1.401   .     A
C362   H376    1.084   .     S
C363   C365    1.414   .     A
C363   O413    1.383   .     S
C364   O421    1.383   .     S
C364   C366    1.412   .     A
C365   C367    1.403   .     A
C366   C368    1.401   .     A
C367   H377    1.083   .     S
C367   C369    1.389   .     A
C368   H378    1.084   .     S
C368   C370    1.388   .     A
C369   H379    1.083   .     S
C369   C371    1.400   .     A
C370   H380    1.083   .     S
C370   C372    1.401   .     A
C372   C113    1.464   1_565 S
Cu373  O393    1.969   .     S
Cu373  Cu374   2.663   .     S
Cu373  O392    1.954   .     S
Cu373  O389    1.956   .     S
Cu373  N388    2.000   .     S
Cu373  O396    1.970   .     S
Cu374  O395    1.970   .     S
Cu374  O394    1.969   .     S
Cu374  O391    1.954   .     S
Cu374  N387    2.000   .     S
Cu374  O390    1.956   .     S
O397   C445    1.393   .     S
O397   C484    1.419   .     S
C398   H399    1.113   .     S
H400   C484    1.110   .     S
C401   H403    1.110   .     S
C401   H404    1.110   .     S
C401   H402    1.109   .     S
C401   C484    1.528   .     S
O405   C406    1.412   .     S
C406   H408    1.116   .     S
C406   C409    1.521   .     S
H407   C492    1.114   .     S
C409   H411    1.110   .     S
C409   H412    1.111   .     S
C409   H410    1.111   .     S
O413   C414    1.412   .     S
C414   H415    1.114   .     S
C414   C417    1.521   .     S
C414   H416    1.114   .     S
C417   H418    1.111   .     S
C417   H419    1.110   .     S
C417   H420    1.111   .     S
O421   C422    1.413   .     S
C422   H424    1.114   .     S
C422   H423    1.114   .     S
C422   C425    1.522   .     S
C425   H426    1.111   .     S
C425   H427    1.111   .     S
C425   H428    1.111   .     S
C431   C451    1.464   .     S
C431   O477    1.291   .     A
C431   O475    1.288   .     A
C432   O476    1.288   .     A
C432   C452    1.459   .     S
C432   O478    1.289   .     A
C433   C435    1.408   .     A
C433   C441    1.405   .     A
C433   H467    1.083   .     S
C434   C442    1.406   .     A
C434   C436    1.408   .     A
C434   H468    1.083   .     S
C435   H469    1.080   .     S
C435   N473    1.364   .     A
C436   N474    1.365   .     A
C436   H470    1.082   .     S
C437   N473    1.365   .     A
C437   C439    1.410   .     A
C437   H471    1.082   .     S
C438   H472    1.082   .     S
C438   N474    1.365   .     A
C438   C440    1.410   .     A
C439   Br515   1.917   .     S
C439   C441    1.411   .     A
C440   C442    1.411   .     A
C440   Br516   1.917   .     S
C441   C958    1.503   1_554 S
C442   C957    1.503   .     S
C443   O481    1.286   .     A
C443   O479    1.277   .     A
C443   C445    1.440   .     S
C444   O482    1.285   .     A
C444   C446    1.436   .     S
C444   O480    1.278   .     A
C446   C273    1.355   1_655 S
C446   O319    1.389   1_655 S
C447   C457    1.400   .     A
C447   H461    1.084   .     S
C447   C449    1.394   .     A
C448   C450    1.394   .     A
C448   C458    1.401   .     A
C448   H462    1.084   .     S
C449   C451    1.414   .     A
C449   O499    1.383   .     S
C450   O507    1.383   .     S
C450   C452    1.412   .     A
C451   C453    1.403   .     A
C452   C454    1.401   .     A
C453   H463    1.083   .     S
C453   C455    1.389   .     A
C454   H464    1.084   .     S
C454   C456    1.388   .     A
C455   H465    1.083   .     S
C455   C457    1.400   .     A
C456   H466    1.083   .     S
C456   C458    1.401   .     A
C458   C199    1.464   1_565 S
Cu459  O479    1.969   .     S
Cu459  Cu460   2.663   .     S
Cu459  O478    1.954   .     S
Cu459  O475    1.956   .     S
Cu459  N474    2.000   .     S
Cu459  O482    1.970   .     S
Cu460  O481    1.970   .     S
Cu460  O480    1.969   .     S
Cu460  O477    1.954   .     S
Cu460  N473    2.000   .     S
Cu460  O476    1.956   .     S
O483   C273    1.393   1_655 S
O483   C312    1.419   1_655 S
C484   H485    1.113   .     S
H486   C312    1.110   1_655 S
C487   H489    1.110   .     S
C487   H490    1.110   .     S
C487   H488    1.109   .     S
C487   C312    1.528   1_655 S
O491   C492    1.412   .     S
C492   H494    1.116   .     S
C492   C495    1.521   .     S
H493   C320    1.114   1_655 S
C495   H497    1.110   .     S
C495   H498    1.111   .     S
C495   H496    1.111   .     S
O499   C500    1.412   .     S
C500   H501    1.114   .     S
C500   C503    1.521   .     S
C500   H502    1.114   .     S
C503   H504    1.111   .     S
C503   H505    1.110   .     S
C503   H506    1.111   .     S
O507   C508    1.413   .     S
C508   H510    1.114   .     S
C508   H509    1.114   .     S
C508   C511    1.522   .     S
C511   H512    1.111   .     S
C511   H513    1.111   .     S
C511   H514    1.111   .     S
C517   C537    1.464   .     S
C517   O563    1.291   .     A
C517   O561    1.288   .     A
C518   O562    1.288   .     A
C518   C538    1.459   .     S
C518   O564    1.289   .     A
C519   C521    1.408   .     A
C519   C527    1.405   .     A
C519   H553    1.083   .     S
C520   C528    1.406   .     A
C520   C522    1.408   .     A
C520   H554    1.083   .     S
C521   H555    1.080   .     S
C521   N559    1.364   .     A
C522   N560    1.365   .     A
C522   H556    1.082   .     S
C523   N559    1.365   .     A
C523   C525    1.410   .     A
C523   H557    1.082   .     S
C524   H558    1.082   .     S
C524   N560    1.365   .     A
C524   C526    1.410   .     A
C525   Br601   1.917   .     S
C525   C527    1.411   .     A
C526   C528    1.411   .     A
C526   Br602   1.917   .     S
C528   C11     1.503   1_556 S
C529   O567    1.286   .     A
C529   O565    1.277   .     A
C529   C531    1.440   .     S
C530   O568    1.285   .     A
C530   C532    1.436   .     S
C530   O566    1.278   .     A
C531   C704    1.355   1_455 S
C531   O741    1.393   1_455 S
C532   C617    1.355   .     S
C532   O663    1.389   .     S
C533   C543    1.400   .     A
C533   H547    1.084   .     S
C533   C535    1.394   .     A
C534   C536    1.394   .     A
C534   C544    1.401   .     A
C534   H548    1.084   .     S
C535   C537    1.414   .     A
C535   O585    1.383   .     S
C536   O593    1.383   .     S
C536   C538    1.412   .     A
C537   C539    1.403   .     A
C538   C540    1.401   .     A
C539   H549    1.083   .     S
C539   C541    1.389   .     A
C540   H550    1.084   .     S
C540   C542    1.388   .     A
C541   H551    1.083   .     S
C541   C543    1.400   .     A
C542   H552    1.083   .     S
C542   C544    1.401   .     A
C543   C802    1.464   1_545 S
C544   C801    1.464   .     S
Cu545  O565    1.969   .     S
Cu545  Cu546   2.663   .     S
Cu545  O564    1.954   .     S
Cu545  O561    1.956   .     S
Cu545  N560    2.000   .     S
Cu545  O568    1.970   .     S
Cu546  O567    1.970   .     S
Cu546  O566    1.969   .     S
Cu546  O563    1.954   .     S
Cu546  N559    2.000   .     S
Cu546  O562    1.956   .     S
O569   C617    1.393   .     S
O569   C656    1.419   .     S
C570   H571    1.113   .     S
C570   O741    1.419   1_455 S
C570   H744    1.110   1_455 S
C570   C745    1.528   1_455 S
H572   C656    1.110   .     S
C573   H575    1.110   .     S
C573   H576    1.110   .     S
C573   H574    1.109   .     S
C573   C656    1.528   .     S
O577   C578    1.412   .     S
O577   C704    1.389   1_455 S
C578   H580    1.116   .     S
C578   C581    1.521   .     S
C578   H751    1.114   1_455 S
H579   C664    1.114   .     S
C581   H583    1.110   .     S
C581   H584    1.111   .     S
C581   H582    1.111   .     S
O585   C586    1.412   .     S
C586   H587    1.114   .     S
C586   C589    1.521   .     S
C586   H588    1.114   .     S
C589   H590    1.111   .     S
C589   H591    1.110   .     S
C589   H592    1.111   .     S
O593   C594    1.413   .     S
C594   H596    1.114   .     S
C594   H595    1.114   .     S
C594   C597    1.522   .     S
C597   H598    1.111   .     S
C597   H599    1.111   .     S
C597   H600    1.111   .     S
C603   C623    1.464   .     S
C603   O649    1.291   .     A
C603   O647    1.288   .     A
C604   O648    1.288   .     A
C604   C624    1.459   .     S
C604   O650    1.289   .     A
C605   C607    1.408   .     A
C605   C613    1.405   .     A
C605   H639    1.083   .     S
C606   C614    1.406   .     A
C606   C608    1.408   .     A
C606   H640    1.083   .     S
C607   H641    1.080   .     S
C607   N645    1.364   .     A
C608   N646    1.365   .     A
C608   H642    1.082   .     S
C609   N645    1.365   .     A
C609   C611    1.410   .     A
C609   H643    1.082   .     S
C610   H644    1.082   .     S
C610   N646    1.365   .     A
C610   C612    1.410   .     A
C611   Br687   1.917   .     S
C611   C613    1.411   .     A
C612   C614    1.411   .     A
C612   Br688   1.917   .     S
C614   C97     1.503   1_556 S
C615   O653    1.286   .     A
C615   O651    1.277   .     A
C615   C617    1.440   .     S
C616   O654    1.285   .     A
C616   C618    1.436   .     S
C616   O652    1.278   .     A
C618   C703    1.355   .     S
C618   O749    1.389   .     S
C619   C629    1.400   .     A
C619   H633    1.084   .     S
C619   C621    1.394   .     A
C620   C622    1.394   .     A
C620   C630    1.401   .     A
C620   H634    1.084   .     S
C621   C623    1.414   .     A
C621   O671    1.383   .     S
C622   O679    1.383   .     S
C622   C624    1.412   .     A
C623   C625    1.403   .     A
C624   C626    1.401   .     A
C625   H635    1.083   .     S
C625   C627    1.389   .     A
C626   H636    1.084   .     S
C626   C628    1.388   .     A
C627   H637    1.083   .     S
C627   C629    1.400   .     A
C628   H638    1.083   .     S
C628   C630    1.401   .     A
C629   C888    1.464   1_545 S
C630   C887    1.464   .     S
Cu631  O651    1.969   .     S
Cu631  Cu632   2.663   .     S
Cu631  O650    1.954   .     S
Cu631  O647    1.956   .     S
Cu631  N646    2.000   .     S
Cu631  O654    1.970   .     S
Cu632  O653    1.970   .     S
Cu632  O652    1.969   .     S
Cu632  O649    1.954   .     S
Cu632  N645    2.000   .     S
Cu632  O648    1.956   .     S
O655   C703    1.393   .     S
O655   C742    1.419   .     S
C656   H657    1.113   .     S
H658   C742    1.110   .     S
C659   H661    1.110   .     S
C659   H662    1.110   .     S
C659   H660    1.109   .     S
C659   C742    1.528   .     S
O663   C664    1.412   .     S
C664   H666    1.116   .     S
C664   C667    1.521   .     S
H665   C750    1.114   .     S
C667   H669    1.110   .     S
C667   H670    1.111   .     S
C667   H668    1.111   .     S
O671   C672    1.412   .     S
C672   H673    1.114   .     S
C672   C675    1.521   .     S
C672   H674    1.114   .     S
C675   H676    1.111   .     S
C675   H677    1.110   .     S
C675   H678    1.111   .     S
O679   C680    1.413   .     S
C680   H682    1.114   .     S
C680   H681    1.114   .     S
C680   C683    1.522   .     S
C683   H684    1.111   .     S
C683   H685    1.111   .     S
C683   H686    1.111   .     S
C689   C709    1.464   .     S
C689   O735    1.291   .     A
C689   O733    1.288   .     A
C690   O734    1.288   .     A
C690   C710    1.459   .     S
C690   O736    1.289   .     A
C691   C693    1.408   .     A
C691   C699    1.405   .     A
C691   H725    1.083   .     S
C692   C700    1.406   .     A
C692   C694    1.408   .     A
C692   H726    1.083   .     S
C693   H727    1.080   .     S
C693   N731    1.364   .     A
C694   N732    1.365   .     A
C694   H728    1.082   .     S
C695   N731    1.365   .     A
C695   C697    1.410   .     A
C695   H729    1.082   .     S
C696   H730    1.082   .     S
C696   N732    1.365   .     A
C696   C698    1.410   .     A
C697   Br773   1.917   .     S
C697   C699    1.411   .     A
C698   C700    1.411   .     A
C698   Br774   1.917   .     S
C700   C183    1.503   1_556 S
C701   O739    1.286   .     A
C701   O737    1.277   .     A
C701   C703    1.440   .     S
C702   O740    1.285   .     A
C702   C704    1.436   .     S
C702   O738    1.278   .     A
C704   C531    1.355   1_655 S
C704   O577    1.389   1_655 S
C705   C715    1.400   .     A
C705   H719    1.084   .     S
C705   C707    1.394   .     A
C706   C708    1.394   .     A
C706   C716    1.401   .     A
C706   H720    1.084   .     S
C707   C709    1.414   .     A
C707   O757    1.383   .     S
C708   O765    1.383   .     S
C708   C710    1.412   .     A
C709   C711    1.403   .     A
C710   C712    1.401   .     A
C711   H721    1.083   .     S
C711   C713    1.389   .     A
C712   H722    1.084   .     S
C712   C714    1.388   .     A
C713   H723    1.083   .     S
C713   C715    1.400   .     A
C714   H724    1.083   .     S
C714   C716    1.401   .     A
C715   C974    1.464   1_545 S
C716   C973    1.464   .     S
Cu717  O737    1.969   .     S
Cu717  Cu718   2.663   .     S
Cu717  O736    1.954   .     S
Cu717  O733    1.956   .     S
Cu717  N732    2.000   .     S
Cu717  O740    1.970   .     S
Cu718  O739    1.970   .     S
Cu718  O738    1.969   .     S
Cu718  O735    1.954   .     S
Cu718  N731    2.000   .     S
Cu718  O734    1.956   .     S
O741   C531    1.393   1_655 S
O741   C570    1.419   1_655 S
C742   H743    1.113   .     S
H744   C570    1.110   1_655 S
C745   H747    1.110   .     S
C745   H748    1.110   .     S
C745   H746    1.109   .     S
C745   C570    1.528   1_655 S
O749   C750    1.412   .     S
C750   H752    1.116   .     S
C750   C753    1.521   .     S
H751   C578    1.114   1_655 S
C753   H755    1.110   .     S
C753   H756    1.111   .     S
C753   H754    1.111   .     S
O757   C758    1.412   .     S
C758   H759    1.114   .     S
C758   C761    1.521   .     S
C758   H760    1.114   .     S
C761   H762    1.111   .     S
C761   H763    1.110   .     S
C761   H764    1.111   .     S
O765   C766    1.413   .     S
C766   H768    1.114   .     S
C766   H767    1.114   .     S
C766   C769    1.522   .     S
C769   H770    1.111   .     S
C769   H771    1.111   .     S
C769   H772    1.111   .     S
C775   C795    1.464   .     S
C775   O821    1.291   .     A
C775   O819    1.288   .     A
C776   O820    1.288   .     A
C776   C796    1.459   .     S
C776   O822    1.289   .     A
C777   C779    1.408   .     A
C777   C785    1.405   .     A
C777   H811    1.083   .     S
C778   C786    1.406   .     A
C778   C780    1.408   .     A
C778   H812    1.083   .     S
C779   H813    1.080   .     S
C779   N817    1.364   .     A
C780   N818    1.365   .     A
C780   H814    1.082   .     S
C781   N817    1.365   .     A
C781   C783    1.410   .     A
C781   H815    1.082   .     S
C782   H816    1.082   .     S
C782   N818    1.365   .     A
C782   C784    1.410   .     A
C783   Br859   1.917   .     S
C783   C785    1.411   .     A
C784   C786    1.411   .     A
C784   Br860   1.917   .     S
C786   C269    1.503   1_556 S
C787   O825    1.286   .     A
C787   O823    1.277   .     A
C787   C789    1.440   .     S
C788   O826    1.285   .     A
C788   C790    1.436   .     S
C788   O824    1.278   .     A
C789   C962    1.355   1_455 S
C789   O999    1.393   1_455 S
C790   C875    1.355   .     S
C790   O921    1.389   .     S
C791   C801    1.400   .     A
C791   H805    1.084   .     S
C791   C793    1.394   .     A
C792   C794    1.394   .     A
C792   C802    1.401   .     A
C792   H806    1.084   .     S
C793   C795    1.414   .     A
C793   O843    1.383   .     S
C794   O851    1.383   .     S
C794   C796    1.412   .     A
C795   C797    1.403   .     A
C796   C798    1.401   .     A
C797   H807    1.083   .     S
C797   C799    1.389   .     A
C798   H808    1.084   .     S
C798   C800    1.388   .     A
C799   H809    1.083   .     S
C799   C801    1.400   .     A
C800   H810    1.083   .     S
C800   C802    1.401   .     A
C802   C543    1.464   1_565 S
Cu803  O823    1.969   .     S
Cu803  Cu804   2.663   .     S
Cu803  O822    1.954   .     S
Cu803  O819    1.956   .     S
Cu803  N818    2.000   .     S
Cu803  O826    1.970   .     S
Cu804  O825    1.970   .     S
Cu804  O824    1.969   .     S
Cu804  O821    1.954   .     S
Cu804  N817    2.000   .     S
Cu804  O820    1.956   .     S
O827   C875    1.393   .     S
O827   C914    1.419   .     S
C828   H829    1.113   .     S
C828   O999    1.419   1_455 S
C828   H1002   1.110   1_455 S
C828   C1003   1.528   1_455 S
H830   C914    1.110   .     S
C831   H833    1.110   .     S
C831   H834    1.110   .     S
C831   H832    1.109   .     S
C831   C914    1.528   .     S
O835   C836    1.412   .     S
O835   C962    1.389   1_455 S
C836   H838    1.116   .     S
C836   C839    1.521   .     S
C836   H1009   1.114   1_455 S
H837   C922    1.114   .     S
C839   H841    1.110   .     S
C839   H842    1.111   .     S
C839   H840    1.111   .     S
O843   C844    1.412   .     S
C844   H845    1.114   .     S
C844   C847    1.521   .     S
C844   H846    1.114   .     S
C847   H848    1.111   .     S
C847   H849    1.110   .     S
C847   H850    1.111   .     S
O851   C852    1.413   .     S
C852   H854    1.114   .     S
C852   H853    1.114   .     S
C852   C855    1.522   .     S
C855   H856    1.111   .     S
C855   H857    1.111   .     S
C855   H858    1.111   .     S
C861   C881    1.464   .     S
C861   O907    1.291   .     A
C861   O905    1.288   .     A
C862   O906    1.288   .     A
C862   C882    1.459   .     S
C862   O908    1.289   .     A
C863   C865    1.408   .     A
C863   C871    1.405   .     A
C863   H897    1.083   .     S
C864   C872    1.406   .     A
C864   C866    1.408   .     A
C864   H898    1.083   .     S
C865   H899    1.080   .     S
C865   N903    1.364   .     A
C866   N904    1.365   .     A
C866   H900    1.082   .     S
C867   N903    1.365   .     A
C867   C869    1.410   .     A
C867   H901    1.082   .     S
C868   H902    1.082   .     S
C868   N904    1.365   .     A
C868   C870    1.410   .     A
C869   Br945   1.917   .     S
C869   C871    1.411   .     A
C870   C872    1.411   .     A
C870   Br946   1.917   .     S
C872   C355    1.503   1_556 S
C873   O911    1.286   .     A
C873   O909    1.277   .     A
C873   C875    1.440   .     S
C874   O912    1.285   .     A
C874   C876    1.436   .     S
C874   O910    1.278   .     A
C876   C961    1.355   .     S
C876   O1007   1.389   .     S
C877   C887    1.400   .     A
C877   H891    1.084   .     S
C877   C879    1.394   .     A
C878   C880    1.394   .     A
C878   C888    1.401   .     A
C878   H892    1.084   .     S
C879   C881    1.414   .     A
C879   O929    1.383   .     S
C880   O937    1.383   .     S
C880   C882    1.412   .     A
C881   C883    1.403   .     A
C882   C884    1.401   .     A
C883   H893    1.083   .     S
C883   C885    1.389   .     A
C884   H894    1.084   .     S
C884   C886    1.388   .     A
C885   H895    1.083   .     S
C885   C887    1.400   .     A
C886   H896    1.083   .     S
C886   C888    1.401   .     A
C888   C629    1.464   1_565 S
Cu889  O909    1.969   .     S
Cu889  Cu890   2.663   .     S
Cu889  O908    1.954   .     S
Cu889  O905    1.956   .     S
Cu889  N904    2.000   .     S
Cu889  O912    1.970   .     S
Cu890  O911    1.970   .     S
Cu890  O910    1.969   .     S
Cu890  O907    1.954   .     S
Cu890  N903    2.000   .     S
Cu890  O906    1.956   .     S
O913   C961    1.393   .     S
O913   C1000   1.419   .     S
C914   H915    1.113   .     S
H916   C1000   1.110   .     S
C917   H919    1.110   .     S
C917   H920    1.110   .     S
C917   H918    1.109   .     S
C917   C1000   1.528   .     S
O921   C922    1.412   .     S
C922   H924    1.116   .     S
C922   C925    1.521   .     S
H923   C1008   1.114   .     S
C925   H927    1.110   .     S
C925   H928    1.111   .     S
C925   H926    1.111   .     S
O929   C930    1.412   .     S
C930   H931    1.114   .     S
C930   C933    1.521   .     S
C930   H932    1.114   .     S
C933   H934    1.111   .     S
C933   H935    1.110   .     S
C933   H936    1.111   .     S
O937   C938    1.413   .     S
C938   H940    1.114   .     S
C938   H939    1.114   .     S
C938   C941    1.522   .     S
C941   H942    1.111   .     S
C941   H943    1.111   .     S
C941   H944    1.111   .     S
C947   C967    1.464   .     S
C947   O993    1.291   .     A
C947   O991    1.288   .     A
C948   O992    1.288   .     A
C948   C968    1.459   .     S
C948   O994    1.289   .     A
C949   C951    1.408   .     A
C949   C957    1.405   .     A
C949   H983    1.083   .     S
C950   C958    1.406   .     A
C950   C952    1.408   .     A
C950   H984    1.083   .     S
C951   H985    1.080   .     S
C951   N989    1.364   .     A
C952   N990    1.365   .     A
C952   H986    1.082   .     S
C953   N989    1.365   .     A
C953   C955    1.410   .     A
C953   H987    1.082   .     S
C954   H988    1.082   .     S
C954   N990    1.365   .     A
C954   C956    1.410   .     A
C955   Br1031  1.917   .     S
C955   C957    1.411   .     A
C956   C958    1.411   .     A
C956   Br1032  1.917   .     S
C958   C441    1.503   1_556 S
C959   O997    1.286   .     A
C959   O995    1.277   .     A
C959   C961    1.440   .     S
C960   O998    1.285   .     A
C960   C962    1.436   .     S
C960   O996    1.278   .     A
C962   C789    1.355   1_655 S
C962   O835    1.389   1_655 S
C963   C973    1.400   .     A
C963   H977    1.084   .     S
C963   C965    1.394   .     A
C964   C966    1.394   .     A
C964   C974    1.401   .     A
C964   H978    1.084   .     S
C965   C967    1.414   .     A
C965   O1015   1.383   .     S
C966   O1023   1.383   .     S
C966   C968    1.412   .     A
C967   C969    1.403   .     A
C968   C970    1.401   .     A
C969   H979    1.083   .     S
C969   C971    1.389   .     A
C970   H980    1.084   .     S
C970   C972    1.388   .     A
C971   H981    1.083   .     S
C971   C973    1.400   .     A
C972   H982    1.083   .     S
C972   C974    1.401   .     A
C974   C715    1.464   1_565 S
Cu975  O995    1.969   .     S
Cu975  Cu976   2.663   .     S
Cu975  O994    1.954   .     S
Cu975  O991    1.956   .     S
Cu975  N990    2.000   .     S
Cu975  O998    1.970   .     S
Cu976  O997    1.970   .     S
Cu976  O996    1.969   .     S
Cu976  O993    1.954   .     S
Cu976  N989    2.000   .     S
Cu976  O992    1.956   .     S
O999   C789    1.393   1_655 S
O999   C828    1.419   1_655 S
C1000  H1001   1.113   .     S
H1002  C828    1.110   1_655 S
C1003  H1005   1.110   .     S
C1003  H1006   1.110   .     S
C1003  H1004   1.109   .     S
C1003  C828    1.528   1_655 S
O1007  C1008   1.412   .     S
C1008  H1010   1.116   .     S
C1008  C1011   1.521   .     S
H1009  C836    1.114   1_655 S
C1011  H1013   1.110   .     S
C1011  H1014   1.111   .     S
C1011  H1012   1.111   .     S
O1015  C1016   1.412   .     S
C1016  H1017   1.114   .     S
C1016  C1019   1.521   .     S
C1016  H1018   1.114   .     S
C1019  H1020   1.111   .     S
C1019  H1021   1.110   .     S
C1019  H1022   1.111   .     S
O1023  C1024   1.413   .     S
C1024  H1026   1.114   .     S
C1024  H1025   1.114   .     S
C1024  C1027   1.522   .     S
C1027  H1028   1.111   .     S
C1027  H1029   1.111   .     S
C1027  H1030   1.111   .     S
