data_str_m2_o10_o17_pcu_sym.79
_audit_creation_date              2020-01-03
_audit_creation_method            'Materials Studio'
_symmetry_space_group_name_H-M    'P1'
_symmetry_Int_Tables_number       1
_symmetry_cell_setting            triclinic
loop_
_symmetry_equiv_pos_as_xyz
  x,y,z
_cell_length_a                    29.9927
_cell_length_b                    26.2223
_cell_length_c                    22.3992
_cell_angle_alpha                 102.5646
_cell_angle_beta                  93.4973
_cell_angle_gamma                 91.8786
loop_
_atom_site_label
_atom_site_type_symbol
_atom_site_fract_x
_atom_site_fract_y
_atom_site_fract_z
_atom_site_U_iso_or_equiv
_atom_site_adp_type
_atom_site_occupancy
C1     C     0.24774   0.06689   0.15165   0.00000  Uiso   1.00
C2     C     0.09158   0.12559   0.13802   0.00000  Uiso   1.00
C3     C     0.38337   0.16443   0.16310   0.00000  Uiso   1.00
C4     C     0.11659   0.16978   0.16996   0.00000  Uiso   1.00
C5     C     0.40406   0.12066   0.12987   0.00000  Uiso   1.00
C6     C     0.09559   0.21428   0.20140   0.00000  Uiso   1.00
C7     C     0.45141   0.11910   0.13620   0.00000  Uiso   1.00
C8     C     0.04831   0.21560   0.19397   0.00000  Uiso   1.00
C9     C     0.47641   0.16611   0.16475   0.00000  Uiso   1.00
C10    C     0.02339   0.16847   0.16582   0.00000  Uiso   1.00
C11    C     0.45448   0.21083   0.19292   0.00000  Uiso   1.00
C12    C     0.25246   0.26643   0.18163   0.00000  Uiso   1.00
C13    C     0.04538   0.12366   0.13839   0.00000  Uiso   1.00
C14    C     0.47489   0.07285   0.11578   0.00000  Uiso   1.00
C15    C     0.02466   0.26184   0.21374   0.00000  Uiso   1.00
C16    C     0.37604   0.08066   0.08469   0.00000  Uiso   1.00
C17    C     0.12181   0.25582   0.24717   0.00000  Uiso   1.00
C18    C     0.45339   0.01960   0.10588   0.00000  Uiso   1.00
C19    C     0.04484   0.31542   0.22224   0.00000  Uiso   1.00
C20    C     0.20192   0.32094   0.10101   0.00000  Uiso   1.00
C21    C     0.29877   0.01226   0.23133   0.00000  Uiso   1.00
C22    C     0.18433   0.08924   0.31861   0.00000  Uiso   1.00
C23    C     0.02132   0.07662   0.11370   0.00000  Uiso   1.00
C24    C     0.14214   0.07254   0.27705   0.00000  Uiso   1.00
C25    C     0.31421   0.24553   0.01571   0.00000  Uiso   1.00
C26    C     0.35249   0.26535   0.06352   0.00000  Uiso   1.00
C27    C     0.47847   0.25803   0.21690   0.00000  Uiso   1.00
C28    C     0.23957   0.01194   0.14606   0.00000  Uiso   1.00
C29    C     0.26071   0.32135   0.18700   0.00000  Uiso   1.00
C30    C     0.16470   0.16797   0.16797   0.00000  Uiso   1.00
C31    C     0.33529   0.16572   0.16539   0.00000  Uiso   1.00
C32    C     0.40841   0.20861   0.19477   0.00000  Uiso   1.00
Cu33   Cu    0.25501   0.17246   0.22813   0.00000  Uiso   1.00
Cu34   Cu    0.24500   0.16087   0.10521   0.00000  Uiso   1.00
H35    H     0.39153   0.24248   0.21823   0.00000  Uiso   1.00
H36    H     0.30328   0.00130   0.27523   0.00000  Uiso   1.00
H37    H     0.17688   0.08537   0.03191   0.00000  Uiso   1.00
H38    H     0.21115   0.06239   0.30175   0.00000  Uiso   1.00
H39    H     0.14944   0.06940   0.22840   0.00000  Uiso   1.00
H40    H     0.12937   0.03407   0.28317   0.00000  Uiso   1.00
H41    H     0.11598   0.10133   0.28915   0.00000  Uiso   1.00
H42    H     0.28545   0.27096   0.02719   0.00000  Uiso   1.00
H43    H     0.32541   0.24897   0.30378   0.00000  Uiso   1.00
H44    H     0.38154   0.24027   0.05449   0.00000  Uiso   1.00
H45    H     0.36263   0.30574   0.06132   0.00000  Uiso   1.00
H46    H     0.10853   0.09149   0.11531   0.00000  Uiso   1.00
H47    H     0.34179   0.26540   0.11012   0.00000  Uiso   1.00
H48    H     0.03927   0.04180   0.09641   0.00000  Uiso   1.00
H49    H     0.46066   0.29302   0.23410   0.00000  Uiso   1.00
H50    H     0.34341   0.06781   0.09579   0.00000  Uiso   1.00
H51    H     0.10715   0.27402   0.28925   0.00000  Uiso   1.00
H52    H     0.42362   0.01335   0.12893   0.00000  Uiso   1.00
H53    H     0.03256   0.01394   0.25579   0.00000  Uiso   1.00
H54    H     0.19789   0.33196   0.05709   0.00000  Uiso   1.00
N55    N     0.23745   0.15214   0.01284   0.00000  Uiso   1.00
N56    N     0.26256   0.18119   0.32049   0.00000  Uiso   1.00
O57    O     0.25326   0.09538   0.20659   0.00000  Uiso   1.00
O58    O     0.15906   0.27115   0.23796   0.00000  Uiso   1.00
O59    O     0.46938   0.31534   0.07342   0.00000  Uiso   1.00
O60    O     0.07305   0.32510   0.18870   0.00000  Uiso   1.00
O61    O     0.17376   0.29112   0.11381   0.00000  Uiso   1.00
O62    O     0.32676   0.04192   0.21782   0.00000  Uiso   1.00
O63    O     0.19638   0.14134   0.31798   0.00000  Uiso   1.00
O64    O     0.30334   0.19304   0.01592   0.00000  Uiso   1.00
O65    O     0.24675   0.23796   0.12674   0.00000  Uiso   1.00
O66    O     0.24480   0.08559   0.10279   0.00000  Uiso   1.00
O67    O     0.25520   0.24774   0.23055   0.00000  Uiso   1.00
O68    O     0.18936   0.17155   0.21857   0.00000  Uiso   1.00
O69    O     0.31065   0.16179   0.11476   0.00000  Uiso   1.00
O70    O     0.18090   0.16176   0.11477   0.00000  Uiso   1.00
O71    O     0.31910   0.17157   0.21857   0.00000  Uiso   1.00
O72    O     0.38838   0.06360   0.03349   0.00000  Uiso   1.00
C73    C     0.74774   0.06689   0.15165   0.00000  Uiso   1.00
C74    C     0.59158   0.12559   0.13802   0.00000  Uiso   1.00
C75    C     0.88337   0.16443   0.16310   0.00000  Uiso   1.00
C76    C     0.61659   0.16978   0.16996   0.00000  Uiso   1.00
C77    C     0.90406   0.12066   0.12987   0.00000  Uiso   1.00
C78    C     0.59559   0.21428   0.20140   0.00000  Uiso   1.00
C79    C     0.95141   0.11910   0.13620   0.00000  Uiso   1.00
C80    C     0.54831   0.21560   0.19397   0.00000  Uiso   1.00
C81    C     0.97641   0.16611   0.16475   0.00000  Uiso   1.00
C82    C     0.52339   0.16847   0.16582   0.00000  Uiso   1.00
C83    C     0.95448   0.21083   0.19292   0.00000  Uiso   1.00
C84    C     0.75246   0.26643   0.18163   0.00000  Uiso   1.00
C85    C     0.54538   0.12366   0.13839   0.00000  Uiso   1.00
C86    C     0.97489   0.07285   0.11578   0.00000  Uiso   1.00
C87    C     0.52466   0.26184   0.21374   0.00000  Uiso   1.00
C88    C     0.87604   0.08066   0.08469   0.00000  Uiso   1.00
C89    C     0.62181   0.25582   0.24717   0.00000  Uiso   1.00
C90    C     0.95339   0.01960   0.10588   0.00000  Uiso   1.00
C91    C     0.54484   0.31542   0.22224   0.00000  Uiso   1.00
C92    C     0.70192   0.32094   0.10101   0.00000  Uiso   1.00
C93    C     0.79877   0.01226   0.23133   0.00000  Uiso   1.00
C94    C     0.68433   0.08924   0.31861   0.00000  Uiso   1.00
C95    C     0.52132   0.07662   0.11370   0.00000  Uiso   1.00
C96    C     0.64214   0.07254   0.27705   0.00000  Uiso   1.00
C97    C     0.81421   0.24553   0.01571   0.00000  Uiso   1.00
C98    C     0.85249   0.26535   0.06352   0.00000  Uiso   1.00
C99    C     0.97847   0.25803   0.21690   0.00000  Uiso   1.00
C100   C     0.73957   0.01194   0.14606   0.00000  Uiso   1.00
C101   C     0.76071   0.32135   0.18700   0.00000  Uiso   1.00
C102   C     0.66470   0.16797   0.16797   0.00000  Uiso   1.00
C103   C     0.83529   0.16572   0.16539   0.00000  Uiso   1.00
C104   C     0.90841   0.20861   0.19477   0.00000  Uiso   1.00
Cu105  Cu    0.75501   0.17246   0.22813   0.00000  Uiso   1.00
Cu106  Cu    0.74500   0.16087   0.10521   0.00000  Uiso   1.00
H107   H     0.89153   0.24248   0.21823   0.00000  Uiso   1.00
H108   H     0.80328   0.00130   0.27523   0.00000  Uiso   1.00
H109   H     0.67688   0.08537   0.03191   0.00000  Uiso   1.00
H110   H     0.71115   0.06239   0.30175   0.00000  Uiso   1.00
H111   H     0.64944   0.06940   0.22840   0.00000  Uiso   1.00
H112   H     0.62937   0.03407   0.28317   0.00000  Uiso   1.00
H113   H     0.61598   0.10133   0.28915   0.00000  Uiso   1.00
H114   H     0.78545   0.27096   0.02719   0.00000  Uiso   1.00
H115   H     0.82541   0.24897   0.30378   0.00000  Uiso   1.00
H116   H     0.88154   0.24027   0.05449   0.00000  Uiso   1.00
H117   H     0.86263   0.30574   0.06132   0.00000  Uiso   1.00
H118   H     0.60853   0.09149   0.11531   0.00000  Uiso   1.00
H119   H     0.84179   0.26540   0.11012   0.00000  Uiso   1.00
H120   H     0.53927   0.04180   0.09641   0.00000  Uiso   1.00
H121   H     0.96066   0.29302   0.23410   0.00000  Uiso   1.00
H122   H     0.84341   0.06781   0.09579   0.00000  Uiso   1.00
H123   H     0.60715   0.27402   0.28925   0.00000  Uiso   1.00
H124   H     0.92362   0.01335   0.12893   0.00000  Uiso   1.00
H125   H     0.53256   0.01394   0.25579   0.00000  Uiso   1.00
H126   H     0.69789   0.33196   0.05709   0.00000  Uiso   1.00
N127   N     0.73745   0.15214   0.01284   0.00000  Uiso   1.00
N128   N     0.76256   0.18119   0.32049   0.00000  Uiso   1.00
O129   O     0.75326   0.09538   0.20659   0.00000  Uiso   1.00
O130   O     0.65906   0.27115   0.23796   0.00000  Uiso   1.00
O131   O     0.96938   0.31534   0.07342   0.00000  Uiso   1.00
O132   O     0.57305   0.32510   0.18870   0.00000  Uiso   1.00
O133   O     0.67376   0.29112   0.11381   0.00000  Uiso   1.00
O134   O     0.82676   0.04192   0.21782   0.00000  Uiso   1.00
O135   O     0.69638   0.14134   0.31798   0.00000  Uiso   1.00
O136   O     0.80334   0.19304   0.01592   0.00000  Uiso   1.00
O137   O     0.74675   0.23796   0.12674   0.00000  Uiso   1.00
O138   O     0.74480   0.08559   0.10279   0.00000  Uiso   1.00
O139   O     0.75520   0.24774   0.23055   0.00000  Uiso   1.00
O140   O     0.68936   0.17155   0.21857   0.00000  Uiso   1.00
O141   O     0.81065   0.16179   0.11476   0.00000  Uiso   1.00
O142   O     0.68090   0.16176   0.11477   0.00000  Uiso   1.00
O143   O     0.81910   0.17157   0.21857   0.00000  Uiso   1.00
O144   O     0.88838   0.06360   0.03349   0.00000  Uiso   1.00
C145   C     0.24774   0.40023   0.15165   0.00000  Uiso   1.00
C146   C     0.09158   0.45892   0.13802   0.00000  Uiso   1.00
C147   C     0.38337   0.49776   0.16310   0.00000  Uiso   1.00
C148   C     0.11659   0.50312   0.16996   0.00000  Uiso   1.00
C149   C     0.40406   0.45400   0.12987   0.00000  Uiso   1.00
C150   C     0.09559   0.54762   0.20140   0.00000  Uiso   1.00
C151   C     0.45141   0.45243   0.13620   0.00000  Uiso   1.00
C152   C     0.04831   0.54894   0.19397   0.00000  Uiso   1.00
C153   C     0.47641   0.49945   0.16475   0.00000  Uiso   1.00
C154   C     0.02339   0.50181   0.16582   0.00000  Uiso   1.00
C155   C     0.45448   0.54416   0.19292   0.00000  Uiso   1.00
C156   C     0.25246   0.59976   0.18163   0.00000  Uiso   1.00
C157   C     0.04538   0.45699   0.13839   0.00000  Uiso   1.00
C158   C     0.47489   0.40618   0.11578   0.00000  Uiso   1.00
C159   C     0.02466   0.59517   0.21374   0.00000  Uiso   1.00
C160   C     0.37604   0.41399   0.08469   0.00000  Uiso   1.00
C161   C     0.12181   0.58916   0.24717   0.00000  Uiso   1.00
C162   C     0.45339   0.35294   0.10588   0.00000  Uiso   1.00
C163   C     0.04484   0.64876   0.22224   0.00000  Uiso   1.00
C164   C     0.20192   0.65428   0.10101   0.00000  Uiso   1.00
C165   C     0.29877   0.34560   0.23133   0.00000  Uiso   1.00
C166   C     0.18433   0.42257   0.31861   0.00000  Uiso   1.00
C167   C     0.02132   0.40995   0.11370   0.00000  Uiso   1.00
C168   C     0.14214   0.40587   0.27705   0.00000  Uiso   1.00
C169   C     0.31421   0.57886   0.01571   0.00000  Uiso   1.00
C170   C     0.35249   0.59869   0.06352   0.00000  Uiso   1.00
C171   C     0.47847   0.59136   0.21690   0.00000  Uiso   1.00
C172   C     0.23957   0.34527   0.14606   0.00000  Uiso   1.00
C173   C     0.26071   0.65469   0.18700   0.00000  Uiso   1.00
C174   C     0.16470   0.50130   0.16797   0.00000  Uiso   1.00
C175   C     0.33529   0.49905   0.16539   0.00000  Uiso   1.00
C176   C     0.40841   0.54194   0.19477   0.00000  Uiso   1.00
Cu177  Cu    0.25501   0.50579   0.22813   0.00000  Uiso   1.00
Cu178  Cu    0.24500   0.49421   0.10521   0.00000  Uiso   1.00
H179   H     0.39153   0.57582   0.21823   0.00000  Uiso   1.00
H180   H     0.30328   0.33463   0.27523   0.00000  Uiso   1.00
H181   H     0.17688   0.41871   0.03191   0.00000  Uiso   1.00
H182   H     0.21115   0.39573   0.30175   0.00000  Uiso   1.00
H183   H     0.14944   0.40273   0.22840   0.00000  Uiso   1.00
H184   H     0.12937   0.36740   0.28317   0.00000  Uiso   1.00
H185   H     0.11598   0.43466   0.28915   0.00000  Uiso   1.00
H186   H     0.28545   0.60429   0.02719   0.00000  Uiso   1.00
H187   H     0.32541   0.58230   0.30378   0.00000  Uiso   1.00
H188   H     0.38154   0.57361   0.05449   0.00000  Uiso   1.00
H189   H     0.36263   0.63908   0.06132   0.00000  Uiso   1.00
H190   H     0.10853   0.42483   0.11531   0.00000  Uiso   1.00
H191   H     0.34179   0.59873   0.11012   0.00000  Uiso   1.00
H192   H     0.03927   0.37513   0.09641   0.00000  Uiso   1.00
H193   H     0.46066   0.62636   0.23410   0.00000  Uiso   1.00
H194   H     0.34341   0.40114   0.09579   0.00000  Uiso   1.00
H195   H     0.10715   0.60735   0.28925   0.00000  Uiso   1.00
H196   H     0.42362   0.34668   0.12893   0.00000  Uiso   1.00
H197   H     0.03256   0.34727   0.25579   0.00000  Uiso   1.00
H198   H     0.19789   0.66529   0.05709   0.00000  Uiso   1.00
N199   N     0.23745   0.48547   0.01284   0.00000  Uiso   1.00
N200   N     0.26256   0.51453   0.32049   0.00000  Uiso   1.00
O201   O     0.25326   0.42871   0.20659   0.00000  Uiso   1.00
O202   O     0.15906   0.60449   0.23796   0.00000  Uiso   1.00
O203   O     0.46938   0.64867   0.07342   0.00000  Uiso   1.00
O204   O     0.07305   0.65844   0.18870   0.00000  Uiso   1.00
O205   O     0.17376   0.62445   0.11381   0.00000  Uiso   1.00
O206   O     0.32676   0.37525   0.21782   0.00000  Uiso   1.00
O207   O     0.19638   0.47467   0.31798   0.00000  Uiso   1.00
O208   O     0.30334   0.52637   0.01592   0.00000  Uiso   1.00
O209   O     0.24675   0.57129   0.12674   0.00000  Uiso   1.00
O210   O     0.24480   0.41892   0.10279   0.00000  Uiso   1.00
O211   O     0.25520   0.58108   0.23055   0.00000  Uiso   1.00
O212   O     0.18936   0.50488   0.21857   0.00000  Uiso   1.00
O213   O     0.31065   0.49512   0.11476   0.00000  Uiso   1.00
O214   O     0.18090   0.49510   0.11477   0.00000  Uiso   1.00
O215   O     0.31910   0.50490   0.21857   0.00000  Uiso   1.00
O216   O     0.38838   0.39693   0.03349   0.00000  Uiso   1.00
C217   C     0.74774   0.40023   0.15165   0.00000  Uiso   1.00
C218   C     0.59158   0.45892   0.13802   0.00000  Uiso   1.00
C219   C     0.88337   0.49776   0.16310   0.00000  Uiso   1.00
C220   C     0.61659   0.50312   0.16996   0.00000  Uiso   1.00
C221   C     0.90406   0.45400   0.12987   0.00000  Uiso   1.00
C222   C     0.59559   0.54762   0.20140   0.00000  Uiso   1.00
C223   C     0.95141   0.45243   0.13620   0.00000  Uiso   1.00
C224   C     0.54831   0.54894   0.19397   0.00000  Uiso   1.00
C225   C     0.97641   0.49945   0.16475   0.00000  Uiso   1.00
C226   C     0.52339   0.50181   0.16582   0.00000  Uiso   1.00
C227   C     0.95448   0.54416   0.19292   0.00000  Uiso   1.00
C228   C     0.75246   0.59976   0.18163   0.00000  Uiso   1.00
C229   C     0.54538   0.45699   0.13839   0.00000  Uiso   1.00
C230   C     0.97489   0.40618   0.11578   0.00000  Uiso   1.00
C231   C     0.52466   0.59517   0.21374   0.00000  Uiso   1.00
C232   C     0.87604   0.41399   0.08469   0.00000  Uiso   1.00
C233   C     0.62181   0.58916   0.24717   0.00000  Uiso   1.00
C234   C     0.95339   0.35294   0.10588   0.00000  Uiso   1.00
C235   C     0.54484   0.64876   0.22224   0.00000  Uiso   1.00
C236   C     0.70192   0.65428   0.10101   0.00000  Uiso   1.00
C237   C     0.79877   0.34560   0.23133   0.00000  Uiso   1.00
C238   C     0.68433   0.42257   0.31861   0.00000  Uiso   1.00
C239   C     0.52132   0.40995   0.11370   0.00000  Uiso   1.00
C240   C     0.64214   0.40587   0.27705   0.00000  Uiso   1.00
C241   C     0.81421   0.57886   0.01571   0.00000  Uiso   1.00
C242   C     0.85249   0.59869   0.06352   0.00000  Uiso   1.00
C243   C     0.97847   0.59136   0.21690   0.00000  Uiso   1.00
C244   C     0.73957   0.34527   0.14606   0.00000  Uiso   1.00
C245   C     0.76071   0.65469   0.18700   0.00000  Uiso   1.00
C246   C     0.66470   0.50130   0.16797   0.00000  Uiso   1.00
C247   C     0.83529   0.49905   0.16539   0.00000  Uiso   1.00
C248   C     0.90841   0.54194   0.19477   0.00000  Uiso   1.00
Cu249  Cu    0.75501   0.50579   0.22813   0.00000  Uiso   1.00
Cu250  Cu    0.74500   0.49421   0.10521   0.00000  Uiso   1.00
H251   H     0.89153   0.57582   0.21823   0.00000  Uiso   1.00
H252   H     0.80328   0.33463   0.27523   0.00000  Uiso   1.00
H253   H     0.67688   0.41871   0.03191   0.00000  Uiso   1.00
H254   H     0.71115   0.39573   0.30175   0.00000  Uiso   1.00
H255   H     0.64944   0.40273   0.22840   0.00000  Uiso   1.00
H256   H     0.62937   0.36740   0.28317   0.00000  Uiso   1.00
H257   H     0.61598   0.43466   0.28915   0.00000  Uiso   1.00
H258   H     0.78545   0.60429   0.02719   0.00000  Uiso   1.00
H259   H     0.82541   0.58230   0.30378   0.00000  Uiso   1.00
H260   H     0.88154   0.57361   0.05449   0.00000  Uiso   1.00
H261   H     0.86263   0.63908   0.06132   0.00000  Uiso   1.00
H262   H     0.60853   0.42483   0.11531   0.00000  Uiso   1.00
H263   H     0.84179   0.59873   0.11012   0.00000  Uiso   1.00
H264   H     0.53927   0.37513   0.09641   0.00000  Uiso   1.00
H265   H     0.96066   0.62636   0.23410   0.00000  Uiso   1.00
H266   H     0.84341   0.40114   0.09579   0.00000  Uiso   1.00
H267   H     0.60715   0.60735   0.28925   0.00000  Uiso   1.00
H268   H     0.92362   0.34668   0.12893   0.00000  Uiso   1.00
H269   H     0.53256   0.34727   0.25579   0.00000  Uiso   1.00
H270   H     0.69789   0.66529   0.05709   0.00000  Uiso   1.00
N271   N     0.73745   0.48547   0.01284   0.00000  Uiso   1.00
N272   N     0.76256   0.51453   0.32049   0.00000  Uiso   1.00
O273   O     0.75326   0.42871   0.20659   0.00000  Uiso   1.00
O274   O     0.65906   0.60449   0.23796   0.00000  Uiso   1.00
O275   O     0.96938   0.64867   0.07342   0.00000  Uiso   1.00
O276   O     0.57305   0.65844   0.18870   0.00000  Uiso   1.00
O277   O     0.67376   0.62445   0.11381   0.00000  Uiso   1.00
O278   O     0.82676   0.37525   0.21782   0.00000  Uiso   1.00
O279   O     0.69638   0.47467   0.31798   0.00000  Uiso   1.00
O280   O     0.80334   0.52637   0.01592   0.00000  Uiso   1.00
O281   O     0.74675   0.57129   0.12674   0.00000  Uiso   1.00
O282   O     0.74480   0.41892   0.10279   0.00000  Uiso   1.00
O283   O     0.75520   0.58108   0.23055   0.00000  Uiso   1.00
O284   O     0.68936   0.50488   0.21857   0.00000  Uiso   1.00
O285   O     0.81065   0.49512   0.11476   0.00000  Uiso   1.00
O286   O     0.68090   0.49510   0.11477   0.00000  Uiso   1.00
O287   O     0.81910   0.50490   0.21857   0.00000  Uiso   1.00
O288   O     0.88838   0.39693   0.03349   0.00000  Uiso   1.00
C289   C     0.24774   0.73356   0.15165   0.00000  Uiso   1.00
C290   C     0.09158   0.79226   0.13802   0.00000  Uiso   1.00
C291   C     0.38337   0.83109   0.16310   0.00000  Uiso   1.00
C292   C     0.11659   0.83645   0.16996   0.00000  Uiso   1.00
C293   C     0.40406   0.78733   0.12987   0.00000  Uiso   1.00
C294   C     0.09559   0.88095   0.20140   0.00000  Uiso   1.00
C295   C     0.45141   0.78576   0.13620   0.00000  Uiso   1.00
C296   C     0.04831   0.88227   0.19397   0.00000  Uiso   1.00
C297   C     0.47641   0.83278   0.16475   0.00000  Uiso   1.00
C298   C     0.02339   0.83514   0.16582   0.00000  Uiso   1.00
C299   C     0.45448   0.87750   0.19292   0.00000  Uiso   1.00
C300   C     0.25246   0.93310   0.18163   0.00000  Uiso   1.00
C301   C     0.04538   0.79033   0.13839   0.00000  Uiso   1.00
C302   C     0.47489   0.73951   0.11578   0.00000  Uiso   1.00
C303   C     0.02466   0.92850   0.21374   0.00000  Uiso   1.00
C304   C     0.37604   0.74733   0.08469   0.00000  Uiso   1.00
C305   C     0.12181   0.92249   0.24717   0.00000  Uiso   1.00
C306   C     0.45339   0.68627   0.10588   0.00000  Uiso   1.00
C307   C     0.04484   0.98209   0.22224   0.00000  Uiso   1.00
C308   C     0.20192   0.98761   0.10101   0.00000  Uiso   1.00
C309   C     0.29877   0.67893   0.23133   0.00000  Uiso   1.00
C310   C     0.18433   0.75590   0.31861   0.00000  Uiso   1.00
C311   C     0.02132   0.74329   0.11370   0.00000  Uiso   1.00
C312   C     0.14214   0.73921   0.27705   0.00000  Uiso   1.00
C313   C     0.31421   0.91220   0.01571   0.00000  Uiso   1.00
C314   C     0.35249   0.93202   0.06352   0.00000  Uiso   1.00
C315   C     0.47847   0.92469   0.21690   0.00000  Uiso   1.00
C316   C     0.23957   0.67861   0.14606   0.00000  Uiso   1.00
C317   C     0.26071   0.98802   0.18700   0.00000  Uiso   1.00
C318   C     0.16470   0.83463   0.16797   0.00000  Uiso   1.00
C319   C     0.33529   0.83239   0.16539   0.00000  Uiso   1.00
C320   C     0.40841   0.87528   0.19477   0.00000  Uiso   1.00
Cu321  Cu    0.25501   0.83913   0.22813   0.00000  Uiso   1.00
Cu322  Cu    0.24500   0.82754   0.10521   0.00000  Uiso   1.00
H323   H     0.39153   0.90915   0.21823   0.00000  Uiso   1.00
H324   H     0.30328   0.66796   0.27523   0.00000  Uiso   1.00
H325   H     0.17688   0.75204   0.03191   0.00000  Uiso   1.00
H326   H     0.21115   0.72906   0.30175   0.00000  Uiso   1.00
H327   H     0.14944   0.73607   0.22840   0.00000  Uiso   1.00
H328   H     0.12937   0.70073   0.28317   0.00000  Uiso   1.00
H329   H     0.11598   0.76800   0.28915   0.00000  Uiso   1.00
H330   H     0.28545   0.93763   0.02719   0.00000  Uiso   1.00
H331   H     0.32541   0.91564   0.30378   0.00000  Uiso   1.00
H332   H     0.38154   0.90694   0.05449   0.00000  Uiso   1.00
H333   H     0.36263   0.97241   0.06132   0.00000  Uiso   1.00
H334   H     0.10853   0.75816   0.11531   0.00000  Uiso   1.00
H335   H     0.34179   0.93207   0.11012   0.00000  Uiso   1.00
H336   H     0.03927   0.70846   0.09641   0.00000  Uiso   1.00
H337   H     0.46066   0.95969   0.23410   0.00000  Uiso   1.00
H338   H     0.34341   0.73448   0.09579   0.00000  Uiso   1.00
H339   H     0.10715   0.94068   0.28925   0.00000  Uiso   1.00
H340   H     0.42362   0.68002   0.12893   0.00000  Uiso   1.00
H341   H     0.03256   0.68060   0.25579   0.00000  Uiso   1.00
H342   H     0.19789   0.99863   0.05709   0.00000  Uiso   1.00
N343   N     0.23745   0.81881   0.01284   0.00000  Uiso   1.00
N344   N     0.26256   0.84786   0.32049   0.00000  Uiso   1.00
O345   O     0.25326   0.76204   0.20659   0.00000  Uiso   1.00
O346   O     0.15906   0.93782   0.23796   0.00000  Uiso   1.00
O347   O     0.46938   0.98201   0.07342   0.00000  Uiso   1.00
O348   O     0.07305   0.99177   0.18870   0.00000  Uiso   1.00
O349   O     0.17376   0.95778   0.11381   0.00000  Uiso   1.00
O350   O     0.32676   0.70859   0.21782   0.00000  Uiso   1.00
O351   O     0.19638   0.80801   0.31798   0.00000  Uiso   1.00
O352   O     0.30334   0.85970   0.01592   0.00000  Uiso   1.00
O353   O     0.24675   0.90462   0.12674   0.00000  Uiso   1.00
O354   O     0.24480   0.75226   0.10279   0.00000  Uiso   1.00
O355   O     0.25520   0.91441   0.23055   0.00000  Uiso   1.00
O356   O     0.18936   0.83821   0.21857   0.00000  Uiso   1.00
O357   O     0.31065   0.82845   0.11476   0.00000  Uiso   1.00
O358   O     0.18090   0.82843   0.11477   0.00000  Uiso   1.00
O359   O     0.31910   0.83824   0.21857   0.00000  Uiso   1.00
O360   O     0.38838   0.73026   0.03349   0.00000  Uiso   1.00
C361   C     0.74774   0.73356   0.15165   0.00000  Uiso   1.00
C362   C     0.59158   0.79226   0.13802   0.00000  Uiso   1.00
C363   C     0.88337   0.83109   0.16310   0.00000  Uiso   1.00
C364   C     0.61659   0.83645   0.16996   0.00000  Uiso   1.00
C365   C     0.90406   0.78733   0.12987   0.00000  Uiso   1.00
C366   C     0.59559   0.88095   0.20140   0.00000  Uiso   1.00
C367   C     0.95141   0.78576   0.13620   0.00000  Uiso   1.00
C368   C     0.54831   0.88227   0.19397   0.00000  Uiso   1.00
C369   C     0.97641   0.83278   0.16475   0.00000  Uiso   1.00
C370   C     0.52339   0.83514   0.16582   0.00000  Uiso   1.00
C371   C     0.95448   0.87750   0.19292   0.00000  Uiso   1.00
C372   C     0.75246   0.93310   0.18163   0.00000  Uiso   1.00
C373   C     0.54538   0.79033   0.13839   0.00000  Uiso   1.00
C374   C     0.97489   0.73951   0.11578   0.00000  Uiso   1.00
C375   C     0.52466   0.92850   0.21374   0.00000  Uiso   1.00
C376   C     0.87604   0.74733   0.08469   0.00000  Uiso   1.00
C377   C     0.62181   0.92249   0.24717   0.00000  Uiso   1.00
C378   C     0.95339   0.68627   0.10588   0.00000  Uiso   1.00
C379   C     0.54484   0.98209   0.22224   0.00000  Uiso   1.00
C380   C     0.70192   0.98761   0.10101   0.00000  Uiso   1.00
C381   C     0.79877   0.67893   0.23133   0.00000  Uiso   1.00
C382   C     0.68433   0.75590   0.31861   0.00000  Uiso   1.00
C383   C     0.52132   0.74329   0.11370   0.00000  Uiso   1.00
C384   C     0.64214   0.73921   0.27705   0.00000  Uiso   1.00
C385   C     0.81421   0.91220   0.01571   0.00000  Uiso   1.00
C386   C     0.85249   0.93202   0.06352   0.00000  Uiso   1.00
C387   C     0.97847   0.92469   0.21690   0.00000  Uiso   1.00
C388   C     0.73957   0.67861   0.14606   0.00000  Uiso   1.00
C389   C     0.76071   0.98802   0.18700   0.00000  Uiso   1.00
C390   C     0.66470   0.83463   0.16797   0.00000  Uiso   1.00
C391   C     0.83529   0.83239   0.16539   0.00000  Uiso   1.00
C392   C     0.90841   0.87528   0.19477   0.00000  Uiso   1.00
Cu393  Cu    0.75501   0.83913   0.22813   0.00000  Uiso   1.00
Cu394  Cu    0.74500   0.82754   0.10521   0.00000  Uiso   1.00
H395   H     0.89153   0.90915   0.21823   0.00000  Uiso   1.00
H396   H     0.80328   0.66796   0.27523   0.00000  Uiso   1.00
H397   H     0.67688   0.75204   0.03191   0.00000  Uiso   1.00
H398   H     0.71115   0.72906   0.30175   0.00000  Uiso   1.00
H399   H     0.64944   0.73607   0.22840   0.00000  Uiso   1.00
H400   H     0.62937   0.70073   0.28317   0.00000  Uiso   1.00
H401   H     0.61598   0.76800   0.28915   0.00000  Uiso   1.00
H402   H     0.78545   0.93763   0.02719   0.00000  Uiso   1.00
H403   H     0.82541   0.91564   0.30378   0.00000  Uiso   1.00
H404   H     0.88154   0.90694   0.05449   0.00000  Uiso   1.00
H405   H     0.86263   0.97241   0.06132   0.00000  Uiso   1.00
H406   H     0.60853   0.75816   0.11531   0.00000  Uiso   1.00
H407   H     0.84179   0.93207   0.11012   0.00000  Uiso   1.00
H408   H     0.53927   0.70846   0.09641   0.00000  Uiso   1.00
H409   H     0.96066   0.95969   0.23410   0.00000  Uiso   1.00
H410   H     0.84341   0.73448   0.09579   0.00000  Uiso   1.00
H411   H     0.60715   0.94068   0.28925   0.00000  Uiso   1.00
H412   H     0.92362   0.68002   0.12893   0.00000  Uiso   1.00
H413   H     0.53256   0.68060   0.25579   0.00000  Uiso   1.00
H414   H     0.69789   0.99863   0.05709   0.00000  Uiso   1.00
N415   N     0.73745   0.81881   0.01284   0.00000  Uiso   1.00
N416   N     0.76256   0.84786   0.32049   0.00000  Uiso   1.00
O417   O     0.75326   0.76204   0.20659   0.00000  Uiso   1.00
O418   O     0.65906   0.93782   0.23796   0.00000  Uiso   1.00
O419   O     0.96938   0.98201   0.07342   0.00000  Uiso   1.00
O420   O     0.57305   0.99177   0.18870   0.00000  Uiso   1.00
O421   O     0.67376   0.95778   0.11381   0.00000  Uiso   1.00
O422   O     0.82676   0.70859   0.21782   0.00000  Uiso   1.00
O423   O     0.69638   0.80801   0.31798   0.00000  Uiso   1.00
O424   O     0.80334   0.85970   0.01592   0.00000  Uiso   1.00
O425   O     0.74675   0.90462   0.12674   0.00000  Uiso   1.00
O426   O     0.74480   0.75226   0.10279   0.00000  Uiso   1.00
O427   O     0.75520   0.91441   0.23055   0.00000  Uiso   1.00
O428   O     0.68936   0.83821   0.21857   0.00000  Uiso   1.00
O429   O     0.81065   0.82845   0.11476   0.00000  Uiso   1.00
O430   O     0.68090   0.82843   0.11477   0.00000  Uiso   1.00
O431   O     0.81910   0.83824   0.21857   0.00000  Uiso   1.00
O432   O     0.88838   0.73026   0.03349   0.00000  Uiso   1.00
C433   C     0.24774   0.06689   0.48498   0.00000  Uiso   1.00
C434   C     0.09158   0.12559   0.47135   0.00000  Uiso   1.00
C435   C     0.38337   0.16443   0.49643   0.00000  Uiso   1.00
C436   C     0.11659   0.16978   0.50330   0.00000  Uiso   1.00
C437   C     0.40406   0.12066   0.46321   0.00000  Uiso   1.00
C438   C     0.09559   0.21428   0.53474   0.00000  Uiso   1.00
C439   C     0.45141   0.11910   0.46953   0.00000  Uiso   1.00
C440   C     0.04831   0.21560   0.52730   0.00000  Uiso   1.00
C441   C     0.47641   0.16611   0.49808   0.00000  Uiso   1.00
C442   C     0.02339   0.16847   0.49915   0.00000  Uiso   1.00
C443   C     0.45448   0.21083   0.52626   0.00000  Uiso   1.00
C444   C     0.25246   0.26643   0.51496   0.00000  Uiso   1.00
C445   C     0.04538   0.12366   0.47173   0.00000  Uiso   1.00
C446   C     0.47489   0.07285   0.44912   0.00000  Uiso   1.00
C447   C     0.02466   0.26184   0.54707   0.00000  Uiso   1.00
C448   C     0.37604   0.08066   0.41802   0.00000  Uiso   1.00
C449   C     0.12181   0.25582   0.58050   0.00000  Uiso   1.00
C450   C     0.45339   0.01960   0.43921   0.00000  Uiso   1.00
C451   C     0.04484   0.31542   0.55557   0.00000  Uiso   1.00
C452   C     0.20192   0.32094   0.43434   0.00000  Uiso   1.00
C453   C     0.29877   0.01226   0.56467   0.00000  Uiso   1.00
C454   C     0.18433   0.08924   0.65195   0.00000  Uiso   1.00
C455   C     0.02132   0.07662   0.44703   0.00000  Uiso   1.00
C456   C     0.14214   0.07254   0.61039   0.00000  Uiso   1.00
C457   C     0.31421   0.24553   0.34904   0.00000  Uiso   1.00
C458   C     0.35249   0.26535   0.39686   0.00000  Uiso   1.00
C459   C     0.47847   0.25803   0.55023   0.00000  Uiso   1.00
C460   C     0.23957   0.01194   0.47940   0.00000  Uiso   1.00
C461   C     0.26071   0.32135   0.52033   0.00000  Uiso   1.00
C462   C     0.16470   0.16797   0.50131   0.00000  Uiso   1.00
C463   C     0.33529   0.16572   0.49872   0.00000  Uiso   1.00
C464   C     0.40841   0.20861   0.52811   0.00000  Uiso   1.00
Cu465  Cu    0.25501   0.17246   0.56146   0.00000  Uiso   1.00
Cu466  Cu    0.24500   0.16087   0.43854   0.00000  Uiso   1.00
H467   H     0.39153   0.24248   0.55156   0.00000  Uiso   1.00
H468   H     0.30328   0.00130   0.60857   0.00000  Uiso   1.00
H469   H     0.17688   0.08537   0.36525   0.00000  Uiso   1.00
H470   H     0.21115   0.06239   0.63509   0.00000  Uiso   1.00
H471   H     0.14944   0.06940   0.56173   0.00000  Uiso   1.00
H472   H     0.12937   0.03407   0.61651   0.00000  Uiso   1.00
H473   H     0.11598   0.10133   0.62248   0.00000  Uiso   1.00
H474   H     0.28545   0.27096   0.36053   0.00000  Uiso   1.00
H475   H     0.32541   0.24897   0.63711   0.00000  Uiso   1.00
H476   H     0.38154   0.24027   0.38783   0.00000  Uiso   1.00
H477   H     0.36263   0.30574   0.39465   0.00000  Uiso   1.00
H478   H     0.10853   0.09149   0.44865   0.00000  Uiso   1.00
H479   H     0.34179   0.26540   0.44346   0.00000  Uiso   1.00
H480   H     0.03927   0.04180   0.42975   0.00000  Uiso   1.00
H481   H     0.46066   0.29302   0.56743   0.00000  Uiso   1.00
H482   H     0.34341   0.06781   0.42913   0.00000  Uiso   1.00
H483   H     0.10715   0.27402   0.62258   0.00000  Uiso   1.00
H484   H     0.42362   0.01335   0.46227   0.00000  Uiso   1.00
H485   H     0.03256   0.01394   0.58913   0.00000  Uiso   1.00
H486   H     0.19789   0.33196   0.39042   0.00000  Uiso   1.00
N487   N     0.23745   0.15214   0.34617   0.00000  Uiso   1.00
N488   N     0.26256   0.18119   0.65383   0.00000  Uiso   1.00
O489   O     0.25326   0.09538   0.53992   0.00000  Uiso   1.00
O490   O     0.15906   0.27115   0.57130   0.00000  Uiso   1.00
O491   O     0.46938   0.31534   0.40675   0.00000  Uiso   1.00
O492   O     0.07305   0.32510   0.52204   0.00000  Uiso   1.00
O493   O     0.17376   0.29112   0.44714   0.00000  Uiso   1.00
O494   O     0.32676   0.04192   0.55115   0.00000  Uiso   1.00
O495   O     0.19638   0.14134   0.65131   0.00000  Uiso   1.00
O496   O     0.30334   0.19304   0.34925   0.00000  Uiso   1.00
O497   O     0.24675   0.23796   0.46008   0.00000  Uiso   1.00
O498   O     0.24480   0.08559   0.43612   0.00000  Uiso   1.00
O499   O     0.25520   0.24774   0.56388   0.00000  Uiso   1.00
O500   O     0.18936   0.17155   0.55191   0.00000  Uiso   1.00
O501   O     0.31065   0.16179   0.44809   0.00000  Uiso   1.00
O502   O     0.18090   0.16176   0.44810   0.00000  Uiso   1.00
O503   O     0.31910   0.17157   0.55190   0.00000  Uiso   1.00
O504   O     0.38838   0.06360   0.36683   0.00000  Uiso   1.00
C505   C     0.74774   0.06689   0.48498   0.00000  Uiso   1.00
C506   C     0.59158   0.12559   0.47135   0.00000  Uiso   1.00
C507   C     0.88337   0.16443   0.49643   0.00000  Uiso   1.00
C508   C     0.61659   0.16978   0.50330   0.00000  Uiso   1.00
C509   C     0.90406   0.12066   0.46321   0.00000  Uiso   1.00
C510   C     0.59559   0.21428   0.53474   0.00000  Uiso   1.00
C511   C     0.95141   0.11910   0.46953   0.00000  Uiso   1.00
C512   C     0.54831   0.21560   0.52730   0.00000  Uiso   1.00
C513   C     0.97641   0.16611   0.49808   0.00000  Uiso   1.00
C514   C     0.52339   0.16847   0.49915   0.00000  Uiso   1.00
C515   C     0.95448   0.21083   0.52626   0.00000  Uiso   1.00
C516   C     0.75246   0.26643   0.51496   0.00000  Uiso   1.00
C517   C     0.54538   0.12366   0.47173   0.00000  Uiso   1.00
C518   C     0.97489   0.07285   0.44912   0.00000  Uiso   1.00
C519   C     0.52466   0.26184   0.54707   0.00000  Uiso   1.00
C520   C     0.87604   0.08066   0.41802   0.00000  Uiso   1.00
C521   C     0.62181   0.25582   0.58050   0.00000  Uiso   1.00
C522   C     0.95339   0.01960   0.43921   0.00000  Uiso   1.00
C523   C     0.54484   0.31542   0.55557   0.00000  Uiso   1.00
C524   C     0.70192   0.32094   0.43434   0.00000  Uiso   1.00
C525   C     0.79877   0.01226   0.56467   0.00000  Uiso   1.00
C526   C     0.68433   0.08924   0.65195   0.00000  Uiso   1.00
C527   C     0.52132   0.07662   0.44703   0.00000  Uiso   1.00
C528   C     0.64214   0.07254   0.61039   0.00000  Uiso   1.00
C529   C     0.81421   0.24553   0.34904   0.00000  Uiso   1.00
C530   C     0.85249   0.26535   0.39686   0.00000  Uiso   1.00
C531   C     0.97847   0.25803   0.55023   0.00000  Uiso   1.00
C532   C     0.73957   0.01194   0.47940   0.00000  Uiso   1.00
C533   C     0.76071   0.32135   0.52033   0.00000  Uiso   1.00
C534   C     0.66470   0.16797   0.50131   0.00000  Uiso   1.00
C535   C     0.83529   0.16572   0.49872   0.00000  Uiso   1.00
C536   C     0.90841   0.20861   0.52811   0.00000  Uiso   1.00
Cu537  Cu    0.75501   0.17246   0.56146   0.00000  Uiso   1.00
Cu538  Cu    0.74500   0.16087   0.43854   0.00000  Uiso   1.00
H539   H     0.89153   0.24248   0.55156   0.00000  Uiso   1.00
H540   H     0.80328   0.00130   0.60857   0.00000  Uiso   1.00
H541   H     0.67688   0.08537   0.36525   0.00000  Uiso   1.00
H542   H     0.71115   0.06239   0.63509   0.00000  Uiso   1.00
H543   H     0.64944   0.06940   0.56173   0.00000  Uiso   1.00
H544   H     0.62937   0.03407   0.61651   0.00000  Uiso   1.00
H545   H     0.61598   0.10133   0.62248   0.00000  Uiso   1.00
H546   H     0.78545   0.27096   0.36053   0.00000  Uiso   1.00
H547   H     0.82541   0.24897   0.63711   0.00000  Uiso   1.00
H548   H     0.88154   0.24027   0.38783   0.00000  Uiso   1.00
H549   H     0.86263   0.30574   0.39465   0.00000  Uiso   1.00
H550   H     0.60853   0.09149   0.44865   0.00000  Uiso   1.00
H551   H     0.84179   0.26540   0.44346   0.00000  Uiso   1.00
H552   H     0.53927   0.04180   0.42975   0.00000  Uiso   1.00
H553   H     0.96066   0.29302   0.56743   0.00000  Uiso   1.00
H554   H     0.84341   0.06781   0.42913   0.00000  Uiso   1.00
H555   H     0.60715   0.27402   0.62258   0.00000  Uiso   1.00
H556   H     0.92362   0.01335   0.46227   0.00000  Uiso   1.00
H557   H     0.53256   0.01394   0.58913   0.00000  Uiso   1.00
H558   H     0.69789   0.33196   0.39042   0.00000  Uiso   1.00
N559   N     0.73745   0.15214   0.34617   0.00000  Uiso   1.00
N560   N     0.76256   0.18119   0.65383   0.00000  Uiso   1.00
O561   O     0.75326   0.09538   0.53992   0.00000  Uiso   1.00
O562   O     0.65906   0.27115   0.57130   0.00000  Uiso   1.00
O563   O     0.96938   0.31534   0.40675   0.00000  Uiso   1.00
O564   O     0.57305   0.32510   0.52204   0.00000  Uiso   1.00
O565   O     0.67376   0.29112   0.44714   0.00000  Uiso   1.00
O566   O     0.82676   0.04192   0.55115   0.00000  Uiso   1.00
O567   O     0.69638   0.14134   0.65131   0.00000  Uiso   1.00
O568   O     0.80334   0.19304   0.34925   0.00000  Uiso   1.00
O569   O     0.74675   0.23796   0.46008   0.00000  Uiso   1.00
O570   O     0.74480   0.08559   0.43612   0.00000  Uiso   1.00
O571   O     0.75520   0.24774   0.56388   0.00000  Uiso   1.00
O572   O     0.68936   0.17155   0.55191   0.00000  Uiso   1.00
O573   O     0.81065   0.16179   0.44809   0.00000  Uiso   1.00
O574   O     0.68090   0.16176   0.44810   0.00000  Uiso   1.00
O575   O     0.81910   0.17157   0.55190   0.00000  Uiso   1.00
O576   O     0.88838   0.06360   0.36683   0.00000  Uiso   1.00
C577   C     0.24774   0.40023   0.48498   0.00000  Uiso   1.00
C578   C     0.09158   0.45892   0.47135   0.00000  Uiso   1.00
C579   C     0.38337   0.49776   0.49643   0.00000  Uiso   1.00
C580   C     0.11659   0.50312   0.50330   0.00000  Uiso   1.00
C581   C     0.40406   0.45400   0.46321   0.00000  Uiso   1.00
C582   C     0.09559   0.54762   0.53474   0.00000  Uiso   1.00
C583   C     0.45141   0.45243   0.46953   0.00000  Uiso   1.00
C584   C     0.04831   0.54894   0.52730   0.00000  Uiso   1.00
C585   C     0.47641   0.49945   0.49808   0.00000  Uiso   1.00
C586   C     0.02339   0.50181   0.49915   0.00000  Uiso   1.00
C587   C     0.45448   0.54416   0.52626   0.00000  Uiso   1.00
C588   C     0.25246   0.59976   0.51496   0.00000  Uiso   1.00
C589   C     0.04538   0.45699   0.47173   0.00000  Uiso   1.00
C590   C     0.47489   0.40618   0.44912   0.00000  Uiso   1.00
C591   C     0.02466   0.59517   0.54707   0.00000  Uiso   1.00
C592   C     0.37604   0.41399   0.41802   0.00000  Uiso   1.00
C593   C     0.12181   0.58916   0.58050   0.00000  Uiso   1.00
C594   C     0.45339   0.35294   0.43921   0.00000  Uiso   1.00
C595   C     0.04484   0.64876   0.55557   0.00000  Uiso   1.00
C596   C     0.20192   0.65428   0.43434   0.00000  Uiso   1.00
C597   C     0.29877   0.34560   0.56467   0.00000  Uiso   1.00
C598   C     0.18433   0.42257   0.65195   0.00000  Uiso   1.00
C599   C     0.02132   0.40995   0.44703   0.00000  Uiso   1.00
C600   C     0.14214   0.40587   0.61039   0.00000  Uiso   1.00
C601   C     0.31421   0.57886   0.34904   0.00000  Uiso   1.00
C602   C     0.35249   0.59869   0.39686   0.00000  Uiso   1.00
C603   C     0.47847   0.59136   0.55023   0.00000  Uiso   1.00
C604   C     0.23957   0.34527   0.47940   0.00000  Uiso   1.00
C605   C     0.26071   0.65469   0.52033   0.00000  Uiso   1.00
C606   C     0.16470   0.50130   0.50131   0.00000  Uiso   1.00
C607   C     0.33529   0.49905   0.49872   0.00000  Uiso   1.00
C608   C     0.40841   0.54194   0.52811   0.00000  Uiso   1.00
Cu609  Cu    0.25501   0.50579   0.56146   0.00000  Uiso   1.00
Cu610  Cu    0.24500   0.49421   0.43854   0.00000  Uiso   1.00
H611   H     0.39153   0.57582   0.55156   0.00000  Uiso   1.00
H612   H     0.30328   0.33463   0.60857   0.00000  Uiso   1.00
H613   H     0.17688   0.41871   0.36525   0.00000  Uiso   1.00
H614   H     0.21115   0.39573   0.63509   0.00000  Uiso   1.00
H615   H     0.14944   0.40273   0.56173   0.00000  Uiso   1.00
H616   H     0.12937   0.36740   0.61651   0.00000  Uiso   1.00
H617   H     0.11598   0.43466   0.62248   0.00000  Uiso   1.00
H618   H     0.28545   0.60429   0.36053   0.00000  Uiso   1.00
H619   H     0.32541   0.58230   0.63711   0.00000  Uiso   1.00
H620   H     0.38154   0.57361   0.38783   0.00000  Uiso   1.00
H621   H     0.36263   0.63908   0.39465   0.00000  Uiso   1.00
H622   H     0.10853   0.42483   0.44865   0.00000  Uiso   1.00
H623   H     0.34179   0.59873   0.44346   0.00000  Uiso   1.00
H624   H     0.03927   0.37513   0.42975   0.00000  Uiso   1.00
H625   H     0.46066   0.62636   0.56743   0.00000  Uiso   1.00
H626   H     0.34341   0.40114   0.42913   0.00000  Uiso   1.00
H627   H     0.10715   0.60735   0.62258   0.00000  Uiso   1.00
H628   H     0.42362   0.34668   0.46227   0.00000  Uiso   1.00
H629   H     0.03256   0.34727   0.58913   0.00000  Uiso   1.00
H630   H     0.19789   0.66529   0.39042   0.00000  Uiso   1.00
N631   N     0.23745   0.48547   0.34617   0.00000  Uiso   1.00
N632   N     0.26256   0.51453   0.65383   0.00000  Uiso   1.00
O633   O     0.25326   0.42871   0.53992   0.00000  Uiso   1.00
O634   O     0.15906   0.60449   0.57130   0.00000  Uiso   1.00
O635   O     0.46938   0.64867   0.40675   0.00000  Uiso   1.00
O636   O     0.07305   0.65844   0.52204   0.00000  Uiso   1.00
O637   O     0.17376   0.62445   0.44714   0.00000  Uiso   1.00
O638   O     0.32676   0.37525   0.55115   0.00000  Uiso   1.00
O639   O     0.19638   0.47467   0.65131   0.00000  Uiso   1.00
O640   O     0.30334   0.52637   0.34925   0.00000  Uiso   1.00
O641   O     0.24675   0.57129   0.46008   0.00000  Uiso   1.00
O642   O     0.24480   0.41892   0.43612   0.00000  Uiso   1.00
O643   O     0.25520   0.58108   0.56388   0.00000  Uiso   1.00
O644   O     0.18936   0.50488   0.55191   0.00000  Uiso   1.00
O645   O     0.31065   0.49512   0.44809   0.00000  Uiso   1.00
O646   O     0.18090   0.49510   0.44810   0.00000  Uiso   1.00
O647   O     0.31910   0.50490   0.55190   0.00000  Uiso   1.00
O648   O     0.38838   0.39693   0.36683   0.00000  Uiso   1.00
C649   C     0.74774   0.40023   0.48498   0.00000  Uiso   1.00
C650   C     0.59158   0.45892   0.47135   0.00000  Uiso   1.00
C651   C     0.88337   0.49776   0.49643   0.00000  Uiso   1.00
C652   C     0.61659   0.50312   0.50330   0.00000  Uiso   1.00
C653   C     0.90406   0.45400   0.46321   0.00000  Uiso   1.00
C654   C     0.59559   0.54762   0.53474   0.00000  Uiso   1.00
C655   C     0.95141   0.45243   0.46953   0.00000  Uiso   1.00
C656   C     0.54831   0.54894   0.52730   0.00000  Uiso   1.00
C657   C     0.97641   0.49945   0.49808   0.00000  Uiso   1.00
C658   C     0.52339   0.50181   0.49915   0.00000  Uiso   1.00
C659   C     0.95448   0.54416   0.52626   0.00000  Uiso   1.00
C660   C     0.75246   0.59976   0.51496   0.00000  Uiso   1.00
C661   C     0.54538   0.45699   0.47173   0.00000  Uiso   1.00
C662   C     0.97489   0.40618   0.44912   0.00000  Uiso   1.00
C663   C     0.52466   0.59517   0.54707   0.00000  Uiso   1.00
C664   C     0.87604   0.41399   0.41802   0.00000  Uiso   1.00
C665   C     0.62181   0.58916   0.58050   0.00000  Uiso   1.00
C666   C     0.95339   0.35294   0.43921   0.00000  Uiso   1.00
C667   C     0.54484   0.64876   0.55557   0.00000  Uiso   1.00
C668   C     0.70192   0.65428   0.43434   0.00000  Uiso   1.00
C669   C     0.79877   0.34560   0.56467   0.00000  Uiso   1.00
C670   C     0.68433   0.42257   0.65195   0.00000  Uiso   1.00
C671   C     0.52132   0.40995   0.44703   0.00000  Uiso   1.00
C672   C     0.64214   0.40587   0.61039   0.00000  Uiso   1.00
C673   C     0.81421   0.57886   0.34904   0.00000  Uiso   1.00
C674   C     0.85249   0.59869   0.39686   0.00000  Uiso   1.00
C675   C     0.97847   0.59136   0.55023   0.00000  Uiso   1.00
C676   C     0.73957   0.34527   0.47940   0.00000  Uiso   1.00
C677   C     0.76071   0.65469   0.52033   0.00000  Uiso   1.00
C678   C     0.66470   0.50130   0.50131   0.00000  Uiso   1.00
C679   C     0.83529   0.49905   0.49872   0.00000  Uiso   1.00
C680   C     0.90841   0.54194   0.52811   0.00000  Uiso   1.00
Cu681  Cu    0.75501   0.50579   0.56146   0.00000  Uiso   1.00
Cu682  Cu    0.74500   0.49421   0.43854   0.00000  Uiso   1.00
H683   H     0.89153   0.57582   0.55156   0.00000  Uiso   1.00
H684   H     0.80328   0.33463   0.60857   0.00000  Uiso   1.00
H685   H     0.67688   0.41871   0.36525   0.00000  Uiso   1.00
H686   H     0.71115   0.39573   0.63509   0.00000  Uiso   1.00
H687   H     0.64944   0.40273   0.56173   0.00000  Uiso   1.00
H688   H     0.62937   0.36740   0.61651   0.00000  Uiso   1.00
H689   H     0.61598   0.43466   0.62248   0.00000  Uiso   1.00
H690   H     0.78545   0.60429   0.36053   0.00000  Uiso   1.00
H691   H     0.82541   0.58230   0.63711   0.00000  Uiso   1.00
H692   H     0.88154   0.57361   0.38783   0.00000  Uiso   1.00
H693   H     0.86263   0.63908   0.39465   0.00000  Uiso   1.00
H694   H     0.60853   0.42483   0.44865   0.00000  Uiso   1.00
H695   H     0.84179   0.59873   0.44346   0.00000  Uiso   1.00
H696   H     0.53927   0.37513   0.42975   0.00000  Uiso   1.00
H697   H     0.96066   0.62636   0.56743   0.00000  Uiso   1.00
H698   H     0.84341   0.40114   0.42913   0.00000  Uiso   1.00
H699   H     0.60715   0.60735   0.62258   0.00000  Uiso   1.00
H700   H     0.92362   0.34668   0.46227   0.00000  Uiso   1.00
H701   H     0.53256   0.34727   0.58913   0.00000  Uiso   1.00
H702   H     0.69789   0.66529   0.39042   0.00000  Uiso   1.00
N703   N     0.73745   0.48547   0.34617   0.00000  Uiso   1.00
N704   N     0.76256   0.51453   0.65383   0.00000  Uiso   1.00
O705   O     0.75326   0.42871   0.53992   0.00000  Uiso   1.00
O706   O     0.65906   0.60449   0.57130   0.00000  Uiso   1.00
O707   O     0.96938   0.64867   0.40675   0.00000  Uiso   1.00
O708   O     0.57305   0.65844   0.52204   0.00000  Uiso   1.00
O709   O     0.67376   0.62445   0.44714   0.00000  Uiso   1.00
O710   O     0.82676   0.37525   0.55115   0.00000  Uiso   1.00
O711   O     0.69638   0.47467   0.65131   0.00000  Uiso   1.00
O712   O     0.80334   0.52637   0.34925   0.00000  Uiso   1.00
O713   O     0.74675   0.57129   0.46008   0.00000  Uiso   1.00
O714   O     0.74480   0.41892   0.43612   0.00000  Uiso   1.00
O715   O     0.75520   0.58108   0.56388   0.00000  Uiso   1.00
O716   O     0.68936   0.50488   0.55191   0.00000  Uiso   1.00
O717   O     0.81065   0.49512   0.44809   0.00000  Uiso   1.00
O718   O     0.68090   0.49510   0.44810   0.00000  Uiso   1.00
O719   O     0.81910   0.50490   0.55190   0.00000  Uiso   1.00
O720   O     0.88838   0.39693   0.36683   0.00000  Uiso   1.00
C721   C     0.24774   0.73356   0.48498   0.00000  Uiso   1.00
C722   C     0.09158   0.79226   0.47135   0.00000  Uiso   1.00
C723   C     0.38337   0.83109   0.49643   0.00000  Uiso   1.00
C724   C     0.11659   0.83645   0.50330   0.00000  Uiso   1.00
C725   C     0.40406   0.78733   0.46321   0.00000  Uiso   1.00
C726   C     0.09559   0.88095   0.53474   0.00000  Uiso   1.00
C727   C     0.45141   0.78576   0.46953   0.00000  Uiso   1.00
C728   C     0.04831   0.88227   0.52730   0.00000  Uiso   1.00
C729   C     0.47641   0.83278   0.49808   0.00000  Uiso   1.00
C730   C     0.02339   0.83514   0.49915   0.00000  Uiso   1.00
C731   C     0.45448   0.87750   0.52626   0.00000  Uiso   1.00
C732   C     0.25246   0.93310   0.51496   0.00000  Uiso   1.00
C733   C     0.04538   0.79033   0.47173   0.00000  Uiso   1.00
C734   C     0.47489   0.73951   0.44912   0.00000  Uiso   1.00
C735   C     0.02466   0.92850   0.54707   0.00000  Uiso   1.00
C736   C     0.37604   0.74733   0.41802   0.00000  Uiso   1.00
C737   C     0.12181   0.92249   0.58050   0.00000  Uiso   1.00
C738   C     0.45339   0.68627   0.43921   0.00000  Uiso   1.00
C739   C     0.04484   0.98209   0.55557   0.00000  Uiso   1.00
C740   C     0.20192   0.98761   0.43434   0.00000  Uiso   1.00
C741   C     0.29877   0.67893   0.56467   0.00000  Uiso   1.00
C742   C     0.18433   0.75590   0.65195   0.00000  Uiso   1.00
C743   C     0.02132   0.74329   0.44703   0.00000  Uiso   1.00
C744   C     0.14214   0.73921   0.61039   0.00000  Uiso   1.00
C745   C     0.31421   0.91220   0.34904   0.00000  Uiso   1.00
C746   C     0.35249   0.93202   0.39686   0.00000  Uiso   1.00
C747   C     0.47847   0.92469   0.55023   0.00000  Uiso   1.00
C748   C     0.23957   0.67861   0.47940   0.00000  Uiso   1.00
C749   C     0.26071   0.98802   0.52033   0.00000  Uiso   1.00
C750   C     0.16470   0.83463   0.50131   0.00000  Uiso   1.00
C751   C     0.33529   0.83239   0.49872   0.00000  Uiso   1.00
C752   C     0.40841   0.87528   0.52811   0.00000  Uiso   1.00
Cu753  Cu    0.25501   0.83913   0.56146   0.00000  Uiso   1.00
Cu754  Cu    0.24500   0.82754   0.43854   0.00000  Uiso   1.00
H755   H     0.39153   0.90915   0.55156   0.00000  Uiso   1.00
H756   H     0.30328   0.66796   0.60857   0.00000  Uiso   1.00
H757   H     0.17688   0.75204   0.36525   0.00000  Uiso   1.00
H758   H     0.21115   0.72906   0.63509   0.00000  Uiso   1.00
H759   H     0.14944   0.73607   0.56173   0.00000  Uiso   1.00
H760   H     0.12937   0.70073   0.61651   0.00000  Uiso   1.00
H761   H     0.11598   0.76800   0.62248   0.00000  Uiso   1.00
H762   H     0.28545   0.93763   0.36053   0.00000  Uiso   1.00
H763   H     0.32541   0.91564   0.63711   0.00000  Uiso   1.00
H764   H     0.38154   0.90694   0.38783   0.00000  Uiso   1.00
H765   H     0.36263   0.97241   0.39465   0.00000  Uiso   1.00
H766   H     0.10853   0.75816   0.44865   0.00000  Uiso   1.00
H767   H     0.34179   0.93207   0.44346   0.00000  Uiso   1.00
H768   H     0.03927   0.70846   0.42975   0.00000  Uiso   1.00
H769   H     0.46066   0.95969   0.56743   0.00000  Uiso   1.00
H770   H     0.34341   0.73448   0.42913   0.00000  Uiso   1.00
H771   H     0.10715   0.94068   0.62258   0.00000  Uiso   1.00
H772   H     0.42362   0.68002   0.46227   0.00000  Uiso   1.00
H773   H     0.03256   0.68060   0.58913   0.00000  Uiso   1.00
H774   H     0.19789   0.99863   0.39042   0.00000  Uiso   1.00
N775   N     0.23745   0.81881   0.34617   0.00000  Uiso   1.00
N776   N     0.26256   0.84786   0.65383   0.00000  Uiso   1.00
O777   O     0.25326   0.76204   0.53992   0.00000  Uiso   1.00
O778   O     0.15906   0.93782   0.57130   0.00000  Uiso   1.00
O779   O     0.46938   0.98201   0.40675   0.00000  Uiso   1.00
O780   O     0.07305   0.99177   0.52204   0.00000  Uiso   1.00
O781   O     0.17376   0.95778   0.44714   0.00000  Uiso   1.00
O782   O     0.32676   0.70859   0.55115   0.00000  Uiso   1.00
O783   O     0.19638   0.80801   0.65131   0.00000  Uiso   1.00
O784   O     0.30334   0.85970   0.34925   0.00000  Uiso   1.00
O785   O     0.24675   0.90462   0.46008   0.00000  Uiso   1.00
O786   O     0.24480   0.75226   0.43612   0.00000  Uiso   1.00
O787   O     0.25520   0.91441   0.56388   0.00000  Uiso   1.00
O788   O     0.18936   0.83821   0.55191   0.00000  Uiso   1.00
O789   O     0.31065   0.82845   0.44809   0.00000  Uiso   1.00
O790   O     0.18090   0.82843   0.44810   0.00000  Uiso   1.00
O791   O     0.31910   0.83824   0.55190   0.00000  Uiso   1.00
O792   O     0.38838   0.73026   0.36683   0.00000  Uiso   1.00
C793   C     0.74774   0.73356   0.48498   0.00000  Uiso   1.00
C794   C     0.59158   0.79226   0.47135   0.00000  Uiso   1.00
C795   C     0.88337   0.83109   0.49643   0.00000  Uiso   1.00
C796   C     0.61659   0.83645   0.50330   0.00000  Uiso   1.00
C797   C     0.90406   0.78733   0.46321   0.00000  Uiso   1.00
C798   C     0.59559   0.88095   0.53474   0.00000  Uiso   1.00
C799   C     0.95141   0.78576   0.46953   0.00000  Uiso   1.00
C800   C     0.54831   0.88227   0.52730   0.00000  Uiso   1.00
C801   C     0.97641   0.83278   0.49808   0.00000  Uiso   1.00
C802   C     0.52339   0.83514   0.49915   0.00000  Uiso   1.00
C803   C     0.95448   0.87750   0.52626   0.00000  Uiso   1.00
C804   C     0.75246   0.93310   0.51496   0.00000  Uiso   1.00
C805   C     0.54538   0.79033   0.47173   0.00000  Uiso   1.00
C806   C     0.97489   0.73951   0.44912   0.00000  Uiso   1.00
C807   C     0.52466   0.92850   0.54707   0.00000  Uiso   1.00
C808   C     0.87604   0.74733   0.41802   0.00000  Uiso   1.00
C809   C     0.62181   0.92249   0.58050   0.00000  Uiso   1.00
C810   C     0.95339   0.68627   0.43921   0.00000  Uiso   1.00
C811   C     0.54484   0.98209   0.55557   0.00000  Uiso   1.00
C812   C     0.70192   0.98761   0.43434   0.00000  Uiso   1.00
C813   C     0.79877   0.67893   0.56467   0.00000  Uiso   1.00
C814   C     0.68433   0.75590   0.65195   0.00000  Uiso   1.00
C815   C     0.52132   0.74329   0.44703   0.00000  Uiso   1.00
C816   C     0.64214   0.73921   0.61039   0.00000  Uiso   1.00
C817   C     0.81421   0.91220   0.34904   0.00000  Uiso   1.00
C818   C     0.85249   0.93202   0.39686   0.00000  Uiso   1.00
C819   C     0.97847   0.92469   0.55023   0.00000  Uiso   1.00
C820   C     0.73957   0.67861   0.47940   0.00000  Uiso   1.00
C821   C     0.76071   0.98802   0.52033   0.00000  Uiso   1.00
C822   C     0.66470   0.83463   0.50131   0.00000  Uiso   1.00
C823   C     0.83529   0.83239   0.49872   0.00000  Uiso   1.00
C824   C     0.90841   0.87528   0.52811   0.00000  Uiso   1.00
Cu825  Cu    0.75501   0.83913   0.56146   0.00000  Uiso   1.00
Cu826  Cu    0.74500   0.82754   0.43854   0.00000  Uiso   1.00
H827   H     0.89153   0.90915   0.55156   0.00000  Uiso   1.00
H828   H     0.80328   0.66796   0.60857   0.00000  Uiso   1.00
H829   H     0.67688   0.75204   0.36525   0.00000  Uiso   1.00
H830   H     0.71115   0.72906   0.63509   0.00000  Uiso   1.00
H831   H     0.64944   0.73607   0.56173   0.00000  Uiso   1.00
H832   H     0.62937   0.70073   0.61651   0.00000  Uiso   1.00
H833   H     0.61598   0.76800   0.62248   0.00000  Uiso   1.00
H834   H     0.78545   0.93763   0.36053   0.00000  Uiso   1.00
H835   H     0.82541   0.91564   0.63711   0.00000  Uiso   1.00
H836   H     0.88154   0.90694   0.38783   0.00000  Uiso   1.00
H837   H     0.86263   0.97241   0.39465   0.00000  Uiso   1.00
H838   H     0.60853   0.75816   0.44865   0.00000  Uiso   1.00
H839   H     0.84179   0.93207   0.44346   0.00000  Uiso   1.00
H840   H     0.53927   0.70846   0.42975   0.00000  Uiso   1.00
H841   H     0.96066   0.95969   0.56743   0.00000  Uiso   1.00
H842   H     0.84341   0.73448   0.42913   0.00000  Uiso   1.00
H843   H     0.60715   0.94068   0.62258   0.00000  Uiso   1.00
H844   H     0.92362   0.68002   0.46227   0.00000  Uiso   1.00
H845   H     0.53256   0.68060   0.58913   0.00000  Uiso   1.00
H846   H     0.69789   0.99863   0.39042   0.00000  Uiso   1.00
N847   N     0.73745   0.81881   0.34617   0.00000  Uiso   1.00
N848   N     0.76256   0.84786   0.65383   0.00000  Uiso   1.00
O849   O     0.75326   0.76204   0.53992   0.00000  Uiso   1.00
O850   O     0.65906   0.93782   0.57130   0.00000  Uiso   1.00
O851   O     0.96938   0.98201   0.40675   0.00000  Uiso   1.00
O852   O     0.57305   0.99177   0.52204   0.00000  Uiso   1.00
O853   O     0.67376   0.95778   0.44714   0.00000  Uiso   1.00
O854   O     0.82676   0.70859   0.55115   0.00000  Uiso   1.00
O855   O     0.69638   0.80801   0.65131   0.00000  Uiso   1.00
O856   O     0.80334   0.85970   0.34925   0.00000  Uiso   1.00
O857   O     0.74675   0.90462   0.46008   0.00000  Uiso   1.00
O858   O     0.74480   0.75226   0.43612   0.00000  Uiso   1.00
O859   O     0.75520   0.91441   0.56388   0.00000  Uiso   1.00
O860   O     0.68936   0.83821   0.55191   0.00000  Uiso   1.00
O861   O     0.81065   0.82845   0.44809   0.00000  Uiso   1.00
O862   O     0.68090   0.82843   0.44810   0.00000  Uiso   1.00
O863   O     0.81910   0.83824   0.55190   0.00000  Uiso   1.00
O864   O     0.88838   0.73026   0.36683   0.00000  Uiso   1.00
C865   C     0.24774   0.06689   0.81831   0.00000  Uiso   1.00
C866   C     0.09158   0.12559   0.80468   0.00000  Uiso   1.00
C867   C     0.38337   0.16443   0.82976   0.00000  Uiso   1.00
C868   C     0.11659   0.16978   0.83663   0.00000  Uiso   1.00
C869   C     0.40406   0.12066   0.79654   0.00000  Uiso   1.00
C870   C     0.09559   0.21428   0.86807   0.00000  Uiso   1.00
C871   C     0.45141   0.11910   0.80286   0.00000  Uiso   1.00
C872   C     0.04831   0.21560   0.86064   0.00000  Uiso   1.00
C873   C     0.47641   0.16611   0.83141   0.00000  Uiso   1.00
C874   C     0.02339   0.16847   0.83249   0.00000  Uiso   1.00
C875   C     0.45448   0.21083   0.85959   0.00000  Uiso   1.00
C876   C     0.25246   0.26643   0.84829   0.00000  Uiso   1.00
C877   C     0.04538   0.12366   0.80506   0.00000  Uiso   1.00
C878   C     0.47489   0.07285   0.78245   0.00000  Uiso   1.00
C879   C     0.02466   0.26184   0.88041   0.00000  Uiso   1.00
C880   C     0.37604   0.08066   0.75135   0.00000  Uiso   1.00
C881   C     0.12181   0.25582   0.91383   0.00000  Uiso   1.00
C882   C     0.45339   0.01960   0.77254   0.00000  Uiso   1.00
C883   C     0.04484   0.31542   0.88890   0.00000  Uiso   1.00
C884   C     0.20192   0.32094   0.76767   0.00000  Uiso   1.00
C885   C     0.29877   0.01226   0.89800   0.00000  Uiso   1.00
C886   C     0.18433   0.08924   0.98528   0.00000  Uiso   1.00
C887   C     0.02132   0.07662   0.78036   0.00000  Uiso   1.00
C888   C     0.14214   0.07254   0.94372   0.00000  Uiso   1.00
C889   C     0.31421   0.24553   0.68238   0.00000  Uiso   1.00
C890   C     0.35249   0.26535   0.73019   0.00000  Uiso   1.00
C891   C     0.47847   0.25803   0.88357   0.00000  Uiso   1.00
C892   C     0.23957   0.01194   0.81273   0.00000  Uiso   1.00
C893   C     0.26071   0.32135   0.85367   0.00000  Uiso   1.00
C894   C     0.16470   0.16797   0.83464   0.00000  Uiso   1.00
C895   C     0.33529   0.16572   0.83205   0.00000  Uiso   1.00
C896   C     0.40841   0.20861   0.86144   0.00000  Uiso   1.00
Cu897  Cu    0.25501   0.17246   0.89479   0.00000  Uiso   1.00
Cu898  Cu    0.24500   0.16087   0.77187   0.00000  Uiso   1.00
H899   H     0.39153   0.24248   0.88489   0.00000  Uiso   1.00
H900   H     0.30328   0.00130   0.94190   0.00000  Uiso   1.00
H901   H     0.17688   0.08537   0.69858   0.00000  Uiso   1.00
H902   H     0.21115   0.06239   0.96842   0.00000  Uiso   1.00
H903   H     0.14944   0.06940   0.89506   0.00000  Uiso   1.00
H904   H     0.12937   0.03407   0.94984   0.00000  Uiso   1.00
H905   H     0.11598   0.10133   0.95581   0.00000  Uiso   1.00
H906   H     0.28545   0.27096   0.69386   0.00000  Uiso   1.00
H907   H     0.32541   0.24897   0.97045   0.00000  Uiso   1.00
H908   H     0.38154   0.24027   0.72116   0.00000  Uiso   1.00
H909   H     0.36263   0.30574   0.72799   0.00000  Uiso   1.00
H910   H     0.10853   0.09149   0.78198   0.00000  Uiso   1.00
H911   H     0.34179   0.26540   0.77679   0.00000  Uiso   1.00
H912   H     0.03927   0.04180   0.76308   0.00000  Uiso   1.00
H913   H     0.46066   0.29302   0.90077   0.00000  Uiso   1.00
H914   H     0.34341   0.06781   0.76246   0.00000  Uiso   1.00
H915   H     0.10715   0.27402   0.95591   0.00000  Uiso   1.00
H916   H     0.42362   0.01335   0.79560   0.00000  Uiso   1.00
H917   H     0.03256   0.01394   0.92246   0.00000  Uiso   1.00
H918   H     0.19789   0.33196   0.72375   0.00000  Uiso   1.00
N919   N     0.23745   0.15214   0.67951   0.00000  Uiso   1.00
N920   N     0.26256   0.18119   0.98716   0.00000  Uiso   1.00
O921   O     0.25326   0.09538   0.87326   0.00000  Uiso   1.00
O922   O     0.15906   0.27115   0.90463   0.00000  Uiso   1.00
O923   O     0.46938   0.31534   0.74009   0.00000  Uiso   1.00
O924   O     0.07305   0.32510   0.85537   0.00000  Uiso   1.00
O925   O     0.17376   0.29112   0.78048   0.00000  Uiso   1.00
O926   O     0.32676   0.04192   0.88448   0.00000  Uiso   1.00
O927   O     0.19638   0.14134   0.98465   0.00000  Uiso   1.00
O928   O     0.30334   0.19304   0.68258   0.00000  Uiso   1.00
O929   O     0.24675   0.23796   0.79341   0.00000  Uiso   1.00
O930   O     0.24480   0.08559   0.76945   0.00000  Uiso   1.00
O931   O     0.25520   0.24774   0.89721   0.00000  Uiso   1.00
O932   O     0.18936   0.17155   0.88524   0.00000  Uiso   1.00
O933   O     0.31065   0.16179   0.78143   0.00000  Uiso   1.00
O934   O     0.18090   0.16176   0.78143   0.00000  Uiso   1.00
O935   O     0.31910   0.17157   0.88523   0.00000  Uiso   1.00
O936   O     0.38838   0.06360   0.70016   0.00000  Uiso   1.00
C937   C     0.74774   0.06689   0.81831   0.00000  Uiso   1.00
C938   C     0.59158   0.12559   0.80468   0.00000  Uiso   1.00
C939   C     0.88337   0.16443   0.82976   0.00000  Uiso   1.00
C940   C     0.61659   0.16978   0.83663   0.00000  Uiso   1.00
C941   C     0.90406   0.12066   0.79654   0.00000  Uiso   1.00
C942   C     0.59559   0.21428   0.86807   0.00000  Uiso   1.00
C943   C     0.95141   0.11910   0.80286   0.00000  Uiso   1.00
C944   C     0.54831   0.21560   0.86064   0.00000  Uiso   1.00
C945   C     0.97641   0.16611   0.83141   0.00000  Uiso   1.00
C946   C     0.52339   0.16847   0.83249   0.00000  Uiso   1.00
C947   C     0.95448   0.21083   0.85959   0.00000  Uiso   1.00
C948   C     0.75246   0.26643   0.84829   0.00000  Uiso   1.00
C949   C     0.54538   0.12366   0.80506   0.00000  Uiso   1.00
C950   C     0.97489   0.07285   0.78245   0.00000  Uiso   1.00
C951   C     0.52466   0.26184   0.88041   0.00000  Uiso   1.00
C952   C     0.87604   0.08066   0.75135   0.00000  Uiso   1.00
C953   C     0.62181   0.25582   0.91383   0.00000  Uiso   1.00
C954   C     0.95339   0.01960   0.77254   0.00000  Uiso   1.00
C955   C     0.54484   0.31542   0.88890   0.00000  Uiso   1.00
C956   C     0.70192   0.32094   0.76767   0.00000  Uiso   1.00
C957   C     0.79877   0.01226   0.89800   0.00000  Uiso   1.00
C958   C     0.68433   0.08924   0.98528   0.00000  Uiso   1.00
C959   C     0.52132   0.07662   0.78036   0.00000  Uiso   1.00
C960   C     0.64214   0.07254   0.94372   0.00000  Uiso   1.00
C961   C     0.81421   0.24553   0.68238   0.00000  Uiso   1.00
C962   C     0.85249   0.26535   0.73019   0.00000  Uiso   1.00
C963   C     0.97847   0.25803   0.88357   0.00000  Uiso   1.00
C964   C     0.73957   0.01194   0.81273   0.00000  Uiso   1.00
C965   C     0.76071   0.32135   0.85367   0.00000  Uiso   1.00
C966   C     0.66470   0.16797   0.83464   0.00000  Uiso   1.00
C967   C     0.83529   0.16572   0.83205   0.00000  Uiso   1.00
C968   C     0.90841   0.20861   0.86144   0.00000  Uiso   1.00
Cu969  Cu    0.75501   0.17246   0.89479   0.00000  Uiso   1.00
Cu970  Cu    0.74500   0.16087   0.77187   0.00000  Uiso   1.00
H971   H     0.89153   0.24248   0.88489   0.00000  Uiso   1.00
H972   H     0.80328   0.00130   0.94190   0.00000  Uiso   1.00
H973   H     0.67688   0.08537   0.69858   0.00000  Uiso   1.00
H974   H     0.71115   0.06239   0.96842   0.00000  Uiso   1.00
H975   H     0.64944   0.06940   0.89506   0.00000  Uiso   1.00
H976   H     0.62937   0.03407   0.94984   0.00000  Uiso   1.00
H977   H     0.61598   0.10133   0.95581   0.00000  Uiso   1.00
H978   H     0.78545   0.27096   0.69386   0.00000  Uiso   1.00
H979   H     0.82541   0.24897   0.97045   0.00000  Uiso   1.00
H980   H     0.88154   0.24027   0.72116   0.00000  Uiso   1.00
H981   H     0.86263   0.30574   0.72799   0.00000  Uiso   1.00
H982   H     0.60853   0.09149   0.78198   0.00000  Uiso   1.00
H983   H     0.84179   0.26540   0.77679   0.00000  Uiso   1.00
H984   H     0.53927   0.04180   0.76308   0.00000  Uiso   1.00
H985   H     0.96066   0.29302   0.90077   0.00000  Uiso   1.00
H986   H     0.84341   0.06781   0.76246   0.00000  Uiso   1.00
H987   H     0.60715   0.27402   0.95591   0.00000  Uiso   1.00
H988   H     0.92362   0.01335   0.79560   0.00000  Uiso   1.00
H989   H     0.53256   0.01394   0.92246   0.00000  Uiso   1.00
H990   H     0.69789   0.33196   0.72375   0.00000  Uiso   1.00
N991   N     0.73745   0.15214   0.67951   0.00000  Uiso   1.00
N992   N     0.76256   0.18119   0.98716   0.00000  Uiso   1.00
O993   O     0.75326   0.09538   0.87326   0.00000  Uiso   1.00
O994   O     0.65906   0.27115   0.90463   0.00000  Uiso   1.00
O995   O     0.96938   0.31534   0.74009   0.00000  Uiso   1.00
O996   O     0.57305   0.32510   0.85537   0.00000  Uiso   1.00
O997   O     0.67376   0.29112   0.78048   0.00000  Uiso   1.00
O998   O     0.82676   0.04192   0.88448   0.00000  Uiso   1.00
O999   O     0.69638   0.14134   0.98465   0.00000  Uiso   1.00
O1000  O     0.80334   0.19304   0.68258   0.00000  Uiso   1.00
O1001  O     0.74675   0.23796   0.79341   0.00000  Uiso   1.00
O1002  O     0.74480   0.08559   0.76945   0.00000  Uiso   1.00
O1003  O     0.75520   0.24774   0.89721   0.00000  Uiso   1.00
O1004  O     0.68936   0.17155   0.88524   0.00000  Uiso   1.00
O1005  O     0.81065   0.16179   0.78143   0.00000  Uiso   1.00
O1006  O     0.68090   0.16176   0.78143   0.00000  Uiso   1.00
O1007  O     0.81910   0.17157   0.88523   0.00000  Uiso   1.00
O1008  O     0.88838   0.06360   0.70016   0.00000  Uiso   1.00
C1009  C     0.24774   0.40023   0.81831   0.00000  Uiso   1.00
C1010  C     0.09158   0.45892   0.80468   0.00000  Uiso   1.00
C1011  C     0.38337   0.49776   0.82976   0.00000  Uiso   1.00
C1012  C     0.11659   0.50312   0.83663   0.00000  Uiso   1.00
C1013  C     0.40406   0.45400   0.79654   0.00000  Uiso   1.00
C1014  C     0.09559   0.54762   0.86807   0.00000  Uiso   1.00
C1015  C     0.45141   0.45243   0.80286   0.00000  Uiso   1.00
C1016  C     0.04831   0.54894   0.86064   0.00000  Uiso   1.00
C1017  C     0.47641   0.49945   0.83141   0.00000  Uiso   1.00
C1018  C     0.02339   0.50181   0.83249   0.00000  Uiso   1.00
C1019  C     0.45448   0.54416   0.85959   0.00000  Uiso   1.00
C1020  C     0.25246   0.59976   0.84829   0.00000  Uiso   1.00
C1021  C     0.04538   0.45699   0.80506   0.00000  Uiso   1.00
C1022  C     0.47489   0.40618   0.78245   0.00000  Uiso   1.00
C1023  C     0.02466   0.59517   0.88041   0.00000  Uiso   1.00
C1024  C     0.37604   0.41399   0.75135   0.00000  Uiso   1.00
C1025  C     0.12181   0.58916   0.91383   0.00000  Uiso   1.00
C1026  C     0.45339   0.35294   0.77254   0.00000  Uiso   1.00
C1027  C     0.04484   0.64876   0.88890   0.00000  Uiso   1.00
C1028  C     0.20192   0.65428   0.76767   0.00000  Uiso   1.00
C1029  C     0.29877   0.34560   0.89800   0.00000  Uiso   1.00
C1030  C     0.18433   0.42257   0.98528   0.00000  Uiso   1.00
C1031  C     0.02132   0.40995   0.78036   0.00000  Uiso   1.00
C1032  C     0.14214   0.40587   0.94372   0.00000  Uiso   1.00
C1033  C     0.31421   0.57886   0.68238   0.00000  Uiso   1.00
C1034  C     0.35249   0.59869   0.73019   0.00000  Uiso   1.00
C1035  C     0.47847   0.59136   0.88357   0.00000  Uiso   1.00
C1036  C     0.23957   0.34527   0.81273   0.00000  Uiso   1.00
C1037  C     0.26071   0.65469   0.85367   0.00000  Uiso   1.00
C1038  C     0.16470   0.50130   0.83464   0.00000  Uiso   1.00
C1039  C     0.33529   0.49905   0.83205   0.00000  Uiso   1.00
C1040  C     0.40841   0.54194   0.86144   0.00000  Uiso   1.00
Cu1041 Cu    0.25501   0.50579   0.89479   0.00000  Uiso   1.00
Cu1042 Cu    0.24500   0.49421   0.77187   0.00000  Uiso   1.00
H1043  H     0.39153   0.57582   0.88489   0.00000  Uiso   1.00
H1044  H     0.30328   0.33463   0.94190   0.00000  Uiso   1.00
H1045  H     0.17688   0.41871   0.69858   0.00000  Uiso   1.00
H1046  H     0.21115   0.39573   0.96842   0.00000  Uiso   1.00
H1047  H     0.14944   0.40273   0.89506   0.00000  Uiso   1.00
H1048  H     0.12937   0.36740   0.94984   0.00000  Uiso   1.00
H1049  H     0.11598   0.43466   0.95581   0.00000  Uiso   1.00
H1050  H     0.28545   0.60429   0.69386   0.00000  Uiso   1.00
H1051  H     0.32541   0.58230   0.97045   0.00000  Uiso   1.00
H1052  H     0.38154   0.57361   0.72116   0.00000  Uiso   1.00
H1053  H     0.36263   0.63908   0.72799   0.00000  Uiso   1.00
H1054  H     0.10853   0.42483   0.78198   0.00000  Uiso   1.00
H1055  H     0.34179   0.59873   0.77679   0.00000  Uiso   1.00
H1056  H     0.03927   0.37513   0.76308   0.00000  Uiso   1.00
H1057  H     0.46066   0.62636   0.90077   0.00000  Uiso   1.00
H1058  H     0.34341   0.40114   0.76246   0.00000  Uiso   1.00
H1059  H     0.10715   0.60735   0.95591   0.00000  Uiso   1.00
H1060  H     0.42362   0.34668   0.79560   0.00000  Uiso   1.00
H1061  H     0.03256   0.34727   0.92246   0.00000  Uiso   1.00
H1062  H     0.19789   0.66529   0.72375   0.00000  Uiso   1.00
N1063  N     0.23745   0.48547   0.67951   0.00000  Uiso   1.00
N1064  N     0.26256   0.51453   0.98716   0.00000  Uiso   1.00
O1065  O     0.25326   0.42871   0.87326   0.00000  Uiso   1.00
O1066  O     0.15906   0.60449   0.90463   0.00000  Uiso   1.00
O1067  O     0.46938   0.64867   0.74009   0.00000  Uiso   1.00
O1068  O     0.07305   0.65844   0.85537   0.00000  Uiso   1.00
O1069  O     0.17376   0.62445   0.78048   0.00000  Uiso   1.00
O1070  O     0.32676   0.37525   0.88448   0.00000  Uiso   1.00
O1071  O     0.19638   0.47467   0.98465   0.00000  Uiso   1.00
O1072  O     0.30334   0.52637   0.68258   0.00000  Uiso   1.00
O1073  O     0.24675   0.57129   0.79341   0.00000  Uiso   1.00
O1074  O     0.24480   0.41892   0.76945   0.00000  Uiso   1.00
O1075  O     0.25520   0.58108   0.89721   0.00000  Uiso   1.00
O1076  O     0.18936   0.50488   0.88524   0.00000  Uiso   1.00
O1077  O     0.31065   0.49512   0.78143   0.00000  Uiso   1.00
O1078  O     0.18090   0.49510   0.78143   0.00000  Uiso   1.00
O1079  O     0.31910   0.50490   0.88523   0.00000  Uiso   1.00
O1080  O     0.38838   0.39693   0.70016   0.00000  Uiso   1.00
C1081  C     0.74774   0.40023   0.81831   0.00000  Uiso   1.00
C1082  C     0.59158   0.45892   0.80468   0.00000  Uiso   1.00
C1083  C     0.88337   0.49776   0.82976   0.00000  Uiso   1.00
C1084  C     0.61659   0.50312   0.83663   0.00000  Uiso   1.00
C1085  C     0.90406   0.45400   0.79654   0.00000  Uiso   1.00
C1086  C     0.59559   0.54762   0.86807   0.00000  Uiso   1.00
C1087  C     0.95141   0.45243   0.80286   0.00000  Uiso   1.00
C1088  C     0.54831   0.54894   0.86064   0.00000  Uiso   1.00
C1089  C     0.97641   0.49945   0.83141   0.00000  Uiso   1.00
C1090  C     0.52339   0.50181   0.83249   0.00000  Uiso   1.00
C1091  C     0.95448   0.54416   0.85959   0.00000  Uiso   1.00
C1092  C     0.75246   0.59976   0.84829   0.00000  Uiso   1.00
C1093  C     0.54538   0.45699   0.80506   0.00000  Uiso   1.00
C1094  C     0.97489   0.40618   0.78245   0.00000  Uiso   1.00
C1095  C     0.52466   0.59517   0.88041   0.00000  Uiso   1.00
C1096  C     0.87604   0.41399   0.75135   0.00000  Uiso   1.00
C1097  C     0.62181   0.58916   0.91383   0.00000  Uiso   1.00
C1098  C     0.95339   0.35294   0.77254   0.00000  Uiso   1.00
C1099  C     0.54484   0.64876   0.88890   0.00000  Uiso   1.00
C1100  C     0.70192   0.65428   0.76767   0.00000  Uiso   1.00
C1101  C     0.79877   0.34560   0.89800   0.00000  Uiso   1.00
C1102  C     0.68433   0.42257   0.98528   0.00000  Uiso   1.00
C1103  C     0.52132   0.40995   0.78036   0.00000  Uiso   1.00
C1104  C     0.64214   0.40587   0.94372   0.00000  Uiso   1.00
C1105  C     0.81421   0.57886   0.68238   0.00000  Uiso   1.00
C1106  C     0.85249   0.59869   0.73019   0.00000  Uiso   1.00
C1107  C     0.97847   0.59136   0.88357   0.00000  Uiso   1.00
C1108  C     0.73957   0.34527   0.81273   0.00000  Uiso   1.00
C1109  C     0.76071   0.65469   0.85367   0.00000  Uiso   1.00
C1110  C     0.66470   0.50130   0.83464   0.00000  Uiso   1.00
C1111  C     0.83529   0.49905   0.83205   0.00000  Uiso   1.00
C1112  C     0.90841   0.54194   0.86144   0.00000  Uiso   1.00
Cu1113 Cu    0.75501   0.50579   0.89479   0.00000  Uiso   1.00
Cu1114 Cu    0.74500   0.49421   0.77187   0.00000  Uiso   1.00
H1115  H     0.89153   0.57582   0.88489   0.00000  Uiso   1.00
H1116  H     0.80328   0.33463   0.94190   0.00000  Uiso   1.00
H1117  H     0.67688   0.41871   0.69858   0.00000  Uiso   1.00
H1118  H     0.71115   0.39573   0.96842   0.00000  Uiso   1.00
H1119  H     0.64944   0.40273   0.89506   0.00000  Uiso   1.00
H1120  H     0.62937   0.36740   0.94984   0.00000  Uiso   1.00
H1121  H     0.61598   0.43466   0.95581   0.00000  Uiso   1.00
H1122  H     0.78545   0.60429   0.69386   0.00000  Uiso   1.00
H1123  H     0.82541   0.58230   0.97045   0.00000  Uiso   1.00
H1124  H     0.88154   0.57361   0.72116   0.00000  Uiso   1.00
H1125  H     0.86263   0.63908   0.72799   0.00000  Uiso   1.00
H1126  H     0.60853   0.42483   0.78198   0.00000  Uiso   1.00
H1127  H     0.84179   0.59873   0.77679   0.00000  Uiso   1.00
H1128  H     0.53927   0.37513   0.76308   0.00000  Uiso   1.00
H1129  H     0.96066   0.62636   0.90077   0.00000  Uiso   1.00
H1130  H     0.84341   0.40114   0.76246   0.00000  Uiso   1.00
H1131  H     0.60715   0.60735   0.95591   0.00000  Uiso   1.00
H1132  H     0.92362   0.34668   0.79560   0.00000  Uiso   1.00
H1133  H     0.53256   0.34727   0.92246   0.00000  Uiso   1.00
H1134  H     0.69789   0.66529   0.72375   0.00000  Uiso   1.00
N1135  N     0.73745   0.48547   0.67951   0.00000  Uiso   1.00
N1136  N     0.76256   0.51453   0.98716   0.00000  Uiso   1.00
O1137  O     0.75326   0.42871   0.87326   0.00000  Uiso   1.00
O1138  O     0.65906   0.60449   0.90463   0.00000  Uiso   1.00
O1139  O     0.96938   0.64867   0.74009   0.00000  Uiso   1.00
O1140  O     0.57305   0.65844   0.85537   0.00000  Uiso   1.00
O1141  O     0.67376   0.62445   0.78048   0.00000  Uiso   1.00
O1142  O     0.82676   0.37525   0.88448   0.00000  Uiso   1.00
O1143  O     0.69638   0.47467   0.98465   0.00000  Uiso   1.00
O1144  O     0.80334   0.52637   0.68258   0.00000  Uiso   1.00
O1145  O     0.74675   0.57129   0.79341   0.00000  Uiso   1.00
O1146  O     0.74480   0.41892   0.76945   0.00000  Uiso   1.00
O1147  O     0.75520   0.58108   0.89721   0.00000  Uiso   1.00
O1148  O     0.68936   0.50488   0.88524   0.00000  Uiso   1.00
O1149  O     0.81065   0.49512   0.78143   0.00000  Uiso   1.00
O1150  O     0.68090   0.49510   0.78143   0.00000  Uiso   1.00
O1151  O     0.81910   0.50490   0.88523   0.00000  Uiso   1.00
O1152  O     0.88838   0.39693   0.70016   0.00000  Uiso   1.00
C1153  C     0.24774   0.73356   0.81831   0.00000  Uiso   1.00
C1154  C     0.09158   0.79226   0.80468   0.00000  Uiso   1.00
C1155  C     0.38337   0.83109   0.82976   0.00000  Uiso   1.00
C1156  C     0.11659   0.83645   0.83663   0.00000  Uiso   1.00
C1157  C     0.40406   0.78733   0.79654   0.00000  Uiso   1.00
C1158  C     0.09559   0.88095   0.86807   0.00000  Uiso   1.00
C1159  C     0.45141   0.78576   0.80286   0.00000  Uiso   1.00
C1160  C     0.04831   0.88227   0.86064   0.00000  Uiso   1.00
C1161  C     0.47641   0.83278   0.83141   0.00000  Uiso   1.00
C1162  C     0.02339   0.83514   0.83249   0.00000  Uiso   1.00
C1163  C     0.45448   0.87750   0.85959   0.00000  Uiso   1.00
C1164  C     0.25246   0.93310   0.84829   0.00000  Uiso   1.00
C1165  C     0.04538   0.79033   0.80506   0.00000  Uiso   1.00
C1166  C     0.47489   0.73951   0.78245   0.00000  Uiso   1.00
C1167  C     0.02466   0.92850   0.88041   0.00000  Uiso   1.00
C1168  C     0.37604   0.74733   0.75135   0.00000  Uiso   1.00
C1169  C     0.12181   0.92249   0.91383   0.00000  Uiso   1.00
C1170  C     0.45339   0.68627   0.77254   0.00000  Uiso   1.00
C1171  C     0.04484   0.98209   0.88890   0.00000  Uiso   1.00
C1172  C     0.20192   0.98761   0.76767   0.00000  Uiso   1.00
C1173  C     0.29877   0.67893   0.89800   0.00000  Uiso   1.00
C1174  C     0.18433   0.75590   0.98528   0.00000  Uiso   1.00
C1175  C     0.02132   0.74329   0.78036   0.00000  Uiso   1.00
C1176  C     0.14214   0.73921   0.94372   0.00000  Uiso   1.00
C1177  C     0.31421   0.91220   0.68238   0.00000  Uiso   1.00
C1178  C     0.35249   0.93202   0.73019   0.00000  Uiso   1.00
C1179  C     0.47847   0.92469   0.88357   0.00000  Uiso   1.00
C1180  C     0.23957   0.67861   0.81273   0.00000  Uiso   1.00
C1181  C     0.26071   0.98802   0.85367   0.00000  Uiso   1.00
C1182  C     0.16470   0.83463   0.83464   0.00000  Uiso   1.00
C1183  C     0.33529   0.83239   0.83205   0.00000  Uiso   1.00
C1184  C     0.40841   0.87528   0.86144   0.00000  Uiso   1.00
Cu1185 Cu    0.25501   0.83913   0.89479   0.00000  Uiso   1.00
Cu1186 Cu    0.24500   0.82754   0.77187   0.00000  Uiso   1.00
H1187  H     0.39153   0.90915   0.88489   0.00000  Uiso   1.00
H1188  H     0.30328   0.66796   0.94190   0.00000  Uiso   1.00
H1189  H     0.17688   0.75204   0.69858   0.00000  Uiso   1.00
H1190  H     0.21115   0.72906   0.96842   0.00000  Uiso   1.00
H1191  H     0.14944   0.73607   0.89506   0.00000  Uiso   1.00
H1192  H     0.12937   0.70073   0.94984   0.00000  Uiso   1.00
H1193  H     0.11598   0.76800   0.95581   0.00000  Uiso   1.00
H1194  H     0.28545   0.93763   0.69386   0.00000  Uiso   1.00
H1195  H     0.32541   0.91564   0.97045   0.00000  Uiso   1.00
H1196  H     0.38154   0.90694   0.72116   0.00000  Uiso   1.00
H1197  H     0.36263   0.97241   0.72799   0.00000  Uiso   1.00
H1198  H     0.10853   0.75816   0.78198   0.00000  Uiso   1.00
H1199  H     0.34179   0.93207   0.77679   0.00000  Uiso   1.00
H1200  H     0.03927   0.70846   0.76308   0.00000  Uiso   1.00
H1201  H     0.46066   0.95969   0.90077   0.00000  Uiso   1.00
H1202  H     0.34341   0.73448   0.76246   0.00000  Uiso   1.00
H1203  H     0.10715   0.94068   0.95591   0.00000  Uiso   1.00
H1204  H     0.42362   0.68002   0.79560   0.00000  Uiso   1.00
H1205  H     0.03256   0.68060   0.92246   0.00000  Uiso   1.00
H1206  H     0.19789   0.99863   0.72375   0.00000  Uiso   1.00
N1207  N     0.23745   0.81881   0.67951   0.00000  Uiso   1.00
N1208  N     0.26256   0.84786   0.98716   0.00000  Uiso   1.00
O1209  O     0.25326   0.76204   0.87326   0.00000  Uiso   1.00
O1210  O     0.15906   0.93782   0.90463   0.00000  Uiso   1.00
O1211  O     0.46938   0.98201   0.74009   0.00000  Uiso   1.00
O1212  O     0.07305   0.99177   0.85537   0.00000  Uiso   1.00
O1213  O     0.17376   0.95778   0.78048   0.00000  Uiso   1.00
O1214  O     0.32676   0.70859   0.88448   0.00000  Uiso   1.00
O1215  O     0.19638   0.80801   0.98465   0.00000  Uiso   1.00
O1216  O     0.30334   0.85970   0.68258   0.00000  Uiso   1.00
O1217  O     0.24675   0.90462   0.79341   0.00000  Uiso   1.00
O1218  O     0.24480   0.75226   0.76945   0.00000  Uiso   1.00
O1219  O     0.25520   0.91441   0.89721   0.00000  Uiso   1.00
O1220  O     0.18936   0.83821   0.88524   0.00000  Uiso   1.00
O1221  O     0.31065   0.82845   0.78143   0.00000  Uiso   1.00
O1222  O     0.18090   0.82843   0.78143   0.00000  Uiso   1.00
O1223  O     0.31910   0.83824   0.88523   0.00000  Uiso   1.00
O1224  O     0.38838   0.73026   0.70016   0.00000  Uiso   1.00
C1225  C     0.74774   0.73356   0.81831   0.00000  Uiso   1.00
C1226  C     0.59158   0.79226   0.80468   0.00000  Uiso   1.00
C1227  C     0.88337   0.83109   0.82976   0.00000  Uiso   1.00
C1228  C     0.61659   0.83645   0.83663   0.00000  Uiso   1.00
C1229  C     0.90406   0.78733   0.79654   0.00000  Uiso   1.00
C1230  C     0.59559   0.88095   0.86807   0.00000  Uiso   1.00
C1231  C     0.95141   0.78576   0.80286   0.00000  Uiso   1.00
C1232  C     0.54831   0.88227   0.86064   0.00000  Uiso   1.00
C1233  C     0.97641   0.83278   0.83141   0.00000  Uiso   1.00
C1234  C     0.52339   0.83514   0.83249   0.00000  Uiso   1.00
C1235  C     0.95448   0.87750   0.85959   0.00000  Uiso   1.00
C1236  C     0.75246   0.93310   0.84829   0.00000  Uiso   1.00
C1237  C     0.54538   0.79033   0.80506   0.00000  Uiso   1.00
C1238  C     0.97489   0.73951   0.78245   0.00000  Uiso   1.00
C1239  C     0.52466   0.92850   0.88041   0.00000  Uiso   1.00
C1240  C     0.87604   0.74733   0.75135   0.00000  Uiso   1.00
C1241  C     0.62181   0.92249   0.91383   0.00000  Uiso   1.00
C1242  C     0.95339   0.68627   0.77254   0.00000  Uiso   1.00
C1243  C     0.54484   0.98209   0.88890   0.00000  Uiso   1.00
C1244  C     0.70192   0.98761   0.76767   0.00000  Uiso   1.00
C1245  C     0.79877   0.67893   0.89800   0.00000  Uiso   1.00
C1246  C     0.68433   0.75590   0.98528   0.00000  Uiso   1.00
C1247  C     0.52132   0.74329   0.78036   0.00000  Uiso   1.00
C1248  C     0.64214   0.73921   0.94372   0.00000  Uiso   1.00
C1249  C     0.81421   0.91220   0.68238   0.00000  Uiso   1.00
C1250  C     0.85249   0.93202   0.73019   0.00000  Uiso   1.00
C1251  C     0.97847   0.92469   0.88357   0.00000  Uiso   1.00
C1252  C     0.73957   0.67861   0.81273   0.00000  Uiso   1.00
C1253  C     0.76071   0.98802   0.85367   0.00000  Uiso   1.00
C1254  C     0.66470   0.83463   0.83464   0.00000  Uiso   1.00
C1255  C     0.83529   0.83239   0.83205   0.00000  Uiso   1.00
C1256  C     0.90841   0.87528   0.86144   0.00000  Uiso   1.00
Cu1257 Cu    0.75501   0.83913   0.89479   0.00000  Uiso   1.00
Cu1258 Cu    0.74500   0.82754   0.77187   0.00000  Uiso   1.00
H1259  H     0.89153   0.90915   0.88489   0.00000  Uiso   1.00
H1260  H     0.80328   0.66796   0.94190   0.00000  Uiso   1.00
H1261  H     0.67688   0.75204   0.69858   0.00000  Uiso   1.00
H1262  H     0.71115   0.72906   0.96842   0.00000  Uiso   1.00
H1263  H     0.64944   0.73607   0.89506   0.00000  Uiso   1.00
H1264  H     0.62937   0.70073   0.94984   0.00000  Uiso   1.00
H1265  H     0.61598   0.76800   0.95581   0.00000  Uiso   1.00
H1266  H     0.78545   0.93763   0.69386   0.00000  Uiso   1.00
H1267  H     0.82541   0.91564   0.97045   0.00000  Uiso   1.00
H1268  H     0.88154   0.90694   0.72116   0.00000  Uiso   1.00
H1269  H     0.86263   0.97241   0.72799   0.00000  Uiso   1.00
H1270  H     0.60853   0.75816   0.78198   0.00000  Uiso   1.00
H1271  H     0.84179   0.93207   0.77679   0.00000  Uiso   1.00
H1272  H     0.53927   0.70846   0.76308   0.00000  Uiso   1.00
H1273  H     0.96066   0.95969   0.90077   0.00000  Uiso   1.00
H1274  H     0.84341   0.73448   0.76246   0.00000  Uiso   1.00
H1275  H     0.60715   0.94068   0.95591   0.00000  Uiso   1.00
H1276  H     0.92362   0.68002   0.79560   0.00000  Uiso   1.00
H1277  H     0.53256   0.68060   0.92246   0.00000  Uiso   1.00
H1278  H     0.69789   0.99863   0.72375   0.00000  Uiso   1.00
N1279  N     0.73745   0.81881   0.67951   0.00000  Uiso   1.00
N1280  N     0.76256   0.84786   0.98716   0.00000  Uiso   1.00
O1281  O     0.75326   0.76204   0.87326   0.00000  Uiso   1.00
O1282  O     0.65906   0.93782   0.90463   0.00000  Uiso   1.00
O1283  O     0.96938   0.98201   0.74009   0.00000  Uiso   1.00
O1284  O     0.57305   0.99177   0.85537   0.00000  Uiso   1.00
O1285  O     0.67376   0.95778   0.78048   0.00000  Uiso   1.00
O1286  O     0.82676   0.70859   0.88448   0.00000  Uiso   1.00
O1287  O     0.69638   0.80801   0.98465   0.00000  Uiso   1.00
O1288  O     0.80334   0.85970   0.68258   0.00000  Uiso   1.00
O1289  O     0.74675   0.90462   0.79341   0.00000  Uiso   1.00
O1290  O     0.74480   0.75226   0.76945   0.00000  Uiso   1.00
O1291  O     0.75520   0.91441   0.89721   0.00000  Uiso   1.00
O1292  O     0.68936   0.83821   0.88524   0.00000  Uiso   1.00
O1293  O     0.81065   0.82845   0.78143   0.00000  Uiso   1.00
O1294  O     0.68090   0.82843   0.78143   0.00000  Uiso   1.00
O1295  O     0.81910   0.83824   0.88523   0.00000  Uiso   1.00
O1296  O     0.88838   0.73026   0.70016   0.00000  Uiso   1.00
loop_
_geom_bond_atom_site_label_1
_geom_bond_atom_site_label_2
_geom_bond_distance
_geom_bond_site_symmetry_2
_ccdc_geom_bond_type
C1     C28     1.431   .     S
C1     O57     1.291   .     A
C1     O66     1.292   .     A
C2     C4      1.391   .     A
C2     H46     1.086   .     S
C2     C13     1.385   .     A
C3     C31     1.447   .     S
C3     C32     1.389   .     A
C3     C5      1.410   .     A
C4     C6      1.414   .     A
C4     C30     1.448   .     S
C5     C7      1.422   .     A
C5     C16     1.486   .     S
C6     C17     1.488   .     S
C6     C8      1.420   .     A
C7     C9      1.424   .     A
C7     C14     1.425   .     A
C8     C10     1.423   .     A
C8     C15     1.425   .     A
C9     C11     1.409   .     A
C9     C82     1.407   .     S
C10    C13     1.407   .     A
C10    C81     1.407   1_455 S
C11    C27     1.394   .     A
C11    C32     1.385   .     A
C12    C29     1.431   .     S
C12    O67     1.293   .     A
C12    O65     1.290   .     A
C13    C23     1.394   .     A
C14    C18     1.484   .     S
C14    C95     1.397   .     S
C15    C19     1.480   .     S
C15    C99     1.393   1_455 S
C16    O72     1.221   .     D
C16    H50     1.085   .     S
C17    O58     1.219   .     D
C17    H51     1.085   .     S
C18    H52     1.084   .     S
C18    O347    1.222   1_545 S
C19    O60     1.221   .     D
C19    H197    1.086   .     S
C20    H54     1.085   .     S
C20    O61     1.221   .     D
C20    C172    1.495   .     S
C21    H36     1.085   .     S
C21    O62     1.222   .     D
C21    C317    1.494   1_545 S
C22    O63     1.405   .     S
C22    C24     1.517   .     S
C22    H38     1.115   .     S
C22    H469    1.106   .     S
C23    H48     1.085   .     S
C23    C86     1.397   1_455 S
C24    H41     1.111   .     S
C24    H40     1.107   .     S
C24    H39     1.111   .     S
C25    H42     1.116   .     S
C25    C26     1.518   .     S
C25    O64     1.405   .     S
C25    H907    1.108   1_554 S
C26    H44     1.111   .     S
C26    H47     1.110   .     S
C26    H45     1.105   .     S
C27    H49     1.086   .     S
C27    C87     1.393   .     S
C28    C308    1.495   1_545 S
C28    C317    1.357   1_545 S
C29    C172    1.357   .     S
C29    C165    1.494   .     S
C30    O68     1.299   .     A
C30    O70     1.294   .     A
C31    O71     1.294   .     A
C31    O69     1.298   .     A
C32    H35     1.086   .     S
Cu33   N56     2.029   .     S
Cu33   O57     1.972   .     S
Cu33   Cu34    2.700   .     S
Cu33   O71     1.948   .     S
Cu33   O67     1.963   .     S
Cu33   O68     1.966   .     S
Cu34   O70     1.948   .     S
Cu34   O66     1.963   .     S
Cu34   N55     2.029   .     S
Cu34   O69     1.966   .     S
Cu34   O65     1.972   .     S
H37    C886    1.106   1_554 S
H43    C457    1.108   .     S
H53    C307    1.086   1_545 S
N55    N920    1.298   1_554 S
N55    O927    1.342   1_554 S
N56    N487    1.298   .     S
N56    O496    1.341   .     S
O59    C162    1.222   .     S
O63    N487    1.342   .     S
O64    N920    1.341   1_554 S
C73    C100    1.431   .     S
C73    O129    1.291   .     A
C73    O138    1.292   .     A
C74    C76     1.391   .     A
C74    H118    1.086   .     S
C74    C85     1.385   .     A
C75    C103    1.447   .     S
C75    C104    1.389   .     A
C75    C77     1.410   .     A
C76    C78     1.414   .     A
C76    C102    1.448   .     S
C77    C79     1.422   .     A
C77    C88     1.486   .     S
C78    C89     1.488   .     S
C78    C80     1.420   .     A
C79    C81     1.424   .     A
C79    C86     1.425   .     A
C80    C82     1.423   .     A
C80    C87     1.425   .     A
C81    C83     1.409   .     A
C81    C10     1.407   1_655 S
C82    C85     1.407   .     A
C83    C99     1.394   .     A
C83    C104    1.385   .     A
C84    C101    1.431   .     S
C84    O139    1.293   .     A
C84    O137    1.290   .     A
C85    C95     1.394   .     A
C86    C90     1.484   .     S
C86    C23     1.397   1_655 S
C87    C91     1.480   .     S
C88    O144    1.221   .     D
C88    H122    1.085   .     S
C89    O130    1.219   .     D
C89    H123    1.085   .     S
C90    H124    1.084   .     S
C90    O419    1.222   1_545 S
C91    O132    1.221   .     D
C91    H269    1.086   .     S
C92    H126    1.085   .     S
C92    O133    1.221   .     D
C92    C244    1.495   .     S
C93    H108    1.085   .     S
C93    O134    1.222   .     D
C93    C389    1.494   1_545 S
C94    O135    1.405   .     S
C94    C96     1.517   .     S
C94    H110    1.115   .     S
C94    H541    1.106   .     S
C95    H120    1.085   .     S
C96    H113    1.111   .     S
C96    H112    1.107   .     S
C96    H111    1.111   .     S
C97    H114    1.116   .     S
C97    C98     1.518   .     S
C97    O136    1.405   .     S
C97    H979    1.108   1_554 S
C98    H116    1.111   .     S
C98    H119    1.110   .     S
C98    H117    1.105   .     S
C99    H121    1.086   .     S
C99    C15     1.393   1_655 S
C100   C380    1.495   1_545 S
C100   C389    1.357   1_545 S
C101   C244    1.357   .     S
C101   C237    1.494   .     S
C102   O140    1.299   .     A
C102   O142    1.294   .     A
C103   O143    1.294   .     A
C103   O141    1.298   .     A
C104   H107    1.086   .     S
Cu105  N128    2.029   .     S
Cu105  O129    1.972   .     S
Cu105  Cu106   2.700   .     S
Cu105  O143    1.948   .     S
Cu105  O139    1.963   .     S
Cu105  O140    1.966   .     S
Cu106  O142    1.948   .     S
Cu106  O138    1.963   .     S
Cu106  N127    2.029   .     S
Cu106  O141    1.966   .     S
Cu106  O137    1.972   .     S
H109   C958    1.106   1_554 S
H115   C529    1.108   .     S
H125   C379    1.086   1_545 S
N127   N992    1.298   1_554 S
N127   O999    1.342   1_554 S
N128   N559    1.298   .     S
N128   O568    1.341   .     S
O131   C234    1.222   .     S
O135   N559    1.342   .     S
O136   N992    1.341   1_554 S
C145   C172    1.431   .     S
C145   O201    1.291   .     A
C145   O210    1.292   .     A
C146   C148    1.391   .     A
C146   H190    1.086   .     S
C146   C157    1.385   .     A
C147   C175    1.447   .     S
C147   C176    1.389   .     A
C147   C149    1.410   .     A
C148   C150    1.414   .     A
C148   C174    1.448   .     S
C149   C151    1.422   .     A
C149   C160    1.486   .     S
C150   C161    1.488   .     S
C150   C152    1.420   .     A
C151   C153    1.424   .     A
C151   C158    1.425   .     A
C152   C154    1.423   .     A
C152   C159    1.425   .     A
C153   C155    1.409   .     A
C153   C226    1.407   .     S
C154   C157    1.407   .     A
C154   C225    1.407   1_455 S
C155   C171    1.394   .     A
C155   C176    1.385   .     A
C156   C173    1.431   .     S
C156   O211    1.293   .     A
C156   O209    1.290   .     A
C157   C167    1.394   .     A
C158   C162    1.484   .     S
C158   C239    1.397   .     S
C159   C163    1.480   .     S
C159   C243    1.393   1_455 S
C160   O216    1.221   .     D
C160   H194    1.085   .     S
C161   O202    1.219   .     D
C161   H195    1.085   .     S
C162   H196    1.084   .     S
C163   O204    1.221   .     D
C163   H341    1.086   .     S
C164   H198    1.085   .     S
C164   O205    1.221   .     D
C164   C316    1.495   .     S
C165   H180    1.085   .     S
C165   O206    1.222   .     D
C166   O207    1.405   .     S
C166   C168    1.517   .     S
C166   H182    1.115   .     S
C166   H613    1.106   .     S
C167   H192    1.085   .     S
C167   C230    1.397   1_455 S
C168   H185    1.111   .     S
C168   H184    1.107   .     S
C168   H183    1.111   .     S
C169   H186    1.116   .     S
C169   C170    1.518   .     S
C169   O208    1.405   .     S
C169   H1051   1.108   1_554 S
C170   H188    1.111   .     S
C170   H191    1.110   .     S
C170   H189    1.105   .     S
C171   H193    1.086   .     S
C171   C231    1.393   .     S
C173   C316    1.357   .     S
C173   C309    1.494   .     S
C174   O212    1.299   .     A
C174   O214    1.294   .     A
C175   O215    1.294   .     A
C175   O213    1.298   .     A
C176   H179    1.086   .     S
Cu177  N200    2.029   .     S
Cu177  O201    1.972   .     S
Cu177  Cu178   2.700   .     S
Cu177  O215    1.948   .     S
Cu177  O211    1.963   .     S
Cu177  O212    1.966   .     S
Cu178  O214    1.948   .     S
Cu178  O210    1.963   .     S
Cu178  N199    2.029   .     S
Cu178  O213    1.966   .     S
Cu178  O209    1.972   .     S
H181   C1030   1.106   1_554 S
H187   C601    1.108   .     S
N199   N1064   1.298   1_554 S
N199   O1071   1.342   1_554 S
N200   N631    1.298   .     S
N200   O640    1.341   .     S
O203   C306    1.222   .     S
O207   N631    1.342   .     S
O208   N1064   1.341   1_554 S
C217   C244    1.431   .     S
C217   O273    1.291   .     A
C217   O282    1.292   .     A
C218   C220    1.391   .     A
C218   H262    1.086   .     S
C218   C229    1.385   .     A
C219   C247    1.447   .     S
C219   C248    1.389   .     A
C219   C221    1.410   .     A
C220   C222    1.414   .     A
C220   C246    1.448   .     S
C221   C223    1.422   .     A
C221   C232    1.486   .     S
C222   C233    1.488   .     S
C222   C224    1.420   .     A
C223   C225    1.424   .     A
C223   C230    1.425   .     A
C224   C226    1.423   .     A
C224   C231    1.425   .     A
C225   C227    1.409   .     A
C225   C154    1.407   1_655 S
C226   C229    1.407   .     A
C227   C243    1.394   .     A
C227   C248    1.385   .     A
C228   C245    1.431   .     S
C228   O283    1.293   .     A
C228   O281    1.290   .     A
C229   C239    1.394   .     A
C230   C234    1.484   .     S
C230   C167    1.397   1_655 S
C231   C235    1.480   .     S
C232   O288    1.221   .     D
C232   H266    1.085   .     S
C233   O274    1.219   .     D
C233   H267    1.085   .     S
C234   H268    1.084   .     S
C235   O276    1.221   .     D
C235   H413    1.086   .     S
C236   H270    1.085   .     S
C236   O277    1.221   .     D
C236   C388    1.495   .     S
C237   H252    1.085   .     S
C237   O278    1.222   .     D
C238   O279    1.405   .     S
C238   C240    1.517   .     S
C238   H254    1.115   .     S
C238   H685    1.106   .     S
C239   H264    1.085   .     S
C240   H257    1.111   .     S
C240   H256    1.107   .     S
C240   H255    1.111   .     S
C241   H258    1.116   .     S
C241   C242    1.518   .     S
C241   O280    1.405   .     S
C241   H1123   1.108   1_554 S
C242   H260    1.111   .     S
C242   H263    1.110   .     S
C242   H261    1.105   .     S
C243   H265    1.086   .     S
C243   C159    1.393   1_655 S
C245   C388    1.357   .     S
C245   C381    1.494   .     S
C246   O284    1.299   .     A
C246   O286    1.294   .     A
C247   O287    1.294   .     A
C247   O285    1.298   .     A
C248   H251    1.086   .     S
Cu249  N272    2.029   .     S
Cu249  O273    1.972   .     S
Cu249  Cu250   2.700   .     S
Cu249  O287    1.948   .     S
Cu249  O283    1.963   .     S
Cu249  O284    1.966   .     S
Cu250  O286    1.948   .     S
Cu250  O282    1.963   .     S
Cu250  N271    2.029   .     S
Cu250  O285    1.966   .     S
Cu250  O281    1.972   .     S
H253   C1102   1.106   1_554 S
H259   C673    1.108   .     S
N271   N1136   1.298   1_554 S
N271   O1143   1.342   1_554 S
N272   N703    1.298   .     S
N272   O712    1.341   .     S
O275   C378    1.222   .     S
O279   N703    1.342   .     S
O280   N1136   1.341   1_554 S
C289   C316    1.431   .     S
C289   O345    1.291   .     A
C289   O354    1.292   .     A
C290   C292    1.391   .     A
C290   H334    1.086   .     S
C290   C301    1.385   .     A
C291   C319    1.447   .     S
C291   C320    1.389   .     A
C291   C293    1.410   .     A
C292   C294    1.414   .     A
C292   C318    1.448   .     S
C293   C295    1.422   .     A
C293   C304    1.486   .     S
C294   C305    1.488   .     S
C294   C296    1.420   .     A
C295   C297    1.424   .     A
C295   C302    1.425   .     A
C296   C298    1.423   .     A
C296   C303    1.425   .     A
C297   C299    1.409   .     A
C297   C370    1.407   .     S
C298   C301    1.407   .     A
C298   C369    1.407   1_455 S
C299   C315    1.394   .     A
C299   C320    1.385   .     A
C300   C317    1.431   .     S
C300   O355    1.293   .     A
C300   O353    1.290   .     A
C301   C311    1.394   .     A
C302   C306    1.484   .     S
C302   C383    1.397   .     S
C303   C307    1.480   .     S
C303   C387    1.393   1_455 S
C304   O360    1.221   .     D
C304   H338    1.085   .     S
C305   O346    1.219   .     D
C305   H339    1.085   .     S
C306   H340    1.084   .     S
C307   O348    1.221   .     D
C307   H53     1.086   1_565 S
C308   H342    1.085   .     S
C308   O349    1.221   .     D
C308   C28     1.495   1_565 S
C309   H324    1.085   .     S
C309   O350    1.222   .     D
C310   O351    1.405   .     S
C310   C312    1.517   .     S
C310   H326    1.115   .     S
C310   H757    1.106   .     S
C311   H336    1.085   .     S
C311   C374    1.397   1_455 S
C312   H329    1.111   .     S
C312   H328    1.107   .     S
C312   H327    1.111   .     S
C313   H330    1.116   .     S
C313   C314    1.518   .     S
C313   O352    1.405   .     S
C313   H1195   1.108   1_554 S
C314   H332    1.111   .     S
C314   H335    1.110   .     S
C314   H333    1.105   .     S
C315   H337    1.086   .     S
C315   C375    1.393   .     S
C317   C28     1.357   1_565 S
C317   C21     1.494   1_565 S
C318   O356    1.299   .     A
C318   O358    1.294   .     A
C319   O359    1.294   .     A
C319   O357    1.298   .     A
C320   H323    1.086   .     S
Cu321  N344    2.029   .     S
Cu321  O345    1.972   .     S
Cu321  Cu322   2.700   .     S
Cu321  O359    1.948   .     S
Cu321  O355    1.963   .     S
Cu321  O356    1.966   .     S
Cu322  O358    1.948   .     S
Cu322  O354    1.963   .     S
Cu322  N343    2.029   .     S
Cu322  O357    1.966   .     S
Cu322  O353    1.972   .     S
H325   C1174   1.106   1_554 S
H331   C745    1.108   .     S
N343   N1208   1.298   1_554 S
N343   O1215   1.342   1_554 S
N344   N775    1.298   .     S
N344   O784    1.341   .     S
O347   C18     1.222   1_565 S
O351   N775    1.342   .     S
O352   N1208   1.341   1_554 S
C361   C388    1.431   .     S
C361   O417    1.291   .     A
C361   O426    1.292   .     A
C362   C364    1.391   .     A
C362   H406    1.086   .     S
C362   C373    1.385   .     A
C363   C391    1.447   .     S
C363   C392    1.389   .     A
C363   C365    1.410   .     A
C364   C366    1.414   .     A
C364   C390    1.448   .     S
C365   C367    1.422   .     A
C365   C376    1.486   .     S
C366   C377    1.488   .     S
C366   C368    1.420   .     A
C367   C369    1.424   .     A
C367   C374    1.425   .     A
C368   C370    1.423   .     A
C368   C375    1.425   .     A
C369   C371    1.409   .     A
C369   C298    1.407   1_655 S
C370   C373    1.407   .     A
C371   C387    1.394   .     A
C371   C392    1.385   .     A
C372   C389    1.431   .     S
C372   O427    1.293   .     A
C372   O425    1.290   .     A
C373   C383    1.394   .     A
C374   C378    1.484   .     S
C374   C311    1.397   1_655 S
C375   C379    1.480   .     S
C376   O432    1.221   .     D
C376   H410    1.085   .     S
C377   O418    1.219   .     D
C377   H411    1.085   .     S
C378   H412    1.084   .     S
C379   O420    1.221   .     D
C379   H125    1.086   1_565 S
C380   H414    1.085   .     S
C380   O421    1.221   .     D
C380   C100    1.495   1_565 S
C381   H396    1.085   .     S
C381   O422    1.222   .     D
C382   O423    1.405   .     S
C382   C384    1.517   .     S
C382   H398    1.115   .     S
C382   H829    1.106   .     S
C383   H408    1.085   .     S
C384   H401    1.111   .     S
C384   H400    1.107   .     S
C384   H399    1.111   .     S
C385   H402    1.116   .     S
C385   C386    1.518   .     S
C385   O424    1.405   .     S
C385   H1267   1.108   1_554 S
C386   H404    1.111   .     S
C386   H407    1.110   .     S
C386   H405    1.105   .     S
C387   H409    1.086   .     S
C387   C303    1.393   1_655 S
C389   C100    1.357   1_565 S
C389   C93     1.494   1_565 S
C390   O428    1.299   .     A
C390   O430    1.294   .     A
C391   O431    1.294   .     A
C391   O429    1.298   .     A
C392   H395    1.086   .     S
Cu393  N416    2.029   .     S
Cu393  O417    1.972   .     S
Cu393  Cu394   2.700   .     S
Cu393  O431    1.948   .     S
Cu393  O427    1.963   .     S
Cu393  O428    1.966   .     S
Cu394  O430    1.948   .     S
Cu394  O426    1.963   .     S
Cu394  N415    2.029   .     S
Cu394  O429    1.966   .     S
Cu394  O425    1.972   .     S
H397   C1246   1.106   1_554 S
H403   C817    1.108   .     S
N415   N1280   1.298   1_554 S
N415   O1287   1.342   1_554 S
N416   N847    1.298   .     S
N416   O856    1.341   .     S
O419   C90     1.222   1_565 S
O423   N847    1.342   .     S
O424   N1280   1.341   1_554 S
C433   C460    1.431   .     S
C433   O489    1.291   .     A
C433   O498    1.292   .     A
C434   C436    1.391   .     A
C434   H478    1.086   .     S
C434   C445    1.385   .     A
C435   C463    1.447   .     S
C435   C464    1.389   .     A
C435   C437    1.410   .     A
C436   C438    1.414   .     A
C436   C462    1.448   .     S
C437   C439    1.422   .     A
C437   C448    1.486   .     S
C438   C449    1.488   .     S
C438   C440    1.420   .     A
C439   C441    1.424   .     A
C439   C446    1.425   .     A
C440   C442    1.423   .     A
C440   C447    1.425   .     A
C441   C443    1.409   .     A
C441   C514    1.407   .     S
C442   C445    1.407   .     A
C442   C513    1.407   1_455 S
C443   C459    1.394   .     A
C443   C464    1.385   .     A
C444   C461    1.431   .     S
C444   O499    1.293   .     A
C444   O497    1.290   .     A
C445   C455    1.394   .     A
C446   C450    1.484   .     S
C446   C527    1.397   .     S
C447   C451    1.480   .     S
C447   C531    1.393   1_455 S
C448   O504    1.221   .     D
C448   H482    1.085   .     S
C449   O490    1.219   .     D
C449   H483    1.085   .     S
C450   H484    1.084   .     S
C450   O779    1.222   1_545 S
C451   O492    1.221   .     D
C451   H629    1.086   .     S
C452   H486    1.085   .     S
C452   O493    1.221   .     D
C452   C604    1.495   .     S
C453   H468    1.085   .     S
C453   O494    1.222   .     D
C453   C749    1.494   1_545 S
C454   O495    1.405   .     S
C454   C456    1.517   .     S
C454   H470    1.115   .     S
C454   H901    1.106   .     S
C455   H480    1.085   .     S
C455   C518    1.397   1_455 S
C456   H473    1.111   .     S
C456   H472    1.107   .     S
C456   H471    1.111   .     S
C457   H474    1.116   .     S
C457   C458    1.518   .     S
C457   O496    1.405   .     S
C458   H476    1.111   .     S
C458   H479    1.110   .     S
C458   H477    1.105   .     S
C459   H481    1.086   .     S
C459   C519    1.393   .     S
C460   C740    1.495   1_545 S
C460   C749    1.357   1_545 S
C461   C604    1.357   .     S
C461   C597    1.494   .     S
C462   O500    1.299   .     A
C462   O502    1.294   .     A
C463   O503    1.294   .     A
C463   O501    1.298   .     A
C464   H467    1.086   .     S
Cu465  N488    2.029   .     S
Cu465  O489    1.972   .     S
Cu465  Cu466   2.700   .     S
Cu465  O503    1.948   .     S
Cu465  O499    1.963   .     S
Cu465  O500    1.966   .     S
Cu466  O502    1.948   .     S
Cu466  O498    1.963   .     S
Cu466  N487    2.029   .     S
Cu466  O501    1.966   .     S
Cu466  O497    1.972   .     S
H475   C889    1.108   .     S
H485   C739    1.086   1_545 S
N488   N919    1.298   .     S
N488   O928    1.341   .     S
O491   C594    1.222   .     S
O495   N919    1.342   .     S
C505   C532    1.431   .     S
C505   O561    1.291   .     A
C505   O570    1.292   .     A
C506   C508    1.391   .     A
C506   H550    1.086   .     S
C506   C517    1.385   .     A
C507   C535    1.447   .     S
C507   C536    1.389   .     A
C507   C509    1.410   .     A
C508   C510    1.414   .     A
C508   C534    1.448   .     S
C509   C511    1.422   .     A
C509   C520    1.486   .     S
C510   C521    1.488   .     S
C510   C512    1.420   .     A
C511   C513    1.424   .     A
C511   C518    1.425   .     A
C512   C514    1.423   .     A
C512   C519    1.425   .     A
C513   C515    1.409   .     A
C513   C442    1.407   1_655 S
C514   C517    1.407   .     A
C515   C531    1.394   .     A
C515   C536    1.385   .     A
C516   C533    1.431   .     S
C516   O571    1.293   .     A
C516   O569    1.290   .     A
C517   C527    1.394   .     A
C518   C522    1.484   .     S
C518   C455    1.397   1_655 S
C519   C523    1.480   .     S
C520   O576    1.221   .     D
C520   H554    1.085   .     S
C521   O562    1.219   .     D
C521   H555    1.085   .     S
C522   H556    1.084   .     S
C522   O851    1.222   1_545 S
C523   O564    1.221   .     D
C523   H701    1.086   .     S
C524   H558    1.085   .     S
C524   O565    1.221   .     D
C524   C676    1.495   .     S
C525   H540    1.085   .     S
C525   O566    1.222   .     D
C525   C821    1.494   1_545 S
C526   O567    1.405   .     S
C526   C528    1.517   .     S
C526   H542    1.115   .     S
C526   H973    1.106   .     S
C527   H552    1.085   .     S
C528   H545    1.111   .     S
C528   H544    1.107   .     S
C528   H543    1.111   .     S
C529   H546    1.116   .     S
C529   C530    1.518   .     S
C529   O568    1.405   .     S
C530   H548    1.111   .     S
C530   H551    1.110   .     S
C530   H549    1.105   .     S
C531   H553    1.086   .     S
C531   C447    1.393   1_655 S
C532   C812    1.495   1_545 S
C532   C821    1.357   1_545 S
C533   C676    1.357   .     S
C533   C669    1.494   .     S
C534   O572    1.299   .     A
C534   O574    1.294   .     A
C535   O575    1.294   .     A
C535   O573    1.298   .     A
C536   H539    1.086   .     S
Cu537  N560    2.029   .     S
Cu537  O561    1.972   .     S
Cu537  Cu538   2.700   .     S
Cu537  O575    1.948   .     S
Cu537  O571    1.963   .     S
Cu537  O572    1.966   .     S
Cu538  O574    1.948   .     S
Cu538  O570    1.963   .     S
Cu538  N559    2.029   .     S
Cu538  O573    1.966   .     S
Cu538  O569    1.972   .     S
H547   C961    1.108   .     S
H557   C811    1.086   1_545 S
N560   N991    1.298   .     S
N560   O1000   1.341   .     S
O563   C666    1.222   .     S
O567   N991    1.342   .     S
C577   C604    1.431   .     S
C577   O633    1.291   .     A
C577   O642    1.292   .     A
C578   C580    1.391   .     A
C578   H622    1.086   .     S
C578   C589    1.385   .     A
C579   C607    1.447   .     S
C579   C608    1.389   .     A
C579   C581    1.410   .     A
C580   C582    1.414   .     A
C580   C606    1.448   .     S
C581   C583    1.422   .     A
C581   C592    1.486   .     S
C582   C593    1.488   .     S
C582   C584    1.420   .     A
C583   C585    1.424   .     A
C583   C590    1.425   .     A
C584   C586    1.423   .     A
C584   C591    1.425   .     A
C585   C587    1.409   .     A
C585   C658    1.407   .     S
C586   C589    1.407   .     A
C586   C657    1.407   1_455 S
C587   C603    1.394   .     A
C587   C608    1.385   .     A
C588   C605    1.431   .     S
C588   O643    1.293   .     A
C588   O641    1.290   .     A
C589   C599    1.394   .     A
C590   C594    1.484   .     S
C590   C671    1.397   .     S
C591   C595    1.480   .     S
C591   C675    1.393   1_455 S
C592   O648    1.221   .     D
C592   H626    1.085   .     S
C593   O634    1.219   .     D
C593   H627    1.085   .     S
C594   H628    1.084   .     S
C595   O636    1.221   .     D
C595   H773    1.086   .     S
C596   H630    1.085   .     S
C596   O637    1.221   .     D
C596   C748    1.495   .     S
C597   H612    1.085   .     S
C597   O638    1.222   .     D
C598   O639    1.405   .     S
C598   C600    1.517   .     S
C598   H614    1.115   .     S
C598   H1045   1.106   .     S
C599   H624    1.085   .     S
C599   C662    1.397   1_455 S
C600   H617    1.111   .     S
C600   H616    1.107   .     S
C600   H615    1.111   .     S
C601   H618    1.116   .     S
C601   C602    1.518   .     S
C601   O640    1.405   .     S
C602   H620    1.111   .     S
C602   H623    1.110   .     S
C602   H621    1.105   .     S
C603   H625    1.086   .     S
C603   C663    1.393   .     S
C605   C748    1.357   .     S
C605   C741    1.494   .     S
C606   O644    1.299   .     A
C606   O646    1.294   .     A
C607   O647    1.294   .     A
C607   O645    1.298   .     A
C608   H611    1.086   .     S
Cu609  N632    2.029   .     S
Cu609  O633    1.972   .     S
Cu609  Cu610   2.700   .     S
Cu609  O647    1.948   .     S
Cu609  O643    1.963   .     S
Cu609  O644    1.966   .     S
Cu610  O646    1.948   .     S
Cu610  O642    1.963   .     S
Cu610  N631    2.029   .     S
Cu610  O645    1.966   .     S
Cu610  O641    1.972   .     S
H619   C1033   1.108   .     S
N632   N1063   1.298   .     S
N632   O1072   1.341   .     S
O635   C738    1.222   .     S
O639   N1063   1.342   .     S
C649   C676    1.431   .     S
C649   O705    1.291   .     A
C649   O714    1.292   .     A
C650   C652    1.391   .     A
C650   H694    1.086   .     S
C650   C661    1.385   .     A
C651   C679    1.447   .     S
C651   C680    1.389   .     A
C651   C653    1.410   .     A
C652   C654    1.414   .     A
C652   C678    1.448   .     S
C653   C655    1.422   .     A
C653   C664    1.486   .     S
C654   C665    1.488   .     S
C654   C656    1.420   .     A
C655   C657    1.424   .     A
C655   C662    1.425   .     A
C656   C658    1.423   .     A
C656   C663    1.425   .     A
C657   C659    1.409   .     A
C657   C586    1.407   1_655 S
C658   C661    1.407   .     A
C659   C675    1.394   .     A
C659   C680    1.385   .     A
C660   C677    1.431   .     S
C660   O715    1.293   .     A
C660   O713    1.290   .     A
C661   C671    1.394   .     A
C662   C666    1.484   .     S
C662   C599    1.397   1_655 S
C663   C667    1.480   .     S
C664   O720    1.221   .     D
C664   H698    1.085   .     S
C665   O706    1.219   .     D
C665   H699    1.085   .     S
C666   H700    1.084   .     S
C667   O708    1.221   .     D
C667   H845    1.086   .     S
C668   H702    1.085   .     S
C668   O709    1.221   .     D
C668   C820    1.495   .     S
C669   H684    1.085   .     S
C669   O710    1.222   .     D
C670   O711    1.405   .     S
C670   C672    1.517   .     S
C670   H686    1.115   .     S
C670   H1117   1.106   .     S
C671   H696    1.085   .     S
C672   H689    1.111   .     S
C672   H688    1.107   .     S
C672   H687    1.111   .     S
C673   H690    1.116   .     S
C673   C674    1.518   .     S
C673   O712    1.405   .     S
C674   H692    1.111   .     S
C674   H695    1.110   .     S
C674   H693    1.105   .     S
C675   H697    1.086   .     S
C675   C591    1.393   1_655 S
C677   C820    1.357   .     S
C677   C813    1.494   .     S
C678   O716    1.299   .     A
C678   O718    1.294   .     A
C679   O719    1.294   .     A
C679   O717    1.298   .     A
C680   H683    1.086   .     S
Cu681  N704    2.029   .     S
Cu681  O705    1.972   .     S
Cu681  Cu682   2.700   .     S
Cu681  O719    1.948   .     S
Cu681  O715    1.963   .     S
Cu681  O716    1.966   .     S
Cu682  O718    1.948   .     S
Cu682  O714    1.963   .     S
Cu682  N703    2.029   .     S
Cu682  O717    1.966   .     S
Cu682  O713    1.972   .     S
H691   C1105   1.108   .     S
N704   N1135   1.298   .     S
N704   O1144   1.341   .     S
O707   C810    1.222   .     S
O711   N1135   1.342   .     S
C721   C748    1.431   .     S
C721   O777    1.291   .     A
C721   O786    1.292   .     A
C722   C724    1.391   .     A
C722   H766    1.086   .     S
C722   C733    1.385   .     A
C723   C751    1.447   .     S
C723   C752    1.389   .     A
C723   C725    1.410   .     A
C724   C726    1.414   .     A
C724   C750    1.448   .     S
C725   C727    1.422   .     A
C725   C736    1.486   .     S
C726   C737    1.488   .     S
C726   C728    1.420   .     A
C727   C729    1.424   .     A
C727   C734    1.425   .     A
C728   C730    1.423   .     A
C728   C735    1.425   .     A
C729   C731    1.409   .     A
C729   C802    1.407   .     S
C730   C733    1.407   .     A
C730   C801    1.407   1_455 S
C731   C747    1.394   .     A
C731   C752    1.385   .     A
C732   C749    1.431   .     S
C732   O787    1.293   .     A
C732   O785    1.290   .     A
C733   C743    1.394   .     A
C734   C738    1.484   .     S
C734   C815    1.397   .     S
C735   C739    1.480   .     S
C735   C819    1.393   1_455 S
C736   O792    1.221   .     D
C736   H770    1.085   .     S
C737   O778    1.219   .     D
C737   H771    1.085   .     S
C738   H772    1.084   .     S
C739   O780    1.221   .     D
C739   H485    1.086   1_565 S
C740   H774    1.085   .     S
C740   O781    1.221   .     D
C740   C460    1.495   1_565 S
C741   H756    1.085   .     S
C741   O782    1.222   .     D
C742   O783    1.405   .     S
C742   C744    1.517   .     S
C742   H758    1.115   .     S
C742   H1189   1.106   .     S
C743   H768    1.085   .     S
C743   C806    1.397   1_455 S
C744   H761    1.111   .     S
C744   H760    1.107   .     S
C744   H759    1.111   .     S
C745   H762    1.116   .     S
C745   C746    1.518   .     S
C745   O784    1.405   .     S
C746   H764    1.111   .     S
C746   H767    1.110   .     S
C746   H765    1.105   .     S
C747   H769    1.086   .     S
C747   C807    1.393   .     S
C749   C460    1.357   1_565 S
C749   C453    1.494   1_565 S
C750   O788    1.299   .     A
C750   O790    1.294   .     A
C751   O791    1.294   .     A
C751   O789    1.298   .     A
C752   H755    1.086   .     S
Cu753  N776    2.029   .     S
Cu753  O777    1.972   .     S
Cu753  Cu754   2.700   .     S
Cu753  O791    1.948   .     S
Cu753  O787    1.963   .     S
Cu753  O788    1.966   .     S
Cu754  O790    1.948   .     S
Cu754  O786    1.963   .     S
Cu754  N775    2.029   .     S
Cu754  O789    1.966   .     S
Cu754  O785    1.972   .     S
H763   C1177   1.108   .     S
N776   N1207   1.298   .     S
N776   O1216   1.341   .     S
O779   C450    1.222   1_565 S
O783   N1207   1.342   .     S
C793   C820    1.431   .     S
C793   O849    1.291   .     A
C793   O858    1.292   .     A
C794   C796    1.391   .     A
C794   H838    1.086   .     S
C794   C805    1.385   .     A
C795   C823    1.447   .     S
C795   C824    1.389   .     A
C795   C797    1.410   .     A
C796   C798    1.414   .     A
C796   C822    1.448   .     S
C797   C799    1.422   .     A
C797   C808    1.486   .     S
C798   C809    1.488   .     S
C798   C800    1.420   .     A
C799   C801    1.424   .     A
C799   C806    1.425   .     A
C800   C802    1.423   .     A
C800   C807    1.425   .     A
C801   C803    1.409   .     A
C801   C730    1.407   1_655 S
C802   C805    1.407   .     A
C803   C819    1.394   .     A
C803   C824    1.385   .     A
C804   C821    1.431   .     S
C804   O859    1.293   .     A
C804   O857    1.290   .     A
C805   C815    1.394   .     A
C806   C810    1.484   .     S
C806   C743    1.397   1_655 S
C807   C811    1.480   .     S
C808   O864    1.221   .     D
C808   H842    1.085   .     S
C809   O850    1.219   .     D
C809   H843    1.085   .     S
C810   H844    1.084   .     S
C811   O852    1.221   .     D
C811   H557    1.086   1_565 S
C812   H846    1.085   .     S
C812   O853    1.221   .     D
C812   C532    1.495   1_565 S
C813   H828    1.085   .     S
C813   O854    1.222   .     D
C814   O855    1.405   .     S
C814   C816    1.517   .     S
C814   H830    1.115   .     S
C814   H1261   1.106   .     S
C815   H840    1.085   .     S
C816   H833    1.111   .     S
C816   H832    1.107   .     S
C816   H831    1.111   .     S
C817   H834    1.116   .     S
C817   C818    1.518   .     S
C817   O856    1.405   .     S
C818   H836    1.111   .     S
C818   H839    1.110   .     S
C818   H837    1.105   .     S
C819   H841    1.086   .     S
C819   C735    1.393   1_655 S
C821   C532    1.357   1_565 S
C821   C525    1.494   1_565 S
C822   O860    1.299   .     A
C822   O862    1.294   .     A
C823   O863    1.294   .     A
C823   O861    1.298   .     A
C824   H827    1.086   .     S
Cu825  N848    2.029   .     S
Cu825  O849    1.972   .     S
Cu825  Cu826   2.700   .     S
Cu825  O863    1.948   .     S
Cu825  O859    1.963   .     S
Cu825  O860    1.966   .     S
Cu826  O862    1.948   .     S
Cu826  O858    1.963   .     S
Cu826  N847    2.029   .     S
Cu826  O861    1.966   .     S
Cu826  O857    1.972   .     S
H835   C1249   1.108   .     S
N848   N1279   1.298   .     S
N848   O1288   1.341   .     S
O851   C522    1.222   1_565 S
O855   N1279   1.342   .     S
C865   C892    1.431   .     S
C865   O921    1.291   .     A
C865   O930    1.292   .     A
C866   C868    1.391   .     A
C866   H910    1.086   .     S
C866   C877    1.385   .     A
C867   C895    1.447   .     S
C867   C896    1.389   .     A
C867   C869    1.410   .     A
C868   C870    1.414   .     A
C868   C894    1.448   .     S
C869   C871    1.422   .     A
C869   C880    1.486   .     S
C870   C881    1.488   .     S
C870   C872    1.420   .     A
C871   C873    1.424   .     A
C871   C878    1.425   .     A
C872   C874    1.423   .     A
C872   C879    1.425   .     A
C873   C875    1.409   .     A
C873   C946    1.407   .     S
C874   C877    1.407   .     A
C874   C945    1.407   1_455 S
C875   C891    1.394   .     A
C875   C896    1.385   .     A
C876   C893    1.431   .     S
C876   O931    1.293   .     A
C876   O929    1.290   .     A
C877   C887    1.394   .     A
C878   C882    1.484   .     S
C878   C959    1.397   .     S
C879   C883    1.480   .     S
C879   C963    1.393   1_455 S
C880   O936    1.221   .     D
C880   H914    1.085   .     S
C881   O922    1.219   .     D
C881   H915    1.085   .     S
C882   H916    1.084   .     S
C882   O1211   1.222   1_545 S
C883   O924    1.221   .     D
C883   H1061   1.086   .     S
C884   H918    1.085   .     S
C884   O925    1.221   .     D
C884   C1036   1.495   .     S
C885   H900    1.085   .     S
C885   O926    1.222   .     D
C885   C1181   1.494   1_545 S
C886   O927    1.405   .     S
C886   C888    1.517   .     S
C886   H902    1.115   .     S
C886   H37     1.106   1_556 S
C887   H912    1.085   .     S
C887   C950    1.397   1_455 S
C888   H905    1.111   .     S
C888   H904    1.107   .     S
C888   H903    1.111   .     S
C889   H906    1.116   .     S
C889   C890    1.518   .     S
C889   O928    1.405   .     S
C890   H908    1.111   .     S
C890   H911    1.110   .     S
C890   H909    1.105   .     S
C891   H913    1.086   .     S
C891   C951    1.393   .     S
C892   C1172   1.495   1_545 S
C892   C1181   1.357   1_545 S
C893   C1036   1.357   .     S
C893   C1029   1.494   .     S
C894   O932    1.299   .     A
C894   O934    1.294   .     A
C895   O935    1.294   .     A
C895   O933    1.298   .     A
C896   H899    1.086   .     S
Cu897  N920    2.029   .     S
Cu897  O921    1.972   .     S
Cu897  Cu898   2.700   .     S
Cu897  O935    1.948   .     S
Cu897  O931    1.963   .     S
Cu897  O932    1.966   .     S
Cu898  O934    1.948   .     S
Cu898  O930    1.963   .     S
Cu898  N919    2.029   .     S
Cu898  O933    1.966   .     S
Cu898  O929    1.972   .     S
H907   C25     1.108   1_556 S
H917   C1171   1.086   1_545 S
N920   N55     1.298   1_556 S
N920   O64     1.341   1_556 S
O923   C1026   1.222   .     S
O927   N55     1.342   1_556 S
C937   C964    1.431   .     S
C937   O993    1.291   .     A
C937   O1002   1.292   .     A
C938   C940    1.391   .     A
C938   H982    1.086   .     S
C938   C949    1.385   .     A
C939   C967    1.447   .     S
C939   C968    1.389   .     A
C939   C941    1.410   .     A
C940   C942    1.414   .     A
C940   C966    1.448   .     S
C941   C943    1.422   .     A
C941   C952    1.486   .     S
C942   C953    1.488   .     S
C942   C944    1.420   .     A
C943   C945    1.424   .     A
C943   C950    1.425   .     A
C944   C946    1.423   .     A
C944   C951    1.425   .     A
C945   C947    1.409   .     A
C945   C874    1.407   1_655 S
C946   C949    1.407   .     A
C947   C963    1.394   .     A
C947   C968    1.385   .     A
C948   C965    1.431   .     S
C948   O1003   1.293   .     A
C948   O1001   1.290   .     A
C949   C959    1.394   .     A
C950   C954    1.484   .     S
C950   C887    1.397   1_655 S
C951   C955    1.480   .     S
C952   O1008   1.221   .     D
C952   H986    1.085   .     S
C953   O994    1.219   .     D
C953   H987    1.085   .     S
C954   H988    1.084   .     S
C954   O1283   1.222   1_545 S
C955   O996    1.221   .     D
C955   H1133   1.086   .     S
C956   H990    1.085   .     S
C956   O997    1.221   .     D
C956   C1108   1.495   .     S
C957   H972    1.085   .     S
C957   O998    1.222   .     D
C957   C1253   1.494   1_545 S
C958   O999    1.405   .     S
C958   C960    1.517   .     S
C958   H974    1.115   .     S
C958   H109    1.106   1_556 S
C959   H984    1.085   .     S
C960   H977    1.111   .     S
C960   H976    1.107   .     S
C960   H975    1.111   .     S
C961   H978    1.116   .     S
C961   C962    1.518   .     S
C961   O1000   1.405   .     S
C962   H980    1.111   .     S
C962   H983    1.110   .     S
C962   H981    1.105   .     S
C963   H985    1.086   .     S
C963   C879    1.393   1_655 S
C964   C1244   1.495   1_545 S
C964   C1253   1.357   1_545 S
C965   C1108   1.357   .     S
C965   C1101   1.494   .     S
C966   O1004   1.299   .     A
C966   O1006   1.294   .     A
C967   O1007   1.294   .     A
C967   O1005   1.298   .     A
C968   H971    1.086   .     S
Cu969  N992    2.029   .     S
Cu969  O993    1.972   .     S
Cu969  Cu970   2.700   .     S
Cu969  O1007   1.948   .     S
Cu969  O1003   1.963   .     S
Cu969  O1004   1.966   .     S
Cu970  O1006   1.948   .     S
Cu970  O1002   1.963   .     S
Cu970  N991    2.029   .     S
Cu970  O1005   1.966   .     S
Cu970  O1001   1.972   .     S
H979   C97     1.108   1_556 S
H989   C1243   1.086   1_545 S
N992   N127    1.298   1_556 S
N992   O136    1.341   1_556 S
O995   C1098   1.222   .     S
O999   N127    1.342   1_556 S
C1009  C1036   1.431   .     S
C1009  O1065   1.291   .     A
C1009  O1074   1.292   .     A
C1010  C1012   1.391   .     A
C1010  H1054   1.086   .     S
C1010  C1021   1.385   .     A
C1011  C1039   1.447   .     S
C1011  C1040   1.389   .     A
C1011  C1013   1.410   .     A
C1012  C1014   1.414   .     A
C1012  C1038   1.448   .     S
C1013  C1015   1.422   .     A
C1013  C1024   1.486   .     S
C1014  C1025   1.488   .     S
C1014  C1016   1.420   .     A
C1015  C1017   1.424   .     A
C1015  C1022   1.425   .     A
C1016  C1018   1.423   .     A
C1016  C1023   1.425   .     A
C1017  C1019   1.409   .     A
C1017  C1090   1.407   .     S
C1018  C1021   1.407   .     A
C1018  C1089   1.407   1_455 S
C1019  C1035   1.394   .     A
C1019  C1040   1.385   .     A
C1020  C1037   1.431   .     S
C1020  O1075   1.293   .     A
C1020  O1073   1.290   .     A
C1021  C1031   1.394   .     A
C1022  C1026   1.484   .     S
C1022  C1103   1.397   .     S
C1023  C1027   1.480   .     S
C1023  C1107   1.393   1_455 S
C1024  O1080   1.221   .     D
C1024  H1058   1.085   .     S
C1025  O1066   1.219   .     D
C1025  H1059   1.085   .     S
C1026  H1060   1.084   .     S
C1027  O1068   1.221   .     D
C1027  H1205   1.086   .     S
C1028  H1062   1.085   .     S
C1028  O1069   1.221   .     D
C1028  C1180   1.495   .     S
C1029  H1044   1.085   .     S
C1029  O1070   1.222   .     D
C1030  O1071   1.405   .     S
C1030  C1032   1.517   .     S
C1030  H1046   1.115   .     S
C1030  H181    1.106   1_556 S
C1031  H1056   1.085   .     S
C1031  C1094   1.397   1_455 S
C1032  H1049   1.111   .     S
C1032  H1048   1.107   .     S
C1032  H1047   1.111   .     S
C1033  H1050   1.116   .     S
C1033  C1034   1.518   .     S
C1033  O1072   1.405   .     S
C1034  H1052   1.111   .     S
C1034  H1055   1.110   .     S
C1034  H1053   1.105   .     S
C1035  H1057   1.086   .     S
C1035  C1095   1.393   .     S
C1037  C1180   1.357   .     S
C1037  C1173   1.494   .     S
C1038  O1076   1.299   .     A
C1038  O1078   1.294   .     A
C1039  O1079   1.294   .     A
C1039  O1077   1.298   .     A
C1040  H1043   1.086   .     S
Cu1041 N1064   2.029   .     S
Cu1041 O1065   1.972   .     S
Cu1041 Cu1042  2.700   .     S
Cu1041 O1079   1.948   .     S
Cu1041 O1075   1.963   .     S
Cu1041 O1076   1.966   .     S
Cu1042 O1078   1.948   .     S
Cu1042 O1074   1.963   .     S
Cu1042 N1063   2.029   .     S
Cu1042 O1077   1.966   .     S
Cu1042 O1073   1.972   .     S
H1051  C169    1.108   1_556 S
N1064  N199    1.298   1_556 S
N1064  O208    1.341   1_556 S
O1067  C1170   1.222   .     S
O1071  N199    1.342   1_556 S
C1081  C1108   1.431   .     S
C1081  O1137   1.291   .     A
C1081  O1146   1.292   .     A
C1082  C1084   1.391   .     A
C1082  H1126   1.086   .     S
C1082  C1093   1.385   .     A
C1083  C1111   1.447   .     S
C1083  C1112   1.389   .     A
C1083  C1085   1.410   .     A
C1084  C1086   1.414   .     A
C1084  C1110   1.448   .     S
C1085  C1087   1.422   .     A
C1085  C1096   1.486   .     S
C1086  C1097   1.488   .     S
C1086  C1088   1.420   .     A
C1087  C1089   1.424   .     A
C1087  C1094   1.425   .     A
C1088  C1090   1.423   .     A
C1088  C1095   1.425   .     A
C1089  C1091   1.409   .     A
C1089  C1018   1.407   1_655 S
C1090  C1093   1.407   .     A
C1091  C1107   1.394   .     A
C1091  C1112   1.385   .     A
C1092  C1109   1.431   .     S
C1092  O1147   1.293   .     A
C1092  O1145   1.290   .     A
C1093  C1103   1.394   .     A
C1094  C1098   1.484   .     S
C1094  C1031   1.397   1_655 S
C1095  C1099   1.480   .     S
C1096  O1152   1.221   .     D
C1096  H1130   1.085   .     S
C1097  O1138   1.219   .     D
C1097  H1131   1.085   .     S
C1098  H1132   1.084   .     S
C1099  O1140   1.221   .     D
C1099  H1277   1.086   .     S
C1100  H1134   1.085   .     S
C1100  O1141   1.221   .     D
C1100  C1252   1.495   .     S
C1101  H1116   1.085   .     S
C1101  O1142   1.222   .     D
C1102  O1143   1.405   .     S
C1102  C1104   1.517   .     S
C1102  H1118   1.115   .     S
C1102  H253    1.106   1_556 S
C1103  H1128   1.085   .     S
C1104  H1121   1.111   .     S
C1104  H1120   1.107   .     S
C1104  H1119   1.111   .     S
C1105  H1122   1.116   .     S
C1105  C1106   1.518   .     S
C1105  O1144   1.405   .     S
C1106  H1124   1.111   .     S
C1106  H1127   1.110   .     S
C1106  H1125   1.105   .     S
C1107  H1129   1.086   .     S
C1107  C1023   1.393   1_655 S
C1109  C1252   1.357   .     S
C1109  C1245   1.494   .     S
C1110  O1148   1.299   .     A
C1110  O1150   1.294   .     A
C1111  O1151   1.294   .     A
C1111  O1149   1.298   .     A
C1112  H1115   1.086   .     S
Cu1113 N1136   2.029   .     S
Cu1113 O1137   1.972   .     S
Cu1113 Cu1114  2.700   .     S
Cu1113 O1151   1.948   .     S
Cu1113 O1147   1.963   .     S
Cu1113 O1148   1.966   .     S
Cu1114 O1150   1.948   .     S
Cu1114 O1146   1.963   .     S
Cu1114 N1135   2.029   .     S
Cu1114 O1149   1.966   .     S
Cu1114 O1145   1.972   .     S
H1123  C241    1.108   1_556 S
N1136  N271    1.298   1_556 S
N1136  O280    1.341   1_556 S
O1139  C1242   1.222   .     S
O1143  N271    1.342   1_556 S
C1153  C1180   1.431   .     S
C1153  O1209   1.291   .     A
C1153  O1218   1.292   .     A
C1154  C1156   1.391   .     A
C1154  H1198   1.086   .     S
C1154  C1165   1.385   .     A
C1155  C1183   1.447   .     S
C1155  C1184   1.389   .     A
C1155  C1157   1.410   .     A
C1156  C1158   1.414   .     A
C1156  C1182   1.448   .     S
C1157  C1159   1.422   .     A
C1157  C1168   1.486   .     S
C1158  C1169   1.488   .     S
C1158  C1160   1.420   .     A
C1159  C1161   1.424   .     A
C1159  C1166   1.425   .     A
C1160  C1162   1.423   .     A
C1160  C1167   1.425   .     A
C1161  C1163   1.409   .     A
C1161  C1234   1.407   .     S
C1162  C1165   1.407   .     A
C1162  C1233   1.407   1_455 S
C1163  C1179   1.394   .     A
C1163  C1184   1.385   .     A
C1164  C1181   1.431   .     S
C1164  O1219   1.293   .     A
C1164  O1217   1.290   .     A
C1165  C1175   1.394   .     A
C1166  C1170   1.484   .     S
C1166  C1247   1.397   .     S
C1167  C1171   1.480   .     S
C1167  C1251   1.393   1_455 S
C1168  O1224   1.221   .     D
C1168  H1202   1.085   .     S
C1169  O1210   1.219   .     D
C1169  H1203   1.085   .     S
C1170  H1204   1.084   .     S
C1171  O1212   1.221   .     D
C1171  H917    1.086   1_565 S
C1172  H1206   1.085   .     S
C1172  O1213   1.221   .     D
C1172  C892    1.495   1_565 S
C1173  H1188   1.085   .     S
C1173  O1214   1.222   .     D
C1174  O1215   1.405   .     S
C1174  C1176   1.517   .     S
C1174  H1190   1.115   .     S
C1174  H325    1.106   1_556 S
C1175  H1200   1.085   .     S
C1175  C1238   1.397   1_455 S
C1176  H1193   1.111   .     S
C1176  H1192   1.107   .     S
C1176  H1191   1.111   .     S
C1177  H1194   1.116   .     S
C1177  C1178   1.518   .     S
C1177  O1216   1.405   .     S
C1178  H1196   1.111   .     S
C1178  H1199   1.110   .     S
C1178  H1197   1.105   .     S
C1179  H1201   1.086   .     S
C1179  C1239   1.393   .     S
C1181  C892    1.357   1_565 S
C1181  C885    1.494   1_565 S
C1182  O1220   1.299   .     A
C1182  O1222   1.294   .     A
C1183  O1223   1.294   .     A
C1183  O1221   1.298   .     A
C1184  H1187   1.086   .     S
Cu1185 N1208   2.029   .     S
Cu1185 O1209   1.972   .     S
Cu1185 Cu1186  2.700   .     S
Cu1185 O1223   1.948   .     S
Cu1185 O1219   1.963   .     S
Cu1185 O1220   1.966   .     S
Cu1186 O1222   1.948   .     S
Cu1186 O1218   1.963   .     S
Cu1186 N1207   2.029   .     S
Cu1186 O1221   1.966   .     S
Cu1186 O1217   1.972   .     S
H1195  C313    1.108   1_556 S
N1208  N343    1.298   1_556 S
N1208  O352    1.341   1_556 S
O1211  C882    1.222   1_565 S
O1215  N343    1.342   1_556 S
C1225  C1252   1.431   .     S
C1225  O1281   1.291   .     A
C1225  O1290   1.292   .     A
C1226  C1228   1.391   .     A
C1226  H1270   1.086   .     S
C1226  C1237   1.385   .     A
C1227  C1255   1.447   .     S
C1227  C1256   1.389   .     A
C1227  C1229   1.410   .     A
C1228  C1230   1.414   .     A
C1228  C1254   1.448   .     S
C1229  C1231   1.422   .     A
C1229  C1240   1.486   .     S
C1230  C1241   1.488   .     S
C1230  C1232   1.420   .     A
C1231  C1233   1.424   .     A
C1231  C1238   1.425   .     A
C1232  C1234   1.423   .     A
C1232  C1239   1.425   .     A
C1233  C1235   1.409   .     A
C1233  C1162   1.407   1_655 S
C1234  C1237   1.407   .     A
C1235  C1251   1.394   .     A
C1235  C1256   1.385   .     A
C1236  C1253   1.431   .     S
C1236  O1291   1.293   .     A
C1236  O1289   1.290   .     A
C1237  C1247   1.394   .     A
C1238  C1242   1.484   .     S
C1238  C1175   1.397   1_655 S
C1239  C1243   1.480   .     S
C1240  O1296   1.221   .     D
C1240  H1274   1.085   .     S
C1241  O1282   1.219   .     D
C1241  H1275   1.085   .     S
C1242  H1276   1.084   .     S
C1243  O1284   1.221   .     D
C1243  H989    1.086   1_565 S
C1244  H1278   1.085   .     S
C1244  O1285   1.221   .     D
C1244  C964    1.495   1_565 S
C1245  H1260   1.085   .     S
C1245  O1286   1.222   .     D
C1246  O1287   1.405   .     S
C1246  C1248   1.517   .     S
C1246  H1262   1.115   .     S
C1246  H397    1.106   1_556 S
C1247  H1272   1.085   .     S
C1248  H1265   1.111   .     S
C1248  H1264   1.107   .     S
C1248  H1263   1.111   .     S
C1249  H1266   1.116   .     S
C1249  C1250   1.518   .     S
C1249  O1288   1.405   .     S
C1250  H1268   1.111   .     S
C1250  H1271   1.110   .     S
C1250  H1269   1.105   .     S
C1251  H1273   1.086   .     S
C1251  C1167   1.393   1_655 S
C1253  C964    1.357   1_565 S
C1253  C957    1.494   1_565 S
C1254  O1292   1.299   .     A
C1254  O1294   1.294   .     A
C1255  O1295   1.294   .     A
C1255  O1293   1.298   .     A
C1256  H1259   1.086   .     S
Cu1257 N1280   2.029   .     S
Cu1257 O1281   1.972   .     S
Cu1257 Cu1258  2.700   .     S
Cu1257 O1295   1.948   .     S
Cu1257 O1291   1.963   .     S
Cu1257 O1292   1.966   .     S
Cu1258 O1294   1.948   .     S
Cu1258 O1290   1.963   .     S
Cu1258 N1279   2.029   .     S
Cu1258 O1293   1.966   .     S
Cu1258 O1289   1.972   .     S
H1267  C385    1.108   1_556 S
N1280  N415    1.298   1_556 S
N1280  O424    1.341   1_556 S
O1283  C954    1.222   1_565 S
O1287  N415    1.342   1_556 S
