data_str_m2_o1_o17_pcu_sym.70
_audit_creation_date              2020-01-03
_audit_creation_method            'Materials Studio'
_symmetry_space_group_name_H-M    'P1'
_symmetry_Int_Tables_number       1
_symmetry_cell_setting            triclinic
loop_
_symmetry_equiv_pos_as_xyz
  x,y,z
_cell_length_a                    32.2902
_cell_length_b                    28.5762
_cell_length_c                    30.2902
_cell_angle_alpha                 89.7521
_cell_angle_beta                  90.6414
_cell_angle_gamma                 89.9206
loop_
_atom_site_label
_atom_site_type_symbol
_atom_site_fract_x
_atom_site_fract_y
_atom_site_fract_z
_atom_site_U_iso_or_equiv
_atom_site_adp_type
_atom_site_occupancy
Br1    Br    0.12190   0.30549   0.04759   0.00000  Uiso   1.00
Br2    Br    0.21145   0.02785   0.45241   0.00000  Uiso   1.00
Br3    Br    0.05289   0.13453   0.34066   0.00000  Uiso   1.00
Br4    Br    0.28044   0.19880   0.15934   0.00000  Uiso   1.00
Br5    Br    0.28292   0.13523   0.34110   0.00000  Uiso   1.00
Br6    Br    0.05042   0.19810   0.15890   0.00000  Uiso   1.00
C7     C     0.08747   0.16669   0.24984   0.00000  Uiso   1.00
C8     C     0.04287   0.16669   0.24991   0.00000  Uiso   1.00
C9     C     0.14025   0.02496   0.22302   0.00000  Uiso   1.00
C10    C     0.19308   0.30837   0.27698   0.00000  Uiso   1.00
C11    C     0.19313   0.02460   0.27692   0.00000  Uiso   1.00
C12    C     0.14020   0.30874   0.22308   0.00000  Uiso   1.00
C13    C     0.16670   0.16677   0.16431   0.00000  Uiso   1.00
C14    C     0.16663   0.16656   0.33569   0.00000  Uiso   1.00
C15    C     0.18017   0.12659   0.40749   0.00000  Uiso   1.00
C16    C     0.15316   0.20674   0.09251   0.00000  Uiso   1.00
C17    C     0.16641   0.16628   0.38413   0.00000  Uiso   1.00
C18    C     0.24586   0.16665   0.25016   0.00000  Uiso   1.00
C19    C     0.16692   0.16706   0.11587   0.00000  Uiso   1.00
C20    C     0.15245   0.20571   0.40683   0.00000  Uiso   1.00
C21    C     0.18088   0.12762   0.09317   0.00000  Uiso   1.00
C22    C     0.15278   0.20627   0.45299   0.00000  Uiso   1.00
C23    C     0.18055   0.12707   0.04701   0.00000  Uiso   1.00
C24    C     0.16660   0.16633   0.47672   0.00000  Uiso   1.00
C25    C     0.16673   0.16700   0.02328   0.00000  Uiso   1.00
C26    C     0.18019   0.12580   0.45391   0.00000  Uiso   1.00
C27    C     0.15314   0.20753   0.04609   0.00000  Uiso   1.00
C28    C     0.13957   0.24622   0.47571   0.00000  Uiso   1.00
C29    C     0.13982   0.24732   0.02166   0.00000  Uiso   1.00
C30    C     0.19377   0.08712   0.02429   0.00000  Uiso   1.00
C31    C     0.19352   0.08601   0.47834   0.00000  Uiso   1.00
C32    C     0.02212   0.15254   0.28820   0.00000  Uiso   1.00
C33    C     0.31122   0.18080   0.21180   0.00000  Uiso   1.00
C34    C     0.31223   0.15259   0.28831   0.00000  Uiso   1.00
C35    C     0.02110   0.18075   0.21169   0.00000  Uiso   1.00
C36    C     0.29046   0.16664   0.25009   0.00000  Uiso   1.00
Cu37   Cu    0.16667   0.21355   0.25000   0.00000  Uiso   1.00
Cu38   Cu    0.16667   0.11978   0.25000   0.00000  Uiso   1.00
F39    F     0.19450   0.08954   0.38440   0.00000  Uiso   1.00
F40    F     0.11344   0.28572   0.19618   0.00000  Uiso   1.00
F41    F     0.13883   0.24379   0.11560   0.00000  Uiso   1.00
F42    F     0.13784   0.24330   0.38374   0.00000  Uiso   1.00
F43    F     0.19550   0.09003   0.11626   0.00000  Uiso   1.00
F44    F     0.12644   0.28492   0.45332   0.00000  Uiso   1.00
F45    F     0.20690   0.04842   0.04668   0.00000  Uiso   1.00
F46    F     0.11375   0.04837   0.19581   0.00000  Uiso   1.00
F47    F     0.21958   0.28497   0.30419   0.00000  Uiso   1.00
F48    F     0.21989   0.04761   0.30382   0.00000  Uiso   1.00
N49    N     0.16667   0.28402   0.25000   0.00000  Uiso   1.00
N50    N     0.16667   0.04931   0.25000   0.00000  Uiso   1.00
O51    O     0.10655   0.20625   0.25000   0.00000  Uiso   1.00
O52    O     0.22679   0.12709   0.25000   0.00000  Uiso   1.00
O53    O     0.22679   0.20625   0.25001   0.00000  Uiso   1.00
O54    O     0.10655   0.12709   0.25000   0.00000  Uiso   1.00
O55    O     0.16666   0.20627   0.18513   0.00000  Uiso   1.00
O56    O     0.16668   0.12707   0.31487   0.00000  Uiso   1.00
O57    O     0.16668   0.20627   0.31487   0.00000  Uiso   1.00
O58    O     0.16666   0.12707   0.18513   0.00000  Uiso   1.00
Br59   Br    0.45523   0.30549   0.04759   0.00000  Uiso   1.00
Br60   Br    0.54478   0.02785   0.45241   0.00000  Uiso   1.00
Br61   Br    0.38622   0.13453   0.34066   0.00000  Uiso   1.00
Br62   Br    0.61378   0.19880   0.15934   0.00000  Uiso   1.00
Br63   Br    0.61625   0.13523   0.34110   0.00000  Uiso   1.00
Br64   Br    0.38375   0.19810   0.15890   0.00000  Uiso   1.00
C65    C     0.42081   0.16669   0.24984   0.00000  Uiso   1.00
C66    C     0.37620   0.16669   0.24991   0.00000  Uiso   1.00
C67    C     0.47358   0.02496   0.22302   0.00000  Uiso   1.00
C68    C     0.52642   0.30837   0.27698   0.00000  Uiso   1.00
C69    C     0.52646   0.02460   0.27692   0.00000  Uiso   1.00
C70    C     0.47354   0.30874   0.22308   0.00000  Uiso   1.00
C71    C     0.50003   0.16677   0.16431   0.00000  Uiso   1.00
C72    C     0.49997   0.16656   0.33569   0.00000  Uiso   1.00
C73    C     0.51350   0.12659   0.40749   0.00000  Uiso   1.00
C74    C     0.48650   0.20674   0.09251   0.00000  Uiso   1.00
C75    C     0.49975   0.16628   0.38413   0.00000  Uiso   1.00
C76    C     0.57919   0.16665   0.25016   0.00000  Uiso   1.00
C77    C     0.50026   0.16706   0.11587   0.00000  Uiso   1.00
C78    C     0.48579   0.20571   0.40683   0.00000  Uiso   1.00
C79    C     0.51421   0.12762   0.09317   0.00000  Uiso   1.00
C80    C     0.48612   0.20627   0.45299   0.00000  Uiso   1.00
C81    C     0.51389   0.12707   0.04701   0.00000  Uiso   1.00
C82    C     0.49993   0.16633   0.47672   0.00000  Uiso   1.00
C83    C     0.50007   0.16700   0.02328   0.00000  Uiso   1.00
C84    C     0.51353   0.12580   0.45391   0.00000  Uiso   1.00
C85    C     0.48648   0.20753   0.04609   0.00000  Uiso   1.00
C86    C     0.47290   0.24622   0.47571   0.00000  Uiso   1.00
C87    C     0.47315   0.24732   0.02166   0.00000  Uiso   1.00
C88    C     0.52710   0.08712   0.02429   0.00000  Uiso   1.00
C89    C     0.52685   0.08601   0.47834   0.00000  Uiso   1.00
C90    C     0.35545   0.15254   0.28820   0.00000  Uiso   1.00
C91    C     0.64455   0.18080   0.21180   0.00000  Uiso   1.00
C92    C     0.64557   0.15259   0.28831   0.00000  Uiso   1.00
C93    C     0.35443   0.18075   0.21169   0.00000  Uiso   1.00
C94    C     0.62380   0.16664   0.25009   0.00000  Uiso   1.00
Cu95   Cu    0.50000   0.21355   0.25000   0.00000  Uiso   1.00
Cu96   Cu    0.50000   0.11978   0.25000   0.00000  Uiso   1.00
F97    F     0.52784   0.08954   0.38440   0.00000  Uiso   1.00
F98    F     0.44678   0.28572   0.19618   0.00000  Uiso   1.00
F99    F     0.47216   0.24379   0.11560   0.00000  Uiso   1.00
F100   F     0.47117   0.24330   0.38374   0.00000  Uiso   1.00
F101   F     0.52883   0.09003   0.11626   0.00000  Uiso   1.00
F102   F     0.45978   0.28492   0.45332   0.00000  Uiso   1.00
F103   F     0.54023   0.04842   0.04668   0.00000  Uiso   1.00
F104   F     0.44709   0.04837   0.19581   0.00000  Uiso   1.00
F105   F     0.55291   0.28497   0.30419   0.00000  Uiso   1.00
F106   F     0.55322   0.04761   0.30382   0.00000  Uiso   1.00
N107   N     0.50000   0.28402   0.25000   0.00000  Uiso   1.00
N108   N     0.50000   0.04931   0.25000   0.00000  Uiso   1.00
O109   O     0.43988   0.20625   0.25000   0.00000  Uiso   1.00
O110   O     0.56012   0.12709   0.25000   0.00000  Uiso   1.00
O111   O     0.56012   0.20625   0.25001   0.00000  Uiso   1.00
O112   O     0.43988   0.12709   0.25000   0.00000  Uiso   1.00
O113   O     0.49999   0.20627   0.18513   0.00000  Uiso   1.00
O114   O     0.50001   0.12707   0.31487   0.00000  Uiso   1.00
O115   O     0.50001   0.20627   0.31487   0.00000  Uiso   1.00
O116   O     0.49999   0.12707   0.18513   0.00000  Uiso   1.00
Br117  Br    0.78856   0.30549   0.04759   0.00000  Uiso   1.00
Br118  Br    0.87812   0.02785   0.45241   0.00000  Uiso   1.00
Br119  Br    0.71956   0.13453   0.34066   0.00000  Uiso   1.00
Br120  Br    0.94711   0.19880   0.15934   0.00000  Uiso   1.00
Br121  Br    0.94959   0.13523   0.34110   0.00000  Uiso   1.00
Br122  Br    0.71708   0.19810   0.15890   0.00000  Uiso   1.00
C123   C     0.75414   0.16669   0.24984   0.00000  Uiso   1.00
C124   C     0.70954   0.16669   0.24991   0.00000  Uiso   1.00
C125   C     0.80692   0.02496   0.22302   0.00000  Uiso   1.00
C126   C     0.85975   0.30837   0.27698   0.00000  Uiso   1.00
C127   C     0.85980   0.02460   0.27692   0.00000  Uiso   1.00
C128   C     0.80687   0.30874   0.22308   0.00000  Uiso   1.00
C129   C     0.83337   0.16677   0.16431   0.00000  Uiso   1.00
C130   C     0.83330   0.16656   0.33569   0.00000  Uiso   1.00
C131   C     0.84684   0.12659   0.40749   0.00000  Uiso   1.00
C132   C     0.81983   0.20674   0.09251   0.00000  Uiso   1.00
C133   C     0.83308   0.16628   0.38413   0.00000  Uiso   1.00
C134   C     0.91253   0.16665   0.25016   0.00000  Uiso   1.00
C135   C     0.83359   0.16706   0.11587   0.00000  Uiso   1.00
C136   C     0.81912   0.20571   0.40683   0.00000  Uiso   1.00
C137   C     0.84755   0.12762   0.09317   0.00000  Uiso   1.00
C138   C     0.81945   0.20627   0.45299   0.00000  Uiso   1.00
C139   C     0.84722   0.12707   0.04701   0.00000  Uiso   1.00
C140   C     0.83327   0.16633   0.47672   0.00000  Uiso   1.00
C141   C     0.83340   0.16700   0.02328   0.00000  Uiso   1.00
C142   C     0.84686   0.12580   0.45391   0.00000  Uiso   1.00
C143   C     0.81981   0.20753   0.04609   0.00000  Uiso   1.00
C144   C     0.80624   0.24622   0.47571   0.00000  Uiso   1.00
C145   C     0.80649   0.24732   0.02166   0.00000  Uiso   1.00
C146   C     0.86043   0.08712   0.02429   0.00000  Uiso   1.00
C147   C     0.86018   0.08601   0.47834   0.00000  Uiso   1.00
C148   C     0.68878   0.15254   0.28820   0.00000  Uiso   1.00
C149   C     0.97788   0.18080   0.21180   0.00000  Uiso   1.00
C150   C     0.97890   0.15259   0.28831   0.00000  Uiso   1.00
C151   C     0.68777   0.18075   0.21169   0.00000  Uiso   1.00
C152   C     0.95713   0.16664   0.25009   0.00000  Uiso   1.00
Cu153  Cu    0.83333   0.21355   0.25000   0.00000  Uiso   1.00
Cu154  Cu    0.83333   0.11978   0.25000   0.00000  Uiso   1.00
F155   F     0.86117   0.08954   0.38440   0.00000  Uiso   1.00
F156   F     0.78011   0.28572   0.19618   0.00000  Uiso   1.00
F157   F     0.80550   0.24379   0.11560   0.00000  Uiso   1.00
F158   F     0.80451   0.24330   0.38374   0.00000  Uiso   1.00
F159   F     0.86216   0.09003   0.11626   0.00000  Uiso   1.00
F160   F     0.79311   0.28492   0.45332   0.00000  Uiso   1.00
F161   F     0.87357   0.04842   0.04668   0.00000  Uiso   1.00
F162   F     0.78042   0.04837   0.19581   0.00000  Uiso   1.00
F163   F     0.88625   0.28497   0.30419   0.00000  Uiso   1.00
F164   F     0.88656   0.04761   0.30382   0.00000  Uiso   1.00
N165   N     0.83333   0.28402   0.25000   0.00000  Uiso   1.00
N166   N     0.83333   0.04931   0.25000   0.00000  Uiso   1.00
O167   O     0.77321   0.20625   0.25000   0.00000  Uiso   1.00
O168   O     0.89345   0.12709   0.25000   0.00000  Uiso   1.00
O169   O     0.89345   0.20625   0.25001   0.00000  Uiso   1.00
O170   O     0.77321   0.12709   0.25000   0.00000  Uiso   1.00
O171   O     0.83332   0.20627   0.18513   0.00000  Uiso   1.00
O172   O     0.83334   0.12707   0.31487   0.00000  Uiso   1.00
O173   O     0.83334   0.20627   0.31487   0.00000  Uiso   1.00
O174   O     0.83332   0.12707   0.18513   0.00000  Uiso   1.00
Br175  Br    0.12190   0.63883   0.04759   0.00000  Uiso   1.00
Br176  Br    0.21145   0.36118   0.45241   0.00000  Uiso   1.00
Br177  Br    0.05289   0.46786   0.34066   0.00000  Uiso   1.00
Br178  Br    0.28044   0.53213   0.15934   0.00000  Uiso   1.00
Br179  Br    0.28292   0.46857   0.34110   0.00000  Uiso   1.00
Br180  Br    0.05042   0.53143   0.15890   0.00000  Uiso   1.00
C181   C     0.08747   0.50002   0.24984   0.00000  Uiso   1.00
C182   C     0.04287   0.50003   0.24991   0.00000  Uiso   1.00
C183   C     0.14025   0.35829   0.22302   0.00000  Uiso   1.00
C184   C     0.19308   0.64171   0.27698   0.00000  Uiso   1.00
C185   C     0.19313   0.35793   0.27692   0.00000  Uiso   1.00
C186   C     0.14020   0.64207   0.22308   0.00000  Uiso   1.00
C187   C     0.16670   0.50011   0.16431   0.00000  Uiso   1.00
C188   C     0.16663   0.49989   0.33569   0.00000  Uiso   1.00
C189   C     0.18017   0.45992   0.40749   0.00000  Uiso   1.00
C190   C     0.15316   0.54008   0.09251   0.00000  Uiso   1.00
C191   C     0.16641   0.49961   0.38413   0.00000  Uiso   1.00
C192   C     0.24586   0.49998   0.25016   0.00000  Uiso   1.00
C193   C     0.16692   0.50039   0.11587   0.00000  Uiso   1.00
C194   C     0.15245   0.53905   0.40683   0.00000  Uiso   1.00
C195   C     0.18088   0.46095   0.09317   0.00000  Uiso   1.00
C196   C     0.15278   0.53960   0.45299   0.00000  Uiso   1.00
C197   C     0.18055   0.46040   0.04701   0.00000  Uiso   1.00
C198   C     0.16660   0.49967   0.47672   0.00000  Uiso   1.00
C199   C     0.16673   0.50033   0.02328   0.00000  Uiso   1.00
C200   C     0.18019   0.45914   0.45391   0.00000  Uiso   1.00
C201   C     0.15314   0.54086   0.04609   0.00000  Uiso   1.00
C202   C     0.13957   0.57955   0.47571   0.00000  Uiso   1.00
C203   C     0.13982   0.58066   0.02166   0.00000  Uiso   1.00
C204   C     0.19377   0.42045   0.02429   0.00000  Uiso   1.00
C205   C     0.19352   0.41935   0.47834   0.00000  Uiso   1.00
C206   C     0.02212   0.48587   0.28820   0.00000  Uiso   1.00
C207   C     0.31122   0.51413   0.21180   0.00000  Uiso   1.00
C208   C     0.31223   0.48592   0.28831   0.00000  Uiso   1.00
C209   C     0.02110   0.51408   0.21169   0.00000  Uiso   1.00
C210   C     0.29046   0.49997   0.25009   0.00000  Uiso   1.00
Cu211  Cu    0.16667   0.54689   0.25000   0.00000  Uiso   1.00
Cu212  Cu    0.16667   0.45311   0.25000   0.00000  Uiso   1.00
F213   F     0.19450   0.42288   0.38440   0.00000  Uiso   1.00
F214   F     0.11344   0.61905   0.19618   0.00000  Uiso   1.00
F215   F     0.13883   0.57712   0.11560   0.00000  Uiso   1.00
F216   F     0.13784   0.57664   0.38374   0.00000  Uiso   1.00
F217   F     0.19550   0.42337   0.11626   0.00000  Uiso   1.00
F218   F     0.12644   0.61825   0.45332   0.00000  Uiso   1.00
F219   F     0.20690   0.38175   0.04668   0.00000  Uiso   1.00
F220   F     0.11375   0.38170   0.19581   0.00000  Uiso   1.00
F221   F     0.21958   0.61830   0.30419   0.00000  Uiso   1.00
F222   F     0.21989   0.38095   0.30382   0.00000  Uiso   1.00
N223   N     0.16667   0.61736   0.25000   0.00000  Uiso   1.00
N224   N     0.16667   0.38264   0.25000   0.00000  Uiso   1.00
O225   O     0.10655   0.53958   0.25000   0.00000  Uiso   1.00
O226   O     0.22679   0.46042   0.25000   0.00000  Uiso   1.00
O227   O     0.22679   0.53958   0.25001   0.00000  Uiso   1.00
O228   O     0.10655   0.46042   0.25000   0.00000  Uiso   1.00
O229   O     0.16666   0.53960   0.18513   0.00000  Uiso   1.00
O230   O     0.16668   0.46040   0.31487   0.00000  Uiso   1.00
O231   O     0.16668   0.53960   0.31487   0.00000  Uiso   1.00
O232   O     0.16666   0.46040   0.18513   0.00000  Uiso   1.00
Br233  Br    0.45523   0.63883   0.04759   0.00000  Uiso   1.00
Br234  Br    0.54478   0.36118   0.45241   0.00000  Uiso   1.00
Br235  Br    0.38622   0.46786   0.34066   0.00000  Uiso   1.00
Br236  Br    0.61378   0.53213   0.15934   0.00000  Uiso   1.00
Br237  Br    0.61625   0.46857   0.34110   0.00000  Uiso   1.00
Br238  Br    0.38375   0.53143   0.15890   0.00000  Uiso   1.00
C239   C     0.42081   0.50002   0.24984   0.00000  Uiso   1.00
C240   C     0.37620   0.50003   0.24991   0.00000  Uiso   1.00
C241   C     0.47358   0.35829   0.22302   0.00000  Uiso   1.00
C242   C     0.52642   0.64171   0.27698   0.00000  Uiso   1.00
C243   C     0.52646   0.35793   0.27692   0.00000  Uiso   1.00
C244   C     0.47354   0.64207   0.22308   0.00000  Uiso   1.00
C245   C     0.50003   0.50011   0.16431   0.00000  Uiso   1.00
C246   C     0.49997   0.49989   0.33569   0.00000  Uiso   1.00
C247   C     0.51350   0.45992   0.40749   0.00000  Uiso   1.00
C248   C     0.48650   0.54008   0.09251   0.00000  Uiso   1.00
C249   C     0.49975   0.49961   0.38413   0.00000  Uiso   1.00
C250   C     0.57919   0.49998   0.25016   0.00000  Uiso   1.00
C251   C     0.50026   0.50039   0.11587   0.00000  Uiso   1.00
C252   C     0.48579   0.53905   0.40683   0.00000  Uiso   1.00
C253   C     0.51421   0.46095   0.09317   0.00000  Uiso   1.00
C254   C     0.48612   0.53960   0.45299   0.00000  Uiso   1.00
C255   C     0.51389   0.46040   0.04701   0.00000  Uiso   1.00
C256   C     0.49993   0.49967   0.47672   0.00000  Uiso   1.00
C257   C     0.50007   0.50033   0.02328   0.00000  Uiso   1.00
C258   C     0.51353   0.45914   0.45391   0.00000  Uiso   1.00
C259   C     0.48648   0.54086   0.04609   0.00000  Uiso   1.00
C260   C     0.47290   0.57955   0.47571   0.00000  Uiso   1.00
C261   C     0.47315   0.58066   0.02166   0.00000  Uiso   1.00
C262   C     0.52710   0.42045   0.02429   0.00000  Uiso   1.00
C263   C     0.52685   0.41935   0.47834   0.00000  Uiso   1.00
C264   C     0.35545   0.48587   0.28820   0.00000  Uiso   1.00
C265   C     0.64455   0.51413   0.21180   0.00000  Uiso   1.00
C266   C     0.64557   0.48592   0.28831   0.00000  Uiso   1.00
C267   C     0.35443   0.51408   0.21169   0.00000  Uiso   1.00
C268   C     0.62380   0.49997   0.25009   0.00000  Uiso   1.00
Cu269  Cu    0.50000   0.54689   0.25000   0.00000  Uiso   1.00
Cu270  Cu    0.50000   0.45311   0.25000   0.00000  Uiso   1.00
F271   F     0.52784   0.42288   0.38440   0.00000  Uiso   1.00
F272   F     0.44678   0.61905   0.19618   0.00000  Uiso   1.00
F273   F     0.47216   0.57712   0.11560   0.00000  Uiso   1.00
F274   F     0.47117   0.57664   0.38374   0.00000  Uiso   1.00
F275   F     0.52883   0.42337   0.11626   0.00000  Uiso   1.00
F276   F     0.45978   0.61825   0.45332   0.00000  Uiso   1.00
F277   F     0.54023   0.38175   0.04668   0.00000  Uiso   1.00
F278   F     0.44709   0.38170   0.19581   0.00000  Uiso   1.00
F279   F     0.55291   0.61830   0.30419   0.00000  Uiso   1.00
F280   F     0.55322   0.38095   0.30382   0.00000  Uiso   1.00
N281   N     0.50000   0.61736   0.25000   0.00000  Uiso   1.00
N282   N     0.50000   0.38264   0.25000   0.00000  Uiso   1.00
O283   O     0.43988   0.53958   0.25000   0.00000  Uiso   1.00
O284   O     0.56012   0.46042   0.25000   0.00000  Uiso   1.00
O285   O     0.56012   0.53958   0.25001   0.00000  Uiso   1.00
O286   O     0.43988   0.46042   0.25000   0.00000  Uiso   1.00
O287   O     0.49999   0.53960   0.18513   0.00000  Uiso   1.00
O288   O     0.50001   0.46040   0.31487   0.00000  Uiso   1.00
O289   O     0.50001   0.53960   0.31487   0.00000  Uiso   1.00
O290   O     0.49999   0.46040   0.18513   0.00000  Uiso   1.00
Br291  Br    0.78856   0.63883   0.04759   0.00000  Uiso   1.00
Br292  Br    0.87812   0.36118   0.45241   0.00000  Uiso   1.00
Br293  Br    0.71956   0.46786   0.34066   0.00000  Uiso   1.00
Br294  Br    0.94711   0.53213   0.15934   0.00000  Uiso   1.00
Br295  Br    0.94959   0.46857   0.34110   0.00000  Uiso   1.00
Br296  Br    0.71708   0.53143   0.15890   0.00000  Uiso   1.00
C297   C     0.75414   0.50002   0.24984   0.00000  Uiso   1.00
C298   C     0.70954   0.50003   0.24991   0.00000  Uiso   1.00
C299   C     0.80692   0.35829   0.22302   0.00000  Uiso   1.00
C300   C     0.85975   0.64171   0.27698   0.00000  Uiso   1.00
C301   C     0.85980   0.35793   0.27692   0.00000  Uiso   1.00
C302   C     0.80687   0.64207   0.22308   0.00000  Uiso   1.00
C303   C     0.83337   0.50011   0.16431   0.00000  Uiso   1.00
C304   C     0.83330   0.49989   0.33569   0.00000  Uiso   1.00
C305   C     0.84684   0.45992   0.40749   0.00000  Uiso   1.00
C306   C     0.81983   0.54008   0.09251   0.00000  Uiso   1.00
C307   C     0.83308   0.49961   0.38413   0.00000  Uiso   1.00
C308   C     0.91253   0.49998   0.25016   0.00000  Uiso   1.00
C309   C     0.83359   0.50039   0.11587   0.00000  Uiso   1.00
C310   C     0.81912   0.53905   0.40683   0.00000  Uiso   1.00
C311   C     0.84755   0.46095   0.09317   0.00000  Uiso   1.00
C312   C     0.81945   0.53960   0.45299   0.00000  Uiso   1.00
C313   C     0.84722   0.46040   0.04701   0.00000  Uiso   1.00
C314   C     0.83327   0.49967   0.47672   0.00000  Uiso   1.00
C315   C     0.83340   0.50033   0.02328   0.00000  Uiso   1.00
C316   C     0.84686   0.45914   0.45391   0.00000  Uiso   1.00
C317   C     0.81981   0.54086   0.04609   0.00000  Uiso   1.00
C318   C     0.80624   0.57955   0.47571   0.00000  Uiso   1.00
C319   C     0.80649   0.58066   0.02166   0.00000  Uiso   1.00
C320   C     0.86043   0.42045   0.02429   0.00000  Uiso   1.00
C321   C     0.86018   0.41935   0.47834   0.00000  Uiso   1.00
C322   C     0.68878   0.48587   0.28820   0.00000  Uiso   1.00
C323   C     0.97788   0.51413   0.21180   0.00000  Uiso   1.00
C324   C     0.97890   0.48592   0.28831   0.00000  Uiso   1.00
C325   C     0.68777   0.51408   0.21169   0.00000  Uiso   1.00
C326   C     0.95713   0.49997   0.25009   0.00000  Uiso   1.00
Cu327  Cu    0.83333   0.54689   0.25000   0.00000  Uiso   1.00
Cu328  Cu    0.83333   0.45311   0.25000   0.00000  Uiso   1.00
F329   F     0.86117   0.42288   0.38440   0.00000  Uiso   1.00
F330   F     0.78011   0.61905   0.19618   0.00000  Uiso   1.00
F331   F     0.80550   0.57712   0.11560   0.00000  Uiso   1.00
F332   F     0.80451   0.57664   0.38374   0.00000  Uiso   1.00
F333   F     0.86216   0.42337   0.11626   0.00000  Uiso   1.00
F334   F     0.79311   0.61825   0.45332   0.00000  Uiso   1.00
F335   F     0.87357   0.38175   0.04668   0.00000  Uiso   1.00
F336   F     0.78042   0.38170   0.19581   0.00000  Uiso   1.00
F337   F     0.88625   0.61830   0.30419   0.00000  Uiso   1.00
F338   F     0.88656   0.38095   0.30382   0.00000  Uiso   1.00
N339   N     0.83333   0.61736   0.25000   0.00000  Uiso   1.00
N340   N     0.83333   0.38264   0.25000   0.00000  Uiso   1.00
O341   O     0.77321   0.53958   0.25000   0.00000  Uiso   1.00
O342   O     0.89345   0.46042   0.25000   0.00000  Uiso   1.00
O343   O     0.89345   0.53958   0.25001   0.00000  Uiso   1.00
O344   O     0.77321   0.46042   0.25000   0.00000  Uiso   1.00
O345   O     0.83332   0.53960   0.18513   0.00000  Uiso   1.00
O346   O     0.83334   0.46040   0.31487   0.00000  Uiso   1.00
O347   O     0.83334   0.53960   0.31487   0.00000  Uiso   1.00
O348   O     0.83332   0.46040   0.18513   0.00000  Uiso   1.00
Br349  Br    0.12190   0.97216   0.04759   0.00000  Uiso   1.00
Br350  Br    0.21145   0.69451   0.45241   0.00000  Uiso   1.00
Br351  Br    0.05289   0.80120   0.34066   0.00000  Uiso   1.00
Br352  Br    0.28044   0.86547   0.15934   0.00000  Uiso   1.00
Br353  Br    0.28292   0.80190   0.34110   0.00000  Uiso   1.00
Br354  Br    0.05042   0.86477   0.15890   0.00000  Uiso   1.00
C355   C     0.08747   0.83335   0.24984   0.00000  Uiso   1.00
C356   C     0.04287   0.83336   0.24991   0.00000  Uiso   1.00
C357   C     0.14025   0.69163   0.22302   0.00000  Uiso   1.00
C358   C     0.19308   0.97504   0.27698   0.00000  Uiso   1.00
C359   C     0.19313   0.69126   0.27692   0.00000  Uiso   1.00
C360   C     0.14020   0.97540   0.22308   0.00000  Uiso   1.00
C361   C     0.16670   0.83344   0.16431   0.00000  Uiso   1.00
C362   C     0.16663   0.83323   0.33569   0.00000  Uiso   1.00
C363   C     0.18017   0.79326   0.40749   0.00000  Uiso   1.00
C364   C     0.15316   0.87341   0.09251   0.00000  Uiso   1.00
C365   C     0.16641   0.83294   0.38413   0.00000  Uiso   1.00
C366   C     0.24586   0.83331   0.25016   0.00000  Uiso   1.00
C367   C     0.16692   0.83372   0.11587   0.00000  Uiso   1.00
C368   C     0.15245   0.87238   0.40683   0.00000  Uiso   1.00
C369   C     0.18088   0.79429   0.09317   0.00000  Uiso   1.00
C370   C     0.15278   0.87293   0.45299   0.00000  Uiso   1.00
C371   C     0.18055   0.79374   0.04701   0.00000  Uiso   1.00
C372   C     0.16660   0.83300   0.47672   0.00000  Uiso   1.00
C373   C     0.16673   0.83367   0.02328   0.00000  Uiso   1.00
C374   C     0.18019   0.79247   0.45391   0.00000  Uiso   1.00
C375   C     0.15314   0.87420   0.04609   0.00000  Uiso   1.00
C376   C     0.13957   0.91289   0.47571   0.00000  Uiso   1.00
C377   C     0.13982   0.91399   0.02166   0.00000  Uiso   1.00
C378   C     0.19377   0.75378   0.02429   0.00000  Uiso   1.00
C379   C     0.19352   0.75268   0.47834   0.00000  Uiso   1.00
C380   C     0.02212   0.81920   0.28820   0.00000  Uiso   1.00
C381   C     0.31122   0.84746   0.21180   0.00000  Uiso   1.00
C382   C     0.31223   0.81925   0.28831   0.00000  Uiso   1.00
C383   C     0.02110   0.84741   0.21169   0.00000  Uiso   1.00
C384   C     0.29046   0.83331   0.25009   0.00000  Uiso   1.00
Cu385  Cu    0.16667   0.88022   0.25000   0.00000  Uiso   1.00
Cu386  Cu    0.16667   0.78645   0.25000   0.00000  Uiso   1.00
F387   F     0.19450   0.75621   0.38440   0.00000  Uiso   1.00
F388   F     0.11344   0.95239   0.19618   0.00000  Uiso   1.00
F389   F     0.13883   0.91045   0.11560   0.00000  Uiso   1.00
F390   F     0.13784   0.90997   0.38374   0.00000  Uiso   1.00
F391   F     0.19550   0.75670   0.11626   0.00000  Uiso   1.00
F392   F     0.12644   0.95159   0.45332   0.00000  Uiso   1.00
F393   F     0.20690   0.71508   0.04668   0.00000  Uiso   1.00
F394   F     0.11375   0.71503   0.19581   0.00000  Uiso   1.00
F395   F     0.21958   0.95163   0.30419   0.00000  Uiso   1.00
F396   F     0.21989   0.71428   0.30382   0.00000  Uiso   1.00
N397   N     0.16667   0.95069   0.25000   0.00000  Uiso   1.00
N398   N     0.16667   0.71598   0.25000   0.00000  Uiso   1.00
O399   O     0.10655   0.87291   0.25000   0.00000  Uiso   1.00
O400   O     0.22679   0.79375   0.25000   0.00000  Uiso   1.00
O401   O     0.22679   0.87291   0.25001   0.00000  Uiso   1.00
O402   O     0.10655   0.79375   0.25000   0.00000  Uiso   1.00
O403   O     0.16666   0.87293   0.18513   0.00000  Uiso   1.00
O404   O     0.16668   0.79373   0.31487   0.00000  Uiso   1.00
O405   O     0.16668   0.87293   0.31487   0.00000  Uiso   1.00
O406   O     0.16666   0.79373   0.18513   0.00000  Uiso   1.00
Br407  Br    0.45523   0.97216   0.04759   0.00000  Uiso   1.00
Br408  Br    0.54478   0.69451   0.45241   0.00000  Uiso   1.00
Br409  Br    0.38622   0.80120   0.34066   0.00000  Uiso   1.00
Br410  Br    0.61378   0.86547   0.15934   0.00000  Uiso   1.00
Br411  Br    0.61625   0.80190   0.34110   0.00000  Uiso   1.00
Br412  Br    0.38375   0.86477   0.15890   0.00000  Uiso   1.00
C413   C     0.42081   0.83335   0.24984   0.00000  Uiso   1.00
C414   C     0.37620   0.83336   0.24991   0.00000  Uiso   1.00
C415   C     0.47358   0.69163   0.22302   0.00000  Uiso   1.00
C416   C     0.52642   0.97504   0.27698   0.00000  Uiso   1.00
C417   C     0.52646   0.69126   0.27692   0.00000  Uiso   1.00
C418   C     0.47354   0.97540   0.22308   0.00000  Uiso   1.00
C419   C     0.50003   0.83344   0.16431   0.00000  Uiso   1.00
C420   C     0.49997   0.83323   0.33569   0.00000  Uiso   1.00
C421   C     0.51350   0.79326   0.40749   0.00000  Uiso   1.00
C422   C     0.48650   0.87341   0.09251   0.00000  Uiso   1.00
C423   C     0.49975   0.83294   0.38413   0.00000  Uiso   1.00
C424   C     0.57919   0.83331   0.25016   0.00000  Uiso   1.00
C425   C     0.50026   0.83372   0.11587   0.00000  Uiso   1.00
C426   C     0.48579   0.87238   0.40683   0.00000  Uiso   1.00
C427   C     0.51421   0.79429   0.09317   0.00000  Uiso   1.00
C428   C     0.48612   0.87293   0.45299   0.00000  Uiso   1.00
C429   C     0.51389   0.79374   0.04701   0.00000  Uiso   1.00
C430   C     0.49993   0.83300   0.47672   0.00000  Uiso   1.00
C431   C     0.50007   0.83367   0.02328   0.00000  Uiso   1.00
C432   C     0.51353   0.79247   0.45391   0.00000  Uiso   1.00
C433   C     0.48648   0.87420   0.04609   0.00000  Uiso   1.00
C434   C     0.47290   0.91289   0.47571   0.00000  Uiso   1.00
C435   C     0.47315   0.91399   0.02166   0.00000  Uiso   1.00
C436   C     0.52710   0.75378   0.02429   0.00000  Uiso   1.00
C437   C     0.52685   0.75268   0.47834   0.00000  Uiso   1.00
C438   C     0.35545   0.81920   0.28820   0.00000  Uiso   1.00
C439   C     0.64455   0.84746   0.21180   0.00000  Uiso   1.00
C440   C     0.64557   0.81925   0.28831   0.00000  Uiso   1.00
C441   C     0.35443   0.84741   0.21169   0.00000  Uiso   1.00
C442   C     0.62380   0.83331   0.25009   0.00000  Uiso   1.00
Cu443  Cu    0.50000   0.88022   0.25000   0.00000  Uiso   1.00
Cu444  Cu    0.50000   0.78645   0.25000   0.00000  Uiso   1.00
F445   F     0.52784   0.75621   0.38440   0.00000  Uiso   1.00
F446   F     0.44678   0.95239   0.19618   0.00000  Uiso   1.00
F447   F     0.47216   0.91045   0.11560   0.00000  Uiso   1.00
F448   F     0.47117   0.90997   0.38374   0.00000  Uiso   1.00
F449   F     0.52883   0.75670   0.11626   0.00000  Uiso   1.00
F450   F     0.45978   0.95159   0.45332   0.00000  Uiso   1.00
F451   F     0.54023   0.71508   0.04668   0.00000  Uiso   1.00
F452   F     0.44709   0.71503   0.19581   0.00000  Uiso   1.00
F453   F     0.55291   0.95163   0.30419   0.00000  Uiso   1.00
F454   F     0.55322   0.71428   0.30382   0.00000  Uiso   1.00
N455   N     0.50000   0.95069   0.25000   0.00000  Uiso   1.00
N456   N     0.50000   0.71598   0.25000   0.00000  Uiso   1.00
O457   O     0.43988   0.87291   0.25000   0.00000  Uiso   1.00
O458   O     0.56012   0.79375   0.25000   0.00000  Uiso   1.00
O459   O     0.56012   0.87291   0.25001   0.00000  Uiso   1.00
O460   O     0.43988   0.79375   0.25000   0.00000  Uiso   1.00
O461   O     0.49999   0.87293   0.18513   0.00000  Uiso   1.00
O462   O     0.50001   0.79373   0.31487   0.00000  Uiso   1.00
O463   O     0.50001   0.87293   0.31487   0.00000  Uiso   1.00
O464   O     0.49999   0.79373   0.18513   0.00000  Uiso   1.00
Br465  Br    0.78856   0.97216   0.04759   0.00000  Uiso   1.00
Br466  Br    0.87812   0.69451   0.45241   0.00000  Uiso   1.00
Br467  Br    0.71956   0.80120   0.34066   0.00000  Uiso   1.00
Br468  Br    0.94711   0.86547   0.15934   0.00000  Uiso   1.00
Br469  Br    0.94959   0.80190   0.34110   0.00000  Uiso   1.00
Br470  Br    0.71708   0.86477   0.15890   0.00000  Uiso   1.00
C471   C     0.75414   0.83335   0.24984   0.00000  Uiso   1.00
C472   C     0.70954   0.83336   0.24991   0.00000  Uiso   1.00
C473   C     0.80692   0.69163   0.22302   0.00000  Uiso   1.00
C474   C     0.85975   0.97504   0.27698   0.00000  Uiso   1.00
C475   C     0.85980   0.69126   0.27692   0.00000  Uiso   1.00
C476   C     0.80687   0.97540   0.22308   0.00000  Uiso   1.00
C477   C     0.83337   0.83344   0.16431   0.00000  Uiso   1.00
C478   C     0.83330   0.83323   0.33569   0.00000  Uiso   1.00
C479   C     0.84684   0.79326   0.40749   0.00000  Uiso   1.00
C480   C     0.81983   0.87341   0.09251   0.00000  Uiso   1.00
C481   C     0.83308   0.83294   0.38413   0.00000  Uiso   1.00
C482   C     0.91253   0.83331   0.25016   0.00000  Uiso   1.00
C483   C     0.83359   0.83372   0.11587   0.00000  Uiso   1.00
C484   C     0.81912   0.87238   0.40683   0.00000  Uiso   1.00
C485   C     0.84755   0.79429   0.09317   0.00000  Uiso   1.00
C486   C     0.81945   0.87293   0.45299   0.00000  Uiso   1.00
C487   C     0.84722   0.79374   0.04701   0.00000  Uiso   1.00
C488   C     0.83327   0.83300   0.47672   0.00000  Uiso   1.00
C489   C     0.83340   0.83367   0.02328   0.00000  Uiso   1.00
C490   C     0.84686   0.79247   0.45391   0.00000  Uiso   1.00
C491   C     0.81981   0.87420   0.04609   0.00000  Uiso   1.00
C492   C     0.80624   0.91289   0.47571   0.00000  Uiso   1.00
C493   C     0.80649   0.91399   0.02166   0.00000  Uiso   1.00
C494   C     0.86043   0.75378   0.02429   0.00000  Uiso   1.00
C495   C     0.86018   0.75268   0.47834   0.00000  Uiso   1.00
C496   C     0.68878   0.81920   0.28820   0.00000  Uiso   1.00
C497   C     0.97788   0.84746   0.21180   0.00000  Uiso   1.00
C498   C     0.97890   0.81925   0.28831   0.00000  Uiso   1.00
C499   C     0.68777   0.84741   0.21169   0.00000  Uiso   1.00
C500   C     0.95713   0.83331   0.25009   0.00000  Uiso   1.00
Cu501  Cu    0.83333   0.88022   0.25000   0.00000  Uiso   1.00
Cu502  Cu    0.83333   0.78645   0.25000   0.00000  Uiso   1.00
F503   F     0.86117   0.75621   0.38440   0.00000  Uiso   1.00
F504   F     0.78011   0.95239   0.19618   0.00000  Uiso   1.00
F505   F     0.80550   0.91045   0.11560   0.00000  Uiso   1.00
F506   F     0.80451   0.90997   0.38374   0.00000  Uiso   1.00
F507   F     0.86216   0.75670   0.11626   0.00000  Uiso   1.00
F508   F     0.79311   0.95159   0.45332   0.00000  Uiso   1.00
F509   F     0.87357   0.71508   0.04668   0.00000  Uiso   1.00
F510   F     0.78042   0.71503   0.19581   0.00000  Uiso   1.00
F511   F     0.88625   0.95163   0.30419   0.00000  Uiso   1.00
F512   F     0.88656   0.71428   0.30382   0.00000  Uiso   1.00
N513   N     0.83333   0.95069   0.25000   0.00000  Uiso   1.00
N514   N     0.83333   0.71598   0.25000   0.00000  Uiso   1.00
O515   O     0.77321   0.87291   0.25000   0.00000  Uiso   1.00
O516   O     0.89345   0.79375   0.25000   0.00000  Uiso   1.00
O517   O     0.89345   0.87291   0.25001   0.00000  Uiso   1.00
O518   O     0.77321   0.79375   0.25000   0.00000  Uiso   1.00
O519   O     0.83332   0.87293   0.18513   0.00000  Uiso   1.00
O520   O     0.83334   0.79373   0.31487   0.00000  Uiso   1.00
O521   O     0.83334   0.87293   0.31487   0.00000  Uiso   1.00
O522   O     0.83332   0.79373   0.18513   0.00000  Uiso   1.00
Br523  Br    0.12190   0.30549   0.54759   0.00000  Uiso   1.00
Br524  Br    0.21145   0.02785   0.95241   0.00000  Uiso   1.00
Br525  Br    0.05289   0.13453   0.84066   0.00000  Uiso   1.00
Br526  Br    0.28044   0.19880   0.65934   0.00000  Uiso   1.00
Br527  Br    0.28292   0.13523   0.84110   0.00000  Uiso   1.00
Br528  Br    0.05042   0.19810   0.65890   0.00000  Uiso   1.00
C529   C     0.08747   0.16669   0.74984   0.00000  Uiso   1.00
C530   C     0.04287   0.16669   0.74991   0.00000  Uiso   1.00
C531   C     0.14025   0.02496   0.72302   0.00000  Uiso   1.00
C532   C     0.19308   0.30837   0.77698   0.00000  Uiso   1.00
C533   C     0.19313   0.02460   0.77692   0.00000  Uiso   1.00
C534   C     0.14020   0.30874   0.72308   0.00000  Uiso   1.00
C535   C     0.16670   0.16677   0.66431   0.00000  Uiso   1.00
C536   C     0.16663   0.16656   0.83569   0.00000  Uiso   1.00
C537   C     0.18017   0.12659   0.90749   0.00000  Uiso   1.00
C538   C     0.15316   0.20674   0.59251   0.00000  Uiso   1.00
C539   C     0.16641   0.16628   0.88413   0.00000  Uiso   1.00
C540   C     0.24586   0.16665   0.75016   0.00000  Uiso   1.00
C541   C     0.16692   0.16706   0.61587   0.00000  Uiso   1.00
C542   C     0.15245   0.20571   0.90683   0.00000  Uiso   1.00
C543   C     0.18088   0.12762   0.59317   0.00000  Uiso   1.00
C544   C     0.15278   0.20627   0.95299   0.00000  Uiso   1.00
C545   C     0.18055   0.12707   0.54701   0.00000  Uiso   1.00
C546   C     0.16660   0.16633   0.97672   0.00000  Uiso   1.00
C547   C     0.16673   0.16700   0.52328   0.00000  Uiso   1.00
C548   C     0.18019   0.12580   0.95391   0.00000  Uiso   1.00
C549   C     0.15314   0.20753   0.54609   0.00000  Uiso   1.00
C550   C     0.13957   0.24622   0.97571   0.00000  Uiso   1.00
C551   C     0.13982   0.24732   0.52166   0.00000  Uiso   1.00
C552   C     0.19377   0.08712   0.52429   0.00000  Uiso   1.00
C553   C     0.19352   0.08601   0.97834   0.00000  Uiso   1.00
C554   C     0.02212   0.15254   0.78820   0.00000  Uiso   1.00
C555   C     0.31122   0.18080   0.71180   0.00000  Uiso   1.00
C556   C     0.31223   0.15259   0.78831   0.00000  Uiso   1.00
C557   C     0.02110   0.18075   0.71169   0.00000  Uiso   1.00
C558   C     0.29046   0.16664   0.75009   0.00000  Uiso   1.00
Cu559  Cu    0.16667   0.21355   0.75000   0.00000  Uiso   1.00
Cu560  Cu    0.16667   0.11978   0.75000   0.00000  Uiso   1.00
F561   F     0.19450   0.08954   0.88440   0.00000  Uiso   1.00
F562   F     0.11344   0.28572   0.69618   0.00000  Uiso   1.00
F563   F     0.13883   0.24379   0.61560   0.00000  Uiso   1.00
F564   F     0.13784   0.24330   0.88374   0.00000  Uiso   1.00
F565   F     0.19550   0.09003   0.61626   0.00000  Uiso   1.00
F566   F     0.12644   0.28492   0.95332   0.00000  Uiso   1.00
F567   F     0.20690   0.04842   0.54668   0.00000  Uiso   1.00
F568   F     0.11375   0.04837   0.69581   0.00000  Uiso   1.00
F569   F     0.21958   0.28497   0.80419   0.00000  Uiso   1.00
F570   F     0.21989   0.04761   0.80382   0.00000  Uiso   1.00
N571   N     0.16667   0.28402   0.75000   0.00000  Uiso   1.00
N572   N     0.16667   0.04931   0.75000   0.00000  Uiso   1.00
O573   O     0.10655   0.20625   0.75000   0.00000  Uiso   1.00
O574   O     0.22679   0.12709   0.75000   0.00000  Uiso   1.00
O575   O     0.22679   0.20625   0.75001   0.00000  Uiso   1.00
O576   O     0.10655   0.12709   0.75000   0.00000  Uiso   1.00
O577   O     0.16666   0.20627   0.68513   0.00000  Uiso   1.00
O578   O     0.16668   0.12707   0.81487   0.00000  Uiso   1.00
O579   O     0.16668   0.20627   0.81487   0.00000  Uiso   1.00
O580   O     0.16666   0.12707   0.68513   0.00000  Uiso   1.00
Br581  Br    0.45523   0.30549   0.54759   0.00000  Uiso   1.00
Br582  Br    0.54478   0.02785   0.95241   0.00000  Uiso   1.00
Br583  Br    0.38622   0.13453   0.84066   0.00000  Uiso   1.00
Br584  Br    0.61378   0.19880   0.65934   0.00000  Uiso   1.00
Br585  Br    0.61625   0.13523   0.84110   0.00000  Uiso   1.00
Br586  Br    0.38375   0.19810   0.65890   0.00000  Uiso   1.00
C587   C     0.42081   0.16669   0.74984   0.00000  Uiso   1.00
C588   C     0.37620   0.16669   0.74991   0.00000  Uiso   1.00
C589   C     0.47358   0.02496   0.72302   0.00000  Uiso   1.00
C590   C     0.52642   0.30837   0.77698   0.00000  Uiso   1.00
C591   C     0.52646   0.02460   0.77692   0.00000  Uiso   1.00
C592   C     0.47354   0.30874   0.72308   0.00000  Uiso   1.00
C593   C     0.50003   0.16677   0.66431   0.00000  Uiso   1.00
C594   C     0.49997   0.16656   0.83569   0.00000  Uiso   1.00
C595   C     0.51350   0.12659   0.90749   0.00000  Uiso   1.00
C596   C     0.48650   0.20674   0.59251   0.00000  Uiso   1.00
C597   C     0.49975   0.16628   0.88413   0.00000  Uiso   1.00
C598   C     0.57919   0.16665   0.75016   0.00000  Uiso   1.00
C599   C     0.50026   0.16706   0.61587   0.00000  Uiso   1.00
C600   C     0.48579   0.20571   0.90683   0.00000  Uiso   1.00
C601   C     0.51421   0.12762   0.59317   0.00000  Uiso   1.00
C602   C     0.48612   0.20627   0.95299   0.00000  Uiso   1.00
C603   C     0.51389   0.12707   0.54701   0.00000  Uiso   1.00
C604   C     0.49993   0.16633   0.97672   0.00000  Uiso   1.00
C605   C     0.50007   0.16700   0.52328   0.00000  Uiso   1.00
C606   C     0.51353   0.12580   0.95391   0.00000  Uiso   1.00
C607   C     0.48648   0.20753   0.54609   0.00000  Uiso   1.00
C608   C     0.47290   0.24622   0.97571   0.00000  Uiso   1.00
C609   C     0.47315   0.24732   0.52166   0.00000  Uiso   1.00
C610   C     0.52710   0.08712   0.52429   0.00000  Uiso   1.00
C611   C     0.52685   0.08601   0.97834   0.00000  Uiso   1.00
C612   C     0.35545   0.15254   0.78820   0.00000  Uiso   1.00
C613   C     0.64455   0.18080   0.71180   0.00000  Uiso   1.00
C614   C     0.64557   0.15259   0.78831   0.00000  Uiso   1.00
C615   C     0.35443   0.18075   0.71169   0.00000  Uiso   1.00
C616   C     0.62380   0.16664   0.75009   0.00000  Uiso   1.00
Cu617  Cu    0.50000   0.21355   0.75000   0.00000  Uiso   1.00
Cu618  Cu    0.50000   0.11978   0.75000   0.00000  Uiso   1.00
F619   F     0.52784   0.08954   0.88440   0.00000  Uiso   1.00
F620   F     0.44678   0.28572   0.69618   0.00000  Uiso   1.00
F621   F     0.47216   0.24379   0.61560   0.00000  Uiso   1.00
F622   F     0.47117   0.24330   0.88374   0.00000  Uiso   1.00
F623   F     0.52883   0.09003   0.61626   0.00000  Uiso   1.00
F624   F     0.45978   0.28492   0.95332   0.00000  Uiso   1.00
F625   F     0.54023   0.04842   0.54668   0.00000  Uiso   1.00
F626   F     0.44709   0.04837   0.69581   0.00000  Uiso   1.00
F627   F     0.55291   0.28497   0.80419   0.00000  Uiso   1.00
F628   F     0.55322   0.04761   0.80382   0.00000  Uiso   1.00
N629   N     0.50000   0.28402   0.75000   0.00000  Uiso   1.00
N630   N     0.50000   0.04931   0.75000   0.00000  Uiso   1.00
O631   O     0.43988   0.20625   0.75000   0.00000  Uiso   1.00
O632   O     0.56012   0.12709   0.75000   0.00000  Uiso   1.00
O633   O     0.56012   0.20625   0.75001   0.00000  Uiso   1.00
O634   O     0.43988   0.12709   0.75000   0.00000  Uiso   1.00
O635   O     0.49999   0.20627   0.68513   0.00000  Uiso   1.00
O636   O     0.50001   0.12707   0.81487   0.00000  Uiso   1.00
O637   O     0.50001   0.20627   0.81487   0.00000  Uiso   1.00
O638   O     0.49999   0.12707   0.68513   0.00000  Uiso   1.00
Br639  Br    0.78856   0.30549   0.54759   0.00000  Uiso   1.00
Br640  Br    0.87812   0.02785   0.95241   0.00000  Uiso   1.00
Br641  Br    0.71956   0.13453   0.84066   0.00000  Uiso   1.00
Br642  Br    0.94711   0.19880   0.65934   0.00000  Uiso   1.00
Br643  Br    0.94959   0.13523   0.84110   0.00000  Uiso   1.00
Br644  Br    0.71708   0.19810   0.65890   0.00000  Uiso   1.00
C645   C     0.75414   0.16669   0.74984   0.00000  Uiso   1.00
C646   C     0.70954   0.16669   0.74991   0.00000  Uiso   1.00
C647   C     0.80692   0.02496   0.72302   0.00000  Uiso   1.00
C648   C     0.85975   0.30837   0.77698   0.00000  Uiso   1.00
C649   C     0.85980   0.02460   0.77692   0.00000  Uiso   1.00
C650   C     0.80687   0.30874   0.72308   0.00000  Uiso   1.00
C651   C     0.83337   0.16677   0.66431   0.00000  Uiso   1.00
C652   C     0.83330   0.16656   0.83569   0.00000  Uiso   1.00
C653   C     0.84684   0.12659   0.90749   0.00000  Uiso   1.00
C654   C     0.81983   0.20674   0.59251   0.00000  Uiso   1.00
C655   C     0.83308   0.16628   0.88413   0.00000  Uiso   1.00
C656   C     0.91253   0.16665   0.75016   0.00000  Uiso   1.00
C657   C     0.83359   0.16706   0.61587   0.00000  Uiso   1.00
C658   C     0.81912   0.20571   0.90683   0.00000  Uiso   1.00
C659   C     0.84755   0.12762   0.59317   0.00000  Uiso   1.00
C660   C     0.81945   0.20627   0.95299   0.00000  Uiso   1.00
C661   C     0.84722   0.12707   0.54701   0.00000  Uiso   1.00
C662   C     0.83327   0.16633   0.97672   0.00000  Uiso   1.00
C663   C     0.83340   0.16700   0.52328   0.00000  Uiso   1.00
C664   C     0.84686   0.12580   0.95391   0.00000  Uiso   1.00
C665   C     0.81981   0.20753   0.54609   0.00000  Uiso   1.00
C666   C     0.80624   0.24622   0.97571   0.00000  Uiso   1.00
C667   C     0.80649   0.24732   0.52166   0.00000  Uiso   1.00
C668   C     0.86043   0.08712   0.52429   0.00000  Uiso   1.00
C669   C     0.86018   0.08601   0.97834   0.00000  Uiso   1.00
C670   C     0.68878   0.15254   0.78820   0.00000  Uiso   1.00
C671   C     0.97788   0.18080   0.71180   0.00000  Uiso   1.00
C672   C     0.97890   0.15259   0.78831   0.00000  Uiso   1.00
C673   C     0.68777   0.18075   0.71169   0.00000  Uiso   1.00
C674   C     0.95713   0.16664   0.75009   0.00000  Uiso   1.00
Cu675  Cu    0.83333   0.21355   0.75000   0.00000  Uiso   1.00
Cu676  Cu    0.83333   0.11978   0.75000   0.00000  Uiso   1.00
F677   F     0.86117   0.08954   0.88440   0.00000  Uiso   1.00
F678   F     0.78011   0.28572   0.69618   0.00000  Uiso   1.00
F679   F     0.80550   0.24379   0.61560   0.00000  Uiso   1.00
F680   F     0.80451   0.24330   0.88374   0.00000  Uiso   1.00
F681   F     0.86216   0.09003   0.61626   0.00000  Uiso   1.00
F682   F     0.79311   0.28492   0.95332   0.00000  Uiso   1.00
F683   F     0.87357   0.04842   0.54668   0.00000  Uiso   1.00
F684   F     0.78042   0.04837   0.69581   0.00000  Uiso   1.00
F685   F     0.88625   0.28497   0.80419   0.00000  Uiso   1.00
F686   F     0.88656   0.04761   0.80382   0.00000  Uiso   1.00
N687   N     0.83333   0.28402   0.75000   0.00000  Uiso   1.00
N688   N     0.83333   0.04931   0.75000   0.00000  Uiso   1.00
O689   O     0.77321   0.20625   0.75000   0.00000  Uiso   1.00
O690   O     0.89345   0.12709   0.75000   0.00000  Uiso   1.00
O691   O     0.89345   0.20625   0.75001   0.00000  Uiso   1.00
O692   O     0.77321   0.12709   0.75000   0.00000  Uiso   1.00
O693   O     0.83332   0.20627   0.68513   0.00000  Uiso   1.00
O694   O     0.83334   0.12707   0.81487   0.00000  Uiso   1.00
O695   O     0.83334   0.20627   0.81487   0.00000  Uiso   1.00
O696   O     0.83332   0.12707   0.68513   0.00000  Uiso   1.00
Br697  Br    0.12190   0.63883   0.54759   0.00000  Uiso   1.00
Br698  Br    0.21145   0.36118   0.95241   0.00000  Uiso   1.00
Br699  Br    0.05289   0.46786   0.84066   0.00000  Uiso   1.00
Br700  Br    0.28044   0.53213   0.65934   0.00000  Uiso   1.00
Br701  Br    0.28292   0.46857   0.84110   0.00000  Uiso   1.00
Br702  Br    0.05042   0.53143   0.65890   0.00000  Uiso   1.00
C703   C     0.08747   0.50002   0.74984   0.00000  Uiso   1.00
C704   C     0.04287   0.50003   0.74991   0.00000  Uiso   1.00
C705   C     0.14025   0.35829   0.72302   0.00000  Uiso   1.00
C706   C     0.19308   0.64171   0.77698   0.00000  Uiso   1.00
C707   C     0.19313   0.35793   0.77692   0.00000  Uiso   1.00
C708   C     0.14020   0.64207   0.72308   0.00000  Uiso   1.00
C709   C     0.16670   0.50011   0.66431   0.00000  Uiso   1.00
C710   C     0.16663   0.49989   0.83569   0.00000  Uiso   1.00
C711   C     0.18017   0.45992   0.90749   0.00000  Uiso   1.00
C712   C     0.15316   0.54008   0.59251   0.00000  Uiso   1.00
C713   C     0.16641   0.49961   0.88413   0.00000  Uiso   1.00
C714   C     0.24586   0.49998   0.75016   0.00000  Uiso   1.00
C715   C     0.16692   0.50039   0.61587   0.00000  Uiso   1.00
C716   C     0.15245   0.53905   0.90683   0.00000  Uiso   1.00
C717   C     0.18088   0.46095   0.59317   0.00000  Uiso   1.00
C718   C     0.15278   0.53960   0.95299   0.00000  Uiso   1.00
C719   C     0.18055   0.46040   0.54701   0.00000  Uiso   1.00
C720   C     0.16660   0.49967   0.97672   0.00000  Uiso   1.00
C721   C     0.16673   0.50033   0.52328   0.00000  Uiso   1.00
C722   C     0.18019   0.45914   0.95391   0.00000  Uiso   1.00
C723   C     0.15314   0.54086   0.54609   0.00000  Uiso   1.00
C724   C     0.13957   0.57955   0.97571   0.00000  Uiso   1.00
C725   C     0.13982   0.58066   0.52166   0.00000  Uiso   1.00
C726   C     0.19377   0.42045   0.52429   0.00000  Uiso   1.00
C727   C     0.19352   0.41935   0.97834   0.00000  Uiso   1.00
C728   C     0.02212   0.48587   0.78820   0.00000  Uiso   1.00
C729   C     0.31122   0.51413   0.71180   0.00000  Uiso   1.00
C730   C     0.31223   0.48592   0.78831   0.00000  Uiso   1.00
C731   C     0.02110   0.51408   0.71169   0.00000  Uiso   1.00
C732   C     0.29046   0.49997   0.75009   0.00000  Uiso   1.00
Cu733  Cu    0.16667   0.54689   0.75000   0.00000  Uiso   1.00
Cu734  Cu    0.16667   0.45311   0.75000   0.00000  Uiso   1.00
F735   F     0.19450   0.42288   0.88440   0.00000  Uiso   1.00
F736   F     0.11344   0.61905   0.69618   0.00000  Uiso   1.00
F737   F     0.13883   0.57712   0.61560   0.00000  Uiso   1.00
F738   F     0.13784   0.57664   0.88374   0.00000  Uiso   1.00
F739   F     0.19550   0.42337   0.61626   0.00000  Uiso   1.00
F740   F     0.12644   0.61825   0.95332   0.00000  Uiso   1.00
F741   F     0.20690   0.38175   0.54668   0.00000  Uiso   1.00
F742   F     0.11375   0.38170   0.69581   0.00000  Uiso   1.00
F743   F     0.21958   0.61830   0.80419   0.00000  Uiso   1.00
F744   F     0.21989   0.38095   0.80382   0.00000  Uiso   1.00
N745   N     0.16667   0.61736   0.75000   0.00000  Uiso   1.00
N746   N     0.16667   0.38264   0.75000   0.00000  Uiso   1.00
O747   O     0.10655   0.53958   0.75000   0.00000  Uiso   1.00
O748   O     0.22679   0.46042   0.75000   0.00000  Uiso   1.00
O749   O     0.22679   0.53958   0.75001   0.00000  Uiso   1.00
O750   O     0.10655   0.46042   0.75000   0.00000  Uiso   1.00
O751   O     0.16666   0.53960   0.68513   0.00000  Uiso   1.00
O752   O     0.16668   0.46040   0.81487   0.00000  Uiso   1.00
O753   O     0.16668   0.53960   0.81487   0.00000  Uiso   1.00
O754   O     0.16666   0.46040   0.68513   0.00000  Uiso   1.00
Br755  Br    0.45523   0.63883   0.54759   0.00000  Uiso   1.00
Br756  Br    0.54478   0.36118   0.95241   0.00000  Uiso   1.00
Br757  Br    0.38622   0.46786   0.84066   0.00000  Uiso   1.00
Br758  Br    0.61378   0.53213   0.65934   0.00000  Uiso   1.00
Br759  Br    0.61625   0.46857   0.84110   0.00000  Uiso   1.00
Br760  Br    0.38375   0.53143   0.65890   0.00000  Uiso   1.00
C761   C     0.42081   0.50002   0.74984   0.00000  Uiso   1.00
C762   C     0.37620   0.50003   0.74991   0.00000  Uiso   1.00
C763   C     0.47358   0.35829   0.72302   0.00000  Uiso   1.00
C764   C     0.52642   0.64171   0.77698   0.00000  Uiso   1.00
C765   C     0.52646   0.35793   0.77692   0.00000  Uiso   1.00
C766   C     0.47354   0.64207   0.72308   0.00000  Uiso   1.00
C767   C     0.50003   0.50011   0.66431   0.00000  Uiso   1.00
C768   C     0.49997   0.49989   0.83569   0.00000  Uiso   1.00
C769   C     0.51350   0.45992   0.90749   0.00000  Uiso   1.00
C770   C     0.48650   0.54008   0.59251   0.00000  Uiso   1.00
C771   C     0.49975   0.49961   0.88413   0.00000  Uiso   1.00
C772   C     0.57919   0.49998   0.75016   0.00000  Uiso   1.00
C773   C     0.50026   0.50039   0.61587   0.00000  Uiso   1.00
C774   C     0.48579   0.53905   0.90683   0.00000  Uiso   1.00
C775   C     0.51421   0.46095   0.59317   0.00000  Uiso   1.00
C776   C     0.48612   0.53960   0.95299   0.00000  Uiso   1.00
C777   C     0.51389   0.46040   0.54701   0.00000  Uiso   1.00
C778   C     0.49993   0.49967   0.97672   0.00000  Uiso   1.00
C779   C     0.50007   0.50033   0.52328   0.00000  Uiso   1.00
C780   C     0.51353   0.45914   0.95391   0.00000  Uiso   1.00
C781   C     0.48648   0.54086   0.54609   0.00000  Uiso   1.00
C782   C     0.47290   0.57955   0.97571   0.00000  Uiso   1.00
C783   C     0.47315   0.58066   0.52166   0.00000  Uiso   1.00
C784   C     0.52710   0.42045   0.52429   0.00000  Uiso   1.00
C785   C     0.52685   0.41935   0.97834   0.00000  Uiso   1.00
C786   C     0.35545   0.48587   0.78820   0.00000  Uiso   1.00
C787   C     0.64455   0.51413   0.71180   0.00000  Uiso   1.00
C788   C     0.64557   0.48592   0.78831   0.00000  Uiso   1.00
C789   C     0.35443   0.51408   0.71169   0.00000  Uiso   1.00
C790   C     0.62380   0.49997   0.75009   0.00000  Uiso   1.00
Cu791  Cu    0.50000   0.54689   0.75000   0.00000  Uiso   1.00
Cu792  Cu    0.50000   0.45311   0.75000   0.00000  Uiso   1.00
F793   F     0.52784   0.42288   0.88440   0.00000  Uiso   1.00
F794   F     0.44678   0.61905   0.69618   0.00000  Uiso   1.00
F795   F     0.47216   0.57712   0.61560   0.00000  Uiso   1.00
F796   F     0.47117   0.57664   0.88374   0.00000  Uiso   1.00
F797   F     0.52883   0.42337   0.61626   0.00000  Uiso   1.00
F798   F     0.45978   0.61825   0.95332   0.00000  Uiso   1.00
F799   F     0.54023   0.38175   0.54668   0.00000  Uiso   1.00
F800   F     0.44709   0.38170   0.69581   0.00000  Uiso   1.00
F801   F     0.55291   0.61830   0.80419   0.00000  Uiso   1.00
F802   F     0.55322   0.38095   0.80382   0.00000  Uiso   1.00
N803   N     0.50000   0.61736   0.75000   0.00000  Uiso   1.00
N804   N     0.50000   0.38264   0.75000   0.00000  Uiso   1.00
O805   O     0.43988   0.53958   0.75000   0.00000  Uiso   1.00
O806   O     0.56012   0.46042   0.75000   0.00000  Uiso   1.00
O807   O     0.56012   0.53958   0.75001   0.00000  Uiso   1.00
O808   O     0.43988   0.46042   0.75000   0.00000  Uiso   1.00
O809   O     0.49999   0.53960   0.68513   0.00000  Uiso   1.00
O810   O     0.50001   0.46040   0.81487   0.00000  Uiso   1.00
O811   O     0.50001   0.53960   0.81487   0.00000  Uiso   1.00
O812   O     0.49999   0.46040   0.68513   0.00000  Uiso   1.00
Br813  Br    0.78856   0.63883   0.54759   0.00000  Uiso   1.00
Br814  Br    0.87812   0.36118   0.95241   0.00000  Uiso   1.00
Br815  Br    0.71956   0.46786   0.84066   0.00000  Uiso   1.00
Br816  Br    0.94711   0.53213   0.65934   0.00000  Uiso   1.00
Br817  Br    0.94959   0.46857   0.84110   0.00000  Uiso   1.00
Br818  Br    0.71708   0.53143   0.65890   0.00000  Uiso   1.00
C819   C     0.75414   0.50002   0.74984   0.00000  Uiso   1.00
C820   C     0.70954   0.50003   0.74991   0.00000  Uiso   1.00
C821   C     0.80692   0.35829   0.72302   0.00000  Uiso   1.00
C822   C     0.85975   0.64171   0.77698   0.00000  Uiso   1.00
C823   C     0.85980   0.35793   0.77692   0.00000  Uiso   1.00
C824   C     0.80687   0.64207   0.72308   0.00000  Uiso   1.00
C825   C     0.83337   0.50011   0.66431   0.00000  Uiso   1.00
C826   C     0.83330   0.49989   0.83569   0.00000  Uiso   1.00
C827   C     0.84684   0.45992   0.90749   0.00000  Uiso   1.00
C828   C     0.81983   0.54008   0.59251   0.00000  Uiso   1.00
C829   C     0.83308   0.49961   0.88413   0.00000  Uiso   1.00
C830   C     0.91253   0.49998   0.75016   0.00000  Uiso   1.00
C831   C     0.83359   0.50039   0.61587   0.00000  Uiso   1.00
C832   C     0.81912   0.53905   0.90683   0.00000  Uiso   1.00
C833   C     0.84755   0.46095   0.59317   0.00000  Uiso   1.00
C834   C     0.81945   0.53960   0.95299   0.00000  Uiso   1.00
C835   C     0.84722   0.46040   0.54701   0.00000  Uiso   1.00
C836   C     0.83327   0.49967   0.97672   0.00000  Uiso   1.00
C837   C     0.83340   0.50033   0.52328   0.00000  Uiso   1.00
C838   C     0.84686   0.45914   0.95391   0.00000  Uiso   1.00
C839   C     0.81981   0.54086   0.54609   0.00000  Uiso   1.00
C840   C     0.80624   0.57955   0.97571   0.00000  Uiso   1.00
C841   C     0.80649   0.58066   0.52166   0.00000  Uiso   1.00
C842   C     0.86043   0.42045   0.52429   0.00000  Uiso   1.00
C843   C     0.86018   0.41935   0.97834   0.00000  Uiso   1.00
C844   C     0.68878   0.48587   0.78820   0.00000  Uiso   1.00
C845   C     0.97788   0.51413   0.71180   0.00000  Uiso   1.00
C846   C     0.97890   0.48592   0.78831   0.00000  Uiso   1.00
C847   C     0.68777   0.51408   0.71169   0.00000  Uiso   1.00
C848   C     0.95713   0.49997   0.75009   0.00000  Uiso   1.00
Cu849  Cu    0.83333   0.54689   0.75000   0.00000  Uiso   1.00
Cu850  Cu    0.83333   0.45311   0.75000   0.00000  Uiso   1.00
F851   F     0.86117   0.42288   0.88440   0.00000  Uiso   1.00
F852   F     0.78011   0.61905   0.69618   0.00000  Uiso   1.00
F853   F     0.80550   0.57712   0.61560   0.00000  Uiso   1.00
F854   F     0.80451   0.57664   0.88374   0.00000  Uiso   1.00
F855   F     0.86216   0.42337   0.61626   0.00000  Uiso   1.00
F856   F     0.79311   0.61825   0.95332   0.00000  Uiso   1.00
F857   F     0.87357   0.38175   0.54668   0.00000  Uiso   1.00
F858   F     0.78042   0.38170   0.69581   0.00000  Uiso   1.00
F859   F     0.88625   0.61830   0.80419   0.00000  Uiso   1.00
F860   F     0.88656   0.38095   0.80382   0.00000  Uiso   1.00
N861   N     0.83333   0.61736   0.75000   0.00000  Uiso   1.00
N862   N     0.83333   0.38264   0.75000   0.00000  Uiso   1.00
O863   O     0.77321   0.53958   0.75000   0.00000  Uiso   1.00
O864   O     0.89345   0.46042   0.75000   0.00000  Uiso   1.00
O865   O     0.89345   0.53958   0.75001   0.00000  Uiso   1.00
O866   O     0.77321   0.46042   0.75000   0.00000  Uiso   1.00
O867   O     0.83332   0.53960   0.68513   0.00000  Uiso   1.00
O868   O     0.83334   0.46040   0.81487   0.00000  Uiso   1.00
O869   O     0.83334   0.53960   0.81487   0.00000  Uiso   1.00
O870   O     0.83332   0.46040   0.68513   0.00000  Uiso   1.00
Br871  Br    0.12190   0.97216   0.54759   0.00000  Uiso   1.00
Br872  Br    0.21145   0.69451   0.95241   0.00000  Uiso   1.00
Br873  Br    0.05289   0.80120   0.84066   0.00000  Uiso   1.00
Br874  Br    0.28044   0.86547   0.65934   0.00000  Uiso   1.00
Br875  Br    0.28292   0.80190   0.84110   0.00000  Uiso   1.00
Br876  Br    0.05042   0.86477   0.65890   0.00000  Uiso   1.00
C877   C     0.08747   0.83335   0.74984   0.00000  Uiso   1.00
C878   C     0.04287   0.83336   0.74991   0.00000  Uiso   1.00
C879   C     0.14025   0.69163   0.72302   0.00000  Uiso   1.00
C880   C     0.19308   0.97504   0.77698   0.00000  Uiso   1.00
C881   C     0.19313   0.69126   0.77692   0.00000  Uiso   1.00
C882   C     0.14020   0.97540   0.72308   0.00000  Uiso   1.00
C883   C     0.16670   0.83344   0.66431   0.00000  Uiso   1.00
C884   C     0.16663   0.83323   0.83569   0.00000  Uiso   1.00
C885   C     0.18017   0.79326   0.90749   0.00000  Uiso   1.00
C886   C     0.15316   0.87341   0.59251   0.00000  Uiso   1.00
C887   C     0.16641   0.83294   0.88413   0.00000  Uiso   1.00
C888   C     0.24586   0.83331   0.75016   0.00000  Uiso   1.00
C889   C     0.16692   0.83372   0.61587   0.00000  Uiso   1.00
C890   C     0.15245   0.87238   0.90683   0.00000  Uiso   1.00
C891   C     0.18088   0.79429   0.59317   0.00000  Uiso   1.00
C892   C     0.15278   0.87293   0.95299   0.00000  Uiso   1.00
C893   C     0.18055   0.79374   0.54701   0.00000  Uiso   1.00
C894   C     0.16660   0.83300   0.97672   0.00000  Uiso   1.00
C895   C     0.16673   0.83367   0.52328   0.00000  Uiso   1.00
C896   C     0.18019   0.79247   0.95391   0.00000  Uiso   1.00
C897   C     0.15314   0.87420   0.54609   0.00000  Uiso   1.00
C898   C     0.13957   0.91289   0.97571   0.00000  Uiso   1.00
C899   C     0.13982   0.91399   0.52166   0.00000  Uiso   1.00
C900   C     0.19377   0.75378   0.52429   0.00000  Uiso   1.00
C901   C     0.19352   0.75268   0.97834   0.00000  Uiso   1.00
C902   C     0.02212   0.81920   0.78820   0.00000  Uiso   1.00
C903   C     0.31122   0.84746   0.71180   0.00000  Uiso   1.00
C904   C     0.31223   0.81925   0.78831   0.00000  Uiso   1.00
C905   C     0.02110   0.84741   0.71169   0.00000  Uiso   1.00
C906   C     0.29046   0.83331   0.75009   0.00000  Uiso   1.00
Cu907  Cu    0.16667   0.88022   0.75000   0.00000  Uiso   1.00
Cu908  Cu    0.16667   0.78645   0.75000   0.00000  Uiso   1.00
F909   F     0.19450   0.75621   0.88440   0.00000  Uiso   1.00
F910   F     0.11344   0.95239   0.69618   0.00000  Uiso   1.00
F911   F     0.13883   0.91045   0.61560   0.00000  Uiso   1.00
F912   F     0.13784   0.90997   0.88374   0.00000  Uiso   1.00
F913   F     0.19550   0.75670   0.61626   0.00000  Uiso   1.00
F914   F     0.12644   0.95159   0.95332   0.00000  Uiso   1.00
F915   F     0.20690   0.71508   0.54668   0.00000  Uiso   1.00
F916   F     0.11375   0.71503   0.69581   0.00000  Uiso   1.00
F917   F     0.21958   0.95163   0.80419   0.00000  Uiso   1.00
F918   F     0.21989   0.71428   0.80382   0.00000  Uiso   1.00
N919   N     0.16667   0.95069   0.75000   0.00000  Uiso   1.00
N920   N     0.16667   0.71598   0.75000   0.00000  Uiso   1.00
O921   O     0.10655   0.87291   0.75000   0.00000  Uiso   1.00
O922   O     0.22679   0.79375   0.75000   0.00000  Uiso   1.00
O923   O     0.22679   0.87291   0.75001   0.00000  Uiso   1.00
O924   O     0.10655   0.79375   0.75000   0.00000  Uiso   1.00
O925   O     0.16666   0.87293   0.68513   0.00000  Uiso   1.00
O926   O     0.16668   0.79373   0.81487   0.00000  Uiso   1.00
O927   O     0.16668   0.87293   0.81487   0.00000  Uiso   1.00
O928   O     0.16666   0.79373   0.68513   0.00000  Uiso   1.00
Br929  Br    0.45523   0.97216   0.54759   0.00000  Uiso   1.00
Br930  Br    0.54478   0.69451   0.95241   0.00000  Uiso   1.00
Br931  Br    0.38622   0.80120   0.84066   0.00000  Uiso   1.00
Br932  Br    0.61378   0.86547   0.65934   0.00000  Uiso   1.00
Br933  Br    0.61625   0.80190   0.84110   0.00000  Uiso   1.00
Br934  Br    0.38375   0.86477   0.65890   0.00000  Uiso   1.00
C935   C     0.42081   0.83335   0.74984   0.00000  Uiso   1.00
C936   C     0.37620   0.83336   0.74991   0.00000  Uiso   1.00
C937   C     0.47358   0.69163   0.72302   0.00000  Uiso   1.00
C938   C     0.52642   0.97504   0.77698   0.00000  Uiso   1.00
C939   C     0.52646   0.69126   0.77692   0.00000  Uiso   1.00
C940   C     0.47354   0.97540   0.72308   0.00000  Uiso   1.00
C941   C     0.50003   0.83344   0.66431   0.00000  Uiso   1.00
C942   C     0.49997   0.83323   0.83569   0.00000  Uiso   1.00
C943   C     0.51350   0.79326   0.90749   0.00000  Uiso   1.00
C944   C     0.48650   0.87341   0.59251   0.00000  Uiso   1.00
C945   C     0.49975   0.83294   0.88413   0.00000  Uiso   1.00
C946   C     0.57919   0.83331   0.75016   0.00000  Uiso   1.00
C947   C     0.50026   0.83372   0.61587   0.00000  Uiso   1.00
C948   C     0.48579   0.87238   0.90683   0.00000  Uiso   1.00
C949   C     0.51421   0.79429   0.59317   0.00000  Uiso   1.00
C950   C     0.48612   0.87293   0.95299   0.00000  Uiso   1.00
C951   C     0.51389   0.79374   0.54701   0.00000  Uiso   1.00
C952   C     0.49993   0.83300   0.97672   0.00000  Uiso   1.00
C953   C     0.50007   0.83367   0.52328   0.00000  Uiso   1.00
C954   C     0.51353   0.79247   0.95391   0.00000  Uiso   1.00
C955   C     0.48648   0.87420   0.54609   0.00000  Uiso   1.00
C956   C     0.47290   0.91289   0.97571   0.00000  Uiso   1.00
C957   C     0.47315   0.91399   0.52166   0.00000  Uiso   1.00
C958   C     0.52710   0.75378   0.52429   0.00000  Uiso   1.00
C959   C     0.52685   0.75268   0.97834   0.00000  Uiso   1.00
C960   C     0.35545   0.81920   0.78820   0.00000  Uiso   1.00
C961   C     0.64455   0.84746   0.71180   0.00000  Uiso   1.00
C962   C     0.64557   0.81925   0.78831   0.00000  Uiso   1.00
C963   C     0.35443   0.84741   0.71169   0.00000  Uiso   1.00
C964   C     0.62380   0.83331   0.75009   0.00000  Uiso   1.00
Cu965  Cu    0.50000   0.88022   0.75000   0.00000  Uiso   1.00
Cu966  Cu    0.50000   0.78645   0.75000   0.00000  Uiso   1.00
F967   F     0.52784   0.75621   0.88440   0.00000  Uiso   1.00
F968   F     0.44678   0.95239   0.69618   0.00000  Uiso   1.00
F969   F     0.47216   0.91045   0.61560   0.00000  Uiso   1.00
F970   F     0.47117   0.90997   0.88374   0.00000  Uiso   1.00
F971   F     0.52883   0.75670   0.61626   0.00000  Uiso   1.00
F972   F     0.45978   0.95159   0.95332   0.00000  Uiso   1.00
F973   F     0.54023   0.71508   0.54668   0.00000  Uiso   1.00
F974   F     0.44709   0.71503   0.69581   0.00000  Uiso   1.00
F975   F     0.55291   0.95163   0.80419   0.00000  Uiso   1.00
F976   F     0.55322   0.71428   0.80382   0.00000  Uiso   1.00
N977   N     0.50000   0.95069   0.75000   0.00000  Uiso   1.00
N978   N     0.50000   0.71598   0.75000   0.00000  Uiso   1.00
O979   O     0.43988   0.87291   0.75000   0.00000  Uiso   1.00
O980   O     0.56012   0.79375   0.75000   0.00000  Uiso   1.00
O981   O     0.56012   0.87291   0.75001   0.00000  Uiso   1.00
O982   O     0.43988   0.79375   0.75000   0.00000  Uiso   1.00
O983   O     0.49999   0.87293   0.68513   0.00000  Uiso   1.00
O984   O     0.50001   0.79373   0.81487   0.00000  Uiso   1.00
O985   O     0.50001   0.87293   0.81487   0.00000  Uiso   1.00
O986   O     0.49999   0.79373   0.68513   0.00000  Uiso   1.00
Br987  Br    0.78856   0.97216   0.54759   0.00000  Uiso   1.00
Br988  Br    0.87812   0.69451   0.95241   0.00000  Uiso   1.00
Br989  Br    0.71956   0.80120   0.84066   0.00000  Uiso   1.00
Br990  Br    0.94711   0.86547   0.65934   0.00000  Uiso   1.00
Br991  Br    0.94959   0.80190   0.84110   0.00000  Uiso   1.00
Br992  Br    0.71708   0.86477   0.65890   0.00000  Uiso   1.00
C993   C     0.75414   0.83335   0.74984   0.00000  Uiso   1.00
C994   C     0.70954   0.83336   0.74991   0.00000  Uiso   1.00
C995   C     0.80692   0.69163   0.72302   0.00000  Uiso   1.00
C996   C     0.85975   0.97504   0.77698   0.00000  Uiso   1.00
C997   C     0.85980   0.69126   0.77692   0.00000  Uiso   1.00
C998   C     0.80687   0.97540   0.72308   0.00000  Uiso   1.00
C999   C     0.83337   0.83344   0.66431   0.00000  Uiso   1.00
C1000  C     0.83330   0.83323   0.83569   0.00000  Uiso   1.00
C1001  C     0.84684   0.79326   0.90749   0.00000  Uiso   1.00
C1002  C     0.81983   0.87341   0.59251   0.00000  Uiso   1.00
C1003  C     0.83308   0.83294   0.88413   0.00000  Uiso   1.00
C1004  C     0.91253   0.83331   0.75016   0.00000  Uiso   1.00
C1005  C     0.83359   0.83372   0.61587   0.00000  Uiso   1.00
C1006  C     0.81912   0.87238   0.90683   0.00000  Uiso   1.00
C1007  C     0.84755   0.79429   0.59317   0.00000  Uiso   1.00
C1008  C     0.81945   0.87293   0.95299   0.00000  Uiso   1.00
C1009  C     0.84722   0.79374   0.54701   0.00000  Uiso   1.00
C1010  C     0.83327   0.83300   0.97672   0.00000  Uiso   1.00
C1011  C     0.83340   0.83367   0.52328   0.00000  Uiso   1.00
C1012  C     0.84686   0.79247   0.95391   0.00000  Uiso   1.00
C1013  C     0.81981   0.87420   0.54609   0.00000  Uiso   1.00
C1014  C     0.80624   0.91289   0.97571   0.00000  Uiso   1.00
C1015  C     0.80649   0.91399   0.52166   0.00000  Uiso   1.00
C1016  C     0.86043   0.75378   0.52429   0.00000  Uiso   1.00
C1017  C     0.86018   0.75268   0.97834   0.00000  Uiso   1.00
C1018  C     0.68878   0.81920   0.78820   0.00000  Uiso   1.00
C1019  C     0.97788   0.84746   0.71180   0.00000  Uiso   1.00
C1020  C     0.97890   0.81925   0.78831   0.00000  Uiso   1.00
C1021  C     0.68777   0.84741   0.71169   0.00000  Uiso   1.00
C1022  C     0.95713   0.83331   0.75009   0.00000  Uiso   1.00
Cu1023 Cu    0.83333   0.88022   0.75000   0.00000  Uiso   1.00
Cu1024 Cu    0.83333   0.78645   0.75000   0.00000  Uiso   1.00
F1025  F     0.86117   0.75621   0.88440   0.00000  Uiso   1.00
F1026  F     0.78011   0.95239   0.69618   0.00000  Uiso   1.00
F1027  F     0.80550   0.91045   0.61560   0.00000  Uiso   1.00
F1028  F     0.80451   0.90997   0.88374   0.00000  Uiso   1.00
F1029  F     0.86216   0.75670   0.61626   0.00000  Uiso   1.00
F1030  F     0.79311   0.95159   0.95332   0.00000  Uiso   1.00
F1031  F     0.87357   0.71508   0.54668   0.00000  Uiso   1.00
F1032  F     0.78042   0.71503   0.69581   0.00000  Uiso   1.00
F1033  F     0.88625   0.95163   0.80419   0.00000  Uiso   1.00
F1034  F     0.88656   0.71428   0.80382   0.00000  Uiso   1.00
N1035  N     0.83333   0.95069   0.75000   0.00000  Uiso   1.00
N1036  N     0.83333   0.71598   0.75000   0.00000  Uiso   1.00
O1037  O     0.77321   0.87291   0.75000   0.00000  Uiso   1.00
O1038  O     0.89345   0.79375   0.75000   0.00000  Uiso   1.00
O1039  O     0.89345   0.87291   0.75001   0.00000  Uiso   1.00
O1040  O     0.77321   0.79375   0.75000   0.00000  Uiso   1.00
O1041  O     0.83332   0.87293   0.68513   0.00000  Uiso   1.00
O1042  O     0.83334   0.79373   0.81487   0.00000  Uiso   1.00
O1043  O     0.83334   0.87293   0.81487   0.00000  Uiso   1.00
O1044  O     0.83332   0.79373   0.68513   0.00000  Uiso   1.00
loop_
_geom_bond_atom_site_label_1
_geom_bond_atom_site_label_2
_geom_bond_distance
_geom_bond_site_symmetry_2
_ccdc_geom_bond_type
Br1    C29     1.932   .     S
Br2    C31     1.932   .     S
Br3    C32     1.932   .     S
Br4    C33     1.932   .     S
Br5    C34     1.930   .     S
Br6    C35     1.930   .     S
C7     O54     1.288   .     A
C7     O51     1.288   .     A
C7     C8      1.440   .     S
C8     C35     1.405   .     A
C8     C32     1.404   .     A
C9     F46     1.355   .     S
C9     N50     1.368   .     A
C9     C360    1.416   1_545 S
C10    F47     1.355   .     S
C10    N49     1.368   .     A
C10    C185    1.416   .     S
C11    N50     1.368   .     A
C11    F48     1.354   .     S
C11    C358    1.416   1_545 S
C12    F40     1.354   .     S
C12    N49     1.368   .     A
C12    C183    1.416   .     S
C13    C19     1.467   .     S
C13    O58     1.296   .     A
C13    O55     1.295   .     A
C14    O56     1.295   .     A
C14    C17     1.467   .     S
C14    O57     1.296   .     A
C15    F39     1.355   .     S
C15    C17     1.403   .     A
C15    C26     1.406   .     A
C16    C27     1.406   .     A
C16    C19     1.403   .     A
C16    F41     1.355   .     S
C17    C20     1.399   .     A
C18    O52     1.288   .     A
C18    C36     1.440   .     S
C18    O53     1.288   .     A
C19    C21     1.399   .     A
C20    F42     1.360   .     S
C20    C22     1.398   .     A
C21    C23     1.398   .     A
C21    F43     1.360   .     S
C22    C28     1.404   .     A
C22    C24     1.415   .     A
C23    C25     1.415   .     A
C23    C30     1.404   .     A
C24    C26     1.423   .     A
C24    C547    1.411   .     S
C25    C27     1.423   .     A
C25    C546    1.411   1_554 S
C26    C31     1.418   .     A
C27    C29     1.418   .     A
C28    F44     1.360   .     S
C28    C551    1.392   .     S
C29    C550    1.392   1_554 S
C30    F45     1.360   .     S
C30    C553    1.392   1_554 S
C31    C552    1.392   .     S
C32    C150    1.395   1_455 S
C33    C36     1.404   .     A
C33    C93     1.395   .     S
C34    C36     1.405   .     A
C34    C90     1.395   .     S
C35    C149    1.395   1_455 S
Cu37   O57     1.975   .     S
Cu37   Cu38    2.680   .     S
Cu37   N49     2.014   .     S
Cu37   O53     1.952   .     S
Cu37   O51     1.953   .     S
Cu37   O55     1.977   .     S
Cu38   N50     2.014   .     S
Cu38   O54     1.952   .     S
Cu38   O52     1.953   .     S
Cu38   O56     1.977   .     S
Cu38   O58     1.975   .     S
Br59   C87     1.932   .     S
Br60   C89     1.932   .     S
Br61   C90     1.932   .     S
Br62   C91     1.932   .     S
Br63   C92     1.930   .     S
Br64   C93     1.930   .     S
C65    O112    1.288   .     A
C65    O109    1.288   .     A
C65    C66     1.440   .     S
C66    C93     1.405   .     A
C66    C90     1.404   .     A
C67    F104    1.355   .     S
C67    N108    1.368   .     A
C67    C418    1.416   1_545 S
C68    F105    1.355   .     S
C68    N107    1.368   .     A
C68    C243    1.416   .     S
C69    N108    1.368   .     A
C69    F106    1.354   .     S
C69    C416    1.416   1_545 S
C70    F98     1.354   .     S
C70    N107    1.368   .     A
C70    C241    1.416   .     S
C71    C77     1.467   .     S
C71    O116    1.296   .     A
C71    O113    1.295   .     A
C72    O114    1.295   .     A
C72    C75     1.467   .     S
C72    O115    1.296   .     A
C73    F97     1.355   .     S
C73    C75     1.403   .     A
C73    C84     1.406   .     A
C74    C85     1.406   .     A
C74    C77     1.403   .     A
C74    F99     1.355   .     S
C75    C78     1.399   .     A
C76    O110    1.288   .     A
C76    C94     1.440   .     S
C76    O111    1.288   .     A
C77    C79     1.399   .     A
C78    F100    1.360   .     S
C78    C80     1.398   .     A
C79    C81     1.398   .     A
C79    F101    1.360   .     S
C80    C86     1.404   .     A
C80    C82     1.415   .     A
C81    C83     1.415   .     A
C81    C88     1.404   .     A
C82    C84     1.423   .     A
C82    C605    1.411   .     S
C83    C85     1.423   .     A
C83    C604    1.411   1_554 S
C84    C89     1.418   .     A
C85    C87     1.418   .     A
C86    F102    1.360   .     S
C86    C609    1.392   .     S
C87    C608    1.392   1_554 S
C88    F103    1.360   .     S
C88    C611    1.392   1_554 S
C89    C610    1.392   .     S
C91    C94     1.404   .     A
C91    C151    1.395   .     S
C92    C94     1.405   .     A
C92    C148    1.395   .     S
Cu95   O115    1.975   .     S
Cu95   Cu96    2.680   .     S
Cu95   N107    2.014   .     S
Cu95   O111    1.952   .     S
Cu95   O109    1.953   .     S
Cu95   O113    1.977   .     S
Cu96   N108    2.014   .     S
Cu96   O112    1.952   .     S
Cu96   O110    1.953   .     S
Cu96   O114    1.977   .     S
Cu96   O116    1.975   .     S
Br117  C145    1.932   .     S
Br118  C147    1.932   .     S
Br119  C148    1.932   .     S
Br120  C149    1.932   .     S
Br121  C150    1.930   .     S
Br122  C151    1.930   .     S
C123   O170    1.288   .     A
C123   O167    1.288   .     A
C123   C124    1.440   .     S
C124   C151    1.405   .     A
C124   C148    1.404   .     A
C125   F162    1.355   .     S
C125   N166    1.368   .     A
C125   C476    1.416   1_545 S
C126   F163    1.355   .     S
C126   N165    1.368   .     A
C126   C301    1.416   .     S
C127   N166    1.368   .     A
C127   F164    1.354   .     S
C127   C474    1.416   1_545 S
C128   F156    1.354   .     S
C128   N165    1.368   .     A
C128   C299    1.416   .     S
C129   C135    1.467   .     S
C129   O174    1.296   .     A
C129   O171    1.295   .     A
C130   O172    1.295   .     A
C130   C133    1.467   .     S
C130   O173    1.296   .     A
C131   F155    1.355   .     S
C131   C133    1.403   .     A
C131   C142    1.406   .     A
C132   C143    1.406   .     A
C132   C135    1.403   .     A
C132   F157    1.355   .     S
C133   C136    1.399   .     A
C134   O168    1.288   .     A
C134   C152    1.440   .     S
C134   O169    1.288   .     A
C135   C137    1.399   .     A
C136   F158    1.360   .     S
C136   C138    1.398   .     A
C137   C139    1.398   .     A
C137   F159    1.360   .     S
C138   C144    1.404   .     A
C138   C140    1.415   .     A
C139   C141    1.415   .     A
C139   C146    1.404   .     A
C140   C142    1.423   .     A
C140   C663    1.411   .     S
C141   C143    1.423   .     A
C141   C662    1.411   1_554 S
C142   C147    1.418   .     A
C143   C145    1.418   .     A
C144   F160    1.360   .     S
C144   C667    1.392   .     S
C145   C666    1.392   1_554 S
C146   F161    1.360   .     S
C146   C669    1.392   1_554 S
C147   C668    1.392   .     S
C149   C152    1.404   .     A
C149   C35     1.395   1_655 S
C150   C152    1.405   .     A
C150   C32     1.395   1_655 S
Cu153  O173    1.975   .     S
Cu153  Cu154   2.680   .     S
Cu153  N165    2.014   .     S
Cu153  O169    1.952   .     S
Cu153  O167    1.953   .     S
Cu153  O171    1.977   .     S
Cu154  N166    2.014   .     S
Cu154  O170    1.952   .     S
Cu154  O168    1.953   .     S
Cu154  O172    1.977   .     S
Cu154  O174    1.975   .     S
Br175  C203    1.932   .     S
Br176  C205    1.932   .     S
Br177  C206    1.932   .     S
Br178  C207    1.932   .     S
Br179  C208    1.930   .     S
Br180  C209    1.930   .     S
C181   O228    1.288   .     A
C181   O225    1.288   .     A
C181   C182    1.440   .     S
C182   C209    1.405   .     A
C182   C206    1.404   .     A
C183   F220    1.355   .     S
C183   N224    1.368   .     A
C184   F221    1.355   .     S
C184   N223    1.368   .     A
C184   C359    1.416   .     S
C185   N224    1.368   .     A
C185   F222    1.354   .     S
C186   F214    1.354   .     S
C186   N223    1.368   .     A
C186   C357    1.416   .     S
C187   C193    1.467   .     S
C187   O232    1.296   .     A
C187   O229    1.295   .     A
C188   O230    1.295   .     A
C188   C191    1.467   .     S
C188   O231    1.296   .     A
C189   F213    1.355   .     S
C189   C191    1.403   .     A
C189   C200    1.406   .     A
C190   C201    1.406   .     A
C190   C193    1.403   .     A
C190   F215    1.355   .     S
C191   C194    1.399   .     A
C192   O226    1.288   .     A
C192   C210    1.440   .     S
C192   O227    1.288   .     A
C193   C195    1.399   .     A
C194   F216    1.360   .     S
C194   C196    1.398   .     A
C195   C197    1.398   .     A
C195   F217    1.360   .     S
C196   C202    1.404   .     A
C196   C198    1.415   .     A
C197   C199    1.415   .     A
C197   C204    1.404   .     A
C198   C200    1.423   .     A
C198   C721    1.411   .     S
C199   C201    1.423   .     A
C199   C720    1.411   1_554 S
C200   C205    1.418   .     A
C201   C203    1.418   .     A
C202   F218    1.360   .     S
C202   C725    1.392   .     S
C203   C724    1.392   1_554 S
C204   F219    1.360   .     S
C204   C727    1.392   1_554 S
C205   C726    1.392   .     S
C206   C324    1.395   1_455 S
C207   C210    1.404   .     A
C207   C267    1.395   .     S
C208   C210    1.405   .     A
C208   C264    1.395   .     S
C209   C323    1.395   1_455 S
Cu211  O231    1.975   .     S
Cu211  Cu212   2.680   .     S
Cu211  N223    2.014   .     S
Cu211  O227    1.952   .     S
Cu211  O225    1.953   .     S
Cu211  O229    1.977   .     S
Cu212  N224    2.014   .     S
Cu212  O228    1.952   .     S
Cu212  O226    1.953   .     S
Cu212  O230    1.977   .     S
Cu212  O232    1.975   .     S
Br233  C261    1.932   .     S
Br234  C263    1.932   .     S
Br235  C264    1.932   .     S
Br236  C265    1.932   .     S
Br237  C266    1.930   .     S
Br238  C267    1.930   .     S
C239   O286    1.288   .     A
C239   O283    1.288   .     A
C239   C240    1.440   .     S
C240   C267    1.405   .     A
C240   C264    1.404   .     A
C241   F278    1.355   .     S
C241   N282    1.368   .     A
C242   F279    1.355   .     S
C242   N281    1.368   .     A
C242   C417    1.416   .     S
C243   N282    1.368   .     A
C243   F280    1.354   .     S
C244   F272    1.354   .     S
C244   N281    1.368   .     A
C244   C415    1.416   .     S
C245   C251    1.467   .     S
C245   O290    1.296   .     A
C245   O287    1.295   .     A
C246   O288    1.295   .     A
C246   C249    1.467   .     S
C246   O289    1.296   .     A
C247   F271    1.355   .     S
C247   C249    1.403   .     A
C247   C258    1.406   .     A
C248   C259    1.406   .     A
C248   C251    1.403   .     A
C248   F273    1.355   .     S
C249   C252    1.399   .     A
C250   O284    1.288   .     A
C250   C268    1.440   .     S
C250   O285    1.288   .     A
C251   C253    1.399   .     A
C252   F274    1.360   .     S
C252   C254    1.398   .     A
C253   C255    1.398   .     A
C253   F275    1.360   .     S
C254   C260    1.404   .     A
C254   C256    1.415   .     A
C255   C257    1.415   .     A
C255   C262    1.404   .     A
C256   C258    1.423   .     A
C256   C779    1.411   .     S
C257   C259    1.423   .     A
C257   C778    1.411   1_554 S
C258   C263    1.418   .     A
C259   C261    1.418   .     A
C260   F276    1.360   .     S
C260   C783    1.392   .     S
C261   C782    1.392   1_554 S
C262   F277    1.360   .     S
C262   C785    1.392   1_554 S
C263   C784    1.392   .     S
C265   C268    1.404   .     A
C265   C325    1.395   .     S
C266   C268    1.405   .     A
C266   C322    1.395   .     S
Cu269  O289    1.975   .     S
Cu269  Cu270   2.680   .     S
Cu269  N281    2.014   .     S
Cu269  O285    1.952   .     S
Cu269  O283    1.953   .     S
Cu269  O287    1.977   .     S
Cu270  N282    2.014   .     S
Cu270  O286    1.952   .     S
Cu270  O284    1.953   .     S
Cu270  O288    1.977   .     S
Cu270  O290    1.975   .     S
Br291  C319    1.932   .     S
Br292  C321    1.932   .     S
Br293  C322    1.932   .     S
Br294  C323    1.932   .     S
Br295  C324    1.930   .     S
Br296  C325    1.930   .     S
C297   O344    1.288   .     A
C297   O341    1.288   .     A
C297   C298    1.440   .     S
C298   C325    1.405   .     A
C298   C322    1.404   .     A
C299   F336    1.355   .     S
C299   N340    1.368   .     A
C300   F337    1.355   .     S
C300   N339    1.368   .     A
C300   C475    1.416   .     S
C301   N340    1.368   .     A
C301   F338    1.354   .     S
C302   F330    1.354   .     S
C302   N339    1.368   .     A
C302   C473    1.416   .     S
C303   C309    1.467   .     S
C303   O348    1.296   .     A
C303   O345    1.295   .     A
C304   O346    1.295   .     A
C304   C307    1.467   .     S
C304   O347    1.296   .     A
C305   F329    1.355   .     S
C305   C307    1.403   .     A
C305   C316    1.406   .     A
C306   C317    1.406   .     A
C306   C309    1.403   .     A
C306   F331    1.355   .     S
C307   C310    1.399   .     A
C308   O342    1.288   .     A
C308   C326    1.440   .     S
C308   O343    1.288   .     A
C309   C311    1.399   .     A
C310   F332    1.360   .     S
C310   C312    1.398   .     A
C311   C313    1.398   .     A
C311   F333    1.360   .     S
C312   C318    1.404   .     A
C312   C314    1.415   .     A
C313   C315    1.415   .     A
C313   C320    1.404   .     A
C314   C316    1.423   .     A
C314   C837    1.411   .     S
C315   C317    1.423   .     A
C315   C836    1.411   1_554 S
C316   C321    1.418   .     A
C317   C319    1.418   .     A
C318   F334    1.360   .     S
C318   C841    1.392   .     S
C319   C840    1.392   1_554 S
C320   F335    1.360   .     S
C320   C843    1.392   1_554 S
C321   C842    1.392   .     S
C323   C326    1.404   .     A
C323   C209    1.395   1_655 S
C324   C326    1.405   .     A
C324   C206    1.395   1_655 S
Cu327  O347    1.975   .     S
Cu327  Cu328   2.680   .     S
Cu327  N339    2.014   .     S
Cu327  O343    1.952   .     S
Cu327  O341    1.953   .     S
Cu327  O345    1.977   .     S
Cu328  N340    2.014   .     S
Cu328  O344    1.952   .     S
Cu328  O342    1.953   .     S
Cu328  O346    1.977   .     S
Cu328  O348    1.975   .     S
Br349  C377    1.932   .     S
Br350  C379    1.932   .     S
Br351  C380    1.932   .     S
Br352  C381    1.932   .     S
Br353  C382    1.930   .     S
Br354  C383    1.930   .     S
C355   O402    1.288   .     A
C355   O399    1.288   .     A
C355   C356    1.440   .     S
C356   C383    1.405   .     A
C356   C380    1.404   .     A
C357   F394    1.355   .     S
C357   N398    1.368   .     A
C358   F395    1.355   .     S
C358   N397    1.368   .     A
C358   C11     1.416   1_565 S
C359   N398    1.368   .     A
C359   F396    1.354   .     S
C360   F388    1.354   .     S
C360   N397    1.368   .     A
C360   C9      1.416   1_565 S
C361   C367    1.467   .     S
C361   O406    1.296   .     A
C361   O403    1.295   .     A
C362   O404    1.295   .     A
C362   C365    1.467   .     S
C362   O405    1.296   .     A
C363   F387    1.355   .     S
C363   C365    1.403   .     A
C363   C374    1.406   .     A
C364   C375    1.406   .     A
C364   C367    1.403   .     A
C364   F389    1.355   .     S
C365   C368    1.399   .     A
C366   O400    1.288   .     A
C366   C384    1.440   .     S
C366   O401    1.288   .     A
C367   C369    1.399   .     A
C368   F390    1.360   .     S
C368   C370    1.398   .     A
C369   C371    1.398   .     A
C369   F391    1.360   .     S
C370   C376    1.404   .     A
C370   C372    1.415   .     A
C371   C373    1.415   .     A
C371   C378    1.404   .     A
C372   C374    1.423   .     A
C372   C895    1.411   .     S
C373   C375    1.423   .     A
C373   C894    1.411   1_554 S
C374   C379    1.418   .     A
C375   C377    1.418   .     A
C376   F392    1.360   .     S
C376   C899    1.392   .     S
C377   C898    1.392   1_554 S
C378   F393    1.360   .     S
C378   C901    1.392   1_554 S
C379   C900    1.392   .     S
C380   C498    1.395   1_455 S
C381   C384    1.404   .     A
C381   C441    1.395   .     S
C382   C384    1.405   .     A
C382   C438    1.395   .     S
C383   C497    1.395   1_455 S
Cu385  O405    1.975   .     S
Cu385  Cu386   2.680   .     S
Cu385  N397    2.014   .     S
Cu385  O401    1.952   .     S
Cu385  O399    1.953   .     S
Cu385  O403    1.977   .     S
Cu386  N398    2.014   .     S
Cu386  O402    1.952   .     S
Cu386  O400    1.953   .     S
Cu386  O404    1.977   .     S
Cu386  O406    1.975   .     S
Br407  C435    1.932   .     S
Br408  C437    1.932   .     S
Br409  C438    1.932   .     S
Br410  C439    1.932   .     S
Br411  C440    1.930   .     S
Br412  C441    1.930   .     S
C413   O460    1.288   .     A
C413   O457    1.288   .     A
C413   C414    1.440   .     S
C414   C441    1.405   .     A
C414   C438    1.404   .     A
C415   F452    1.355   .     S
C415   N456    1.368   .     A
C416   F453    1.355   .     S
C416   N455    1.368   .     A
C416   C69     1.416   1_565 S
C417   N456    1.368   .     A
C417   F454    1.354   .     S
C418   F446    1.354   .     S
C418   N455    1.368   .     A
C418   C67     1.416   1_565 S
C419   C425    1.467   .     S
C419   O464    1.296   .     A
C419   O461    1.295   .     A
C420   O462    1.295   .     A
C420   C423    1.467   .     S
C420   O463    1.296   .     A
C421   F445    1.355   .     S
C421   C423    1.403   .     A
C421   C432    1.406   .     A
C422   C433    1.406   .     A
C422   C425    1.403   .     A
C422   F447    1.355   .     S
C423   C426    1.399   .     A
C424   O458    1.288   .     A
C424   C442    1.440   .     S
C424   O459    1.288   .     A
C425   C427    1.399   .     A
C426   F448    1.360   .     S
C426   C428    1.398   .     A
C427   C429    1.398   .     A
C427   F449    1.360   .     S
C428   C434    1.404   .     A
C428   C430    1.415   .     A
C429   C431    1.415   .     A
C429   C436    1.404   .     A
C430   C432    1.423   .     A
C430   C953    1.411   .     S
C431   C433    1.423   .     A
C431   C952    1.411   1_554 S
C432   C437    1.418   .     A
C433   C435    1.418   .     A
C434   F450    1.360   .     S
C434   C957    1.392   .     S
C435   C956    1.392   1_554 S
C436   F451    1.360   .     S
C436   C959    1.392   1_554 S
C437   C958    1.392   .     S
C439   C442    1.404   .     A
C439   C499    1.395   .     S
C440   C442    1.405   .     A
C440   C496    1.395   .     S
Cu443  O463    1.975   .     S
Cu443  Cu444   2.680   .     S
Cu443  N455    2.014   .     S
Cu443  O459    1.952   .     S
Cu443  O457    1.953   .     S
Cu443  O461    1.977   .     S
Cu444  N456    2.014   .     S
Cu444  O460    1.952   .     S
Cu444  O458    1.953   .     S
Cu444  O462    1.977   .     S
Cu444  O464    1.975   .     S
Br465  C493    1.932   .     S
Br466  C495    1.932   .     S
Br467  C496    1.932   .     S
Br468  C497    1.932   .     S
Br469  C498    1.930   .     S
Br470  C499    1.930   .     S
C471   O518    1.288   .     A
C471   O515    1.288   .     A
C471   C472    1.440   .     S
C472   C499    1.405   .     A
C472   C496    1.404   .     A
C473   F510    1.355   .     S
C473   N514    1.368   .     A
C474   F511    1.355   .     S
C474   N513    1.368   .     A
C474   C127    1.416   1_565 S
C475   N514    1.368   .     A
C475   F512    1.354   .     S
C476   F504    1.354   .     S
C476   N513    1.368   .     A
C476   C125    1.416   1_565 S
C477   C483    1.467   .     S
C477   O522    1.296   .     A
C477   O519    1.295   .     A
C478   O520    1.295   .     A
C478   C481    1.467   .     S
C478   O521    1.296   .     A
C479   F503    1.355   .     S
C479   C481    1.403   .     A
C479   C490    1.406   .     A
C480   C491    1.406   .     A
C480   C483    1.403   .     A
C480   F505    1.355   .     S
C481   C484    1.399   .     A
C482   O516    1.288   .     A
C482   C500    1.440   .     S
C482   O517    1.288   .     A
C483   C485    1.399   .     A
C484   F506    1.360   .     S
C484   C486    1.398   .     A
C485   C487    1.398   .     A
C485   F507    1.360   .     S
C486   C492    1.404   .     A
C486   C488    1.415   .     A
C487   C489    1.415   .     A
C487   C494    1.404   .     A
C488   C490    1.423   .     A
C488   C1011   1.411   .     S
C489   C491    1.423   .     A
C489   C1010   1.411   1_554 S
C490   C495    1.418   .     A
C491   C493    1.418   .     A
C492   F508    1.360   .     S
C492   C1015   1.392   .     S
C493   C1014   1.392   1_554 S
C494   F509    1.360   .     S
C494   C1017   1.392   1_554 S
C495   C1016   1.392   .     S
C497   C500    1.404   .     A
C497   C383    1.395   1_655 S
C498   C500    1.405   .     A
C498   C380    1.395   1_655 S
Cu501  O521    1.975   .     S
Cu501  Cu502   2.680   .     S
Cu501  N513    2.014   .     S
Cu501  O517    1.952   .     S
Cu501  O515    1.953   .     S
Cu501  O519    1.977   .     S
Cu502  N514    2.014   .     S
Cu502  O518    1.952   .     S
Cu502  O516    1.953   .     S
Cu502  O520    1.977   .     S
Cu502  O522    1.975   .     S
Br523  C551    1.932   .     S
Br524  C553    1.932   .     S
Br525  C554    1.932   .     S
Br526  C555    1.932   .     S
Br527  C556    1.930   .     S
Br528  C557    1.930   .     S
C529   O576    1.288   .     A
C529   O573    1.288   .     A
C529   C530    1.440   .     S
C530   C557    1.405   .     A
C530   C554    1.404   .     A
C531   F568    1.355   .     S
C531   N572    1.368   .     A
C531   C882    1.416   1_545 S
C532   F569    1.355   .     S
C532   N571    1.368   .     A
C532   C707    1.416   .     S
C533   N572    1.368   .     A
C533   F570    1.354   .     S
C533   C880    1.416   1_545 S
C534   F562    1.354   .     S
C534   N571    1.368   .     A
C534   C705    1.416   .     S
C535   C541    1.467   .     S
C535   O580    1.296   .     A
C535   O577    1.295   .     A
C536   O578    1.295   .     A
C536   C539    1.467   .     S
C536   O579    1.296   .     A
C537   F561    1.355   .     S
C537   C539    1.403   .     A
C537   C548    1.406   .     A
C538   C549    1.406   .     A
C538   C541    1.403   .     A
C538   F563    1.355   .     S
C539   C542    1.399   .     A
C540   O574    1.288   .     A
C540   C558    1.440   .     S
C540   O575    1.288   .     A
C541   C543    1.399   .     A
C542   F564    1.360   .     S
C542   C544    1.398   .     A
C543   C545    1.398   .     A
C543   F565    1.360   .     S
C544   C550    1.404   .     A
C544   C546    1.415   .     A
C545   C547    1.415   .     A
C545   C552    1.404   .     A
C546   C548    1.423   .     A
C546   C25     1.411   1_556 S
C547   C549    1.423   .     A
C548   C553    1.418   .     A
C549   C551    1.418   .     A
C550   F566    1.360   .     S
C550   C29     1.392   1_556 S
C552   F567    1.360   .     S
C553   C30     1.392   1_556 S
C554   C672    1.395   1_455 S
C555   C558    1.404   .     A
C555   C615    1.395   .     S
C556   C558    1.405   .     A
C556   C612    1.395   .     S
C557   C671    1.395   1_455 S
Cu559  O579    1.975   .     S
Cu559  Cu560   2.680   .     S
Cu559  N571    2.014   .     S
Cu559  O575    1.952   .     S
Cu559  O573    1.953   .     S
Cu559  O577    1.977   .     S
Cu560  N572    2.014   .     S
Cu560  O576    1.952   .     S
Cu560  O574    1.953   .     S
Cu560  O578    1.977   .     S
Cu560  O580    1.975   .     S
Br581  C609    1.932   .     S
Br582  C611    1.932   .     S
Br583  C612    1.932   .     S
Br584  C613    1.932   .     S
Br585  C614    1.930   .     S
Br586  C615    1.930   .     S
C587   O634    1.288   .     A
C587   O631    1.288   .     A
C587   C588    1.440   .     S
C588   C615    1.405   .     A
C588   C612    1.404   .     A
C589   F626    1.355   .     S
C589   N630    1.368   .     A
C589   C940    1.416   1_545 S
C590   F627    1.355   .     S
C590   N629    1.368   .     A
C590   C765    1.416   .     S
C591   N630    1.368   .     A
C591   F628    1.354   .     S
C591   C938    1.416   1_545 S
C592   F620    1.354   .     S
C592   N629    1.368   .     A
C592   C763    1.416   .     S
C593   C599    1.467   .     S
C593   O638    1.296   .     A
C593   O635    1.295   .     A
C594   O636    1.295   .     A
C594   C597    1.467   .     S
C594   O637    1.296   .     A
C595   F619    1.355   .     S
C595   C597    1.403   .     A
C595   C606    1.406   .     A
C596   C607    1.406   .     A
C596   C599    1.403   .     A
C596   F621    1.355   .     S
C597   C600    1.399   .     A
C598   O632    1.288   .     A
C598   C616    1.440   .     S
C598   O633    1.288   .     A
C599   C601    1.399   .     A
C600   F622    1.360   .     S
C600   C602    1.398   .     A
C601   C603    1.398   .     A
C601   F623    1.360   .     S
C602   C608    1.404   .     A
C602   C604    1.415   .     A
C603   C605    1.415   .     A
C603   C610    1.404   .     A
C604   C606    1.423   .     A
C604   C83     1.411   1_556 S
C605   C607    1.423   .     A
C606   C611    1.418   .     A
C607   C609    1.418   .     A
C608   F624    1.360   .     S
C608   C87     1.392   1_556 S
C610   F625    1.360   .     S
C611   C88     1.392   1_556 S
C613   C616    1.404   .     A
C613   C673    1.395   .     S
C614   C616    1.405   .     A
C614   C670    1.395   .     S
Cu617  O637    1.975   .     S
Cu617  Cu618   2.680   .     S
Cu617  N629    2.014   .     S
Cu617  O633    1.952   .     S
Cu617  O631    1.953   .     S
Cu617  O635    1.977   .     S
Cu618  N630    2.014   .     S
Cu618  O634    1.952   .     S
Cu618  O632    1.953   .     S
Cu618  O636    1.977   .     S
Cu618  O638    1.975   .     S
Br639  C667    1.932   .     S
Br640  C669    1.932   .     S
Br641  C670    1.932   .     S
Br642  C671    1.932   .     S
Br643  C672    1.930   .     S
Br644  C673    1.930   .     S
C645   O692    1.288   .     A
C645   O689    1.288   .     A
C645   C646    1.440   .     S
C646   C673    1.405   .     A
C646   C670    1.404   .     A
C647   F684    1.355   .     S
C647   N688    1.368   .     A
C647   C998    1.416   1_545 S
C648   F685    1.355   .     S
C648   N687    1.368   .     A
C648   C823    1.416   .     S
C649   N688    1.368   .     A
C649   F686    1.354   .     S
C649   C996    1.416   1_545 S
C650   F678    1.354   .     S
C650   N687    1.368   .     A
C650   C821    1.416   .     S
C651   C657    1.467   .     S
C651   O696    1.296   .     A
C651   O693    1.295   .     A
C652   O694    1.295   .     A
C652   C655    1.467   .     S
C652   O695    1.296   .     A
C653   F677    1.355   .     S
C653   C655    1.403   .     A
C653   C664    1.406   .     A
C654   C665    1.406   .     A
C654   C657    1.403   .     A
C654   F679    1.355   .     S
C655   C658    1.399   .     A
C656   O690    1.288   .     A
C656   C674    1.440   .     S
C656   O691    1.288   .     A
C657   C659    1.399   .     A
C658   F680    1.360   .     S
C658   C660    1.398   .     A
C659   C661    1.398   .     A
C659   F681    1.360   .     S
C660   C666    1.404   .     A
C660   C662    1.415   .     A
C661   C663    1.415   .     A
C661   C668    1.404   .     A
C662   C664    1.423   .     A
C662   C141    1.411   1_556 S
C663   C665    1.423   .     A
C664   C669    1.418   .     A
C665   C667    1.418   .     A
C666   F682    1.360   .     S
C666   C145    1.392   1_556 S
C668   F683    1.360   .     S
C669   C146    1.392   1_556 S
C671   C674    1.404   .     A
C671   C557    1.395   1_655 S
C672   C674    1.405   .     A
C672   C554    1.395   1_655 S
Cu675  O695    1.975   .     S
Cu675  Cu676   2.680   .     S
Cu675  N687    2.014   .     S
Cu675  O691    1.952   .     S
Cu675  O689    1.953   .     S
Cu675  O693    1.977   .     S
Cu676  N688    2.014   .     S
Cu676  O692    1.952   .     S
Cu676  O690    1.953   .     S
Cu676  O694    1.977   .     S
Cu676  O696    1.975   .     S
Br697  C725    1.932   .     S
Br698  C727    1.932   .     S
Br699  C728    1.932   .     S
Br700  C729    1.932   .     S
Br701  C730    1.930   .     S
Br702  C731    1.930   .     S
C703   O750    1.288   .     A
C703   O747    1.288   .     A
C703   C704    1.440   .     S
C704   C731    1.405   .     A
C704   C728    1.404   .     A
C705   F742    1.355   .     S
C705   N746    1.368   .     A
C706   F743    1.355   .     S
C706   N745    1.368   .     A
C706   C881    1.416   .     S
C707   N746    1.368   .     A
C707   F744    1.354   .     S
C708   F736    1.354   .     S
C708   N745    1.368   .     A
C708   C879    1.416   .     S
C709   C715    1.467   .     S
C709   O754    1.296   .     A
C709   O751    1.295   .     A
C710   O752    1.295   .     A
C710   C713    1.467   .     S
C710   O753    1.296   .     A
C711   F735    1.355   .     S
C711   C713    1.403   .     A
C711   C722    1.406   .     A
C712   C723    1.406   .     A
C712   C715    1.403   .     A
C712   F737    1.355   .     S
C713   C716    1.399   .     A
C714   O748    1.288   .     A
C714   C732    1.440   .     S
C714   O749    1.288   .     A
C715   C717    1.399   .     A
C716   F738    1.360   .     S
C716   C718    1.398   .     A
C717   C719    1.398   .     A
C717   F739    1.360   .     S
C718   C724    1.404   .     A
C718   C720    1.415   .     A
C719   C721    1.415   .     A
C719   C726    1.404   .     A
C720   C722    1.423   .     A
C720   C199    1.411   1_556 S
C721   C723    1.423   .     A
C722   C727    1.418   .     A
C723   C725    1.418   .     A
C724   F740    1.360   .     S
C724   C203    1.392   1_556 S
C726   F741    1.360   .     S
C727   C204    1.392   1_556 S
C728   C846    1.395   1_455 S
C729   C732    1.404   .     A
C729   C789    1.395   .     S
C730   C732    1.405   .     A
C730   C786    1.395   .     S
C731   C845    1.395   1_455 S
Cu733  O753    1.975   .     S
Cu733  Cu734   2.680   .     S
Cu733  N745    2.014   .     S
Cu733  O749    1.952   .     S
Cu733  O747    1.953   .     S
Cu733  O751    1.977   .     S
Cu734  N746    2.014   .     S
Cu734  O750    1.952   .     S
Cu734  O748    1.953   .     S
Cu734  O752    1.977   .     S
Cu734  O754    1.975   .     S
Br755  C783    1.932   .     S
Br756  C785    1.932   .     S
Br757  C786    1.932   .     S
Br758  C787    1.932   .     S
Br759  C788    1.930   .     S
Br760  C789    1.930   .     S
C761   O808    1.288   .     A
C761   O805    1.288   .     A
C761   C762    1.440   .     S
C762   C789    1.405   .     A
C762   C786    1.404   .     A
C763   F800    1.355   .     S
C763   N804    1.368   .     A
C764   F801    1.355   .     S
C764   N803    1.368   .     A
C764   C939    1.416   .     S
C765   N804    1.368   .     A
C765   F802    1.354   .     S
C766   F794    1.354   .     S
C766   N803    1.368   .     A
C766   C937    1.416   .     S
C767   C773    1.467   .     S
C767   O812    1.296   .     A
C767   O809    1.295   .     A
C768   O810    1.295   .     A
C768   C771    1.467   .     S
C768   O811    1.296   .     A
C769   F793    1.355   .     S
C769   C771    1.403   .     A
C769   C780    1.406   .     A
C770   C781    1.406   .     A
C770   C773    1.403   .     A
C770   F795    1.355   .     S
C771   C774    1.399   .     A
C772   O806    1.288   .     A
C772   C790    1.440   .     S
C772   O807    1.288   .     A
C773   C775    1.399   .     A
C774   F796    1.360   .     S
C774   C776    1.398   .     A
C775   C777    1.398   .     A
C775   F797    1.360   .     S
C776   C782    1.404   .     A
C776   C778    1.415   .     A
C777   C779    1.415   .     A
C777   C784    1.404   .     A
C778   C780    1.423   .     A
C778   C257    1.411   1_556 S
C779   C781    1.423   .     A
C780   C785    1.418   .     A
C781   C783    1.418   .     A
C782   F798    1.360   .     S
C782   C261    1.392   1_556 S
C784   F799    1.360   .     S
C785   C262    1.392   1_556 S
C787   C790    1.404   .     A
C787   C847    1.395   .     S
C788   C790    1.405   .     A
C788   C844    1.395   .     S
Cu791  O811    1.975   .     S
Cu791  Cu792   2.680   .     S
Cu791  N803    2.014   .     S
Cu791  O807    1.952   .     S
Cu791  O805    1.953   .     S
Cu791  O809    1.977   .     S
Cu792  N804    2.014   .     S
Cu792  O808    1.952   .     S
Cu792  O806    1.953   .     S
Cu792  O810    1.977   .     S
Cu792  O812    1.975   .     S
Br813  C841    1.932   .     S
Br814  C843    1.932   .     S
Br815  C844    1.932   .     S
Br816  C845    1.932   .     S
Br817  C846    1.930   .     S
Br818  C847    1.930   .     S
C819   O866    1.288   .     A
C819   O863    1.288   .     A
C819   C820    1.440   .     S
C820   C847    1.405   .     A
C820   C844    1.404   .     A
C821   F858    1.355   .     S
C821   N862    1.368   .     A
C822   F859    1.355   .     S
C822   N861    1.368   .     A
C822   C997    1.416   .     S
C823   N862    1.368   .     A
C823   F860    1.354   .     S
C824   F852    1.354   .     S
C824   N861    1.368   .     A
C824   C995    1.416   .     S
C825   C831    1.467   .     S
C825   O870    1.296   .     A
C825   O867    1.295   .     A
C826   O868    1.295   .     A
C826   C829    1.467   .     S
C826   O869    1.296   .     A
C827   F851    1.355   .     S
C827   C829    1.403   .     A
C827   C838    1.406   .     A
C828   C839    1.406   .     A
C828   C831    1.403   .     A
C828   F853    1.355   .     S
C829   C832    1.399   .     A
C830   O864    1.288   .     A
C830   C848    1.440   .     S
C830   O865    1.288   .     A
C831   C833    1.399   .     A
C832   F854    1.360   .     S
C832   C834    1.398   .     A
C833   C835    1.398   .     A
C833   F855    1.360   .     S
C834   C840    1.404   .     A
C834   C836    1.415   .     A
C835   C837    1.415   .     A
C835   C842    1.404   .     A
C836   C838    1.423   .     A
C836   C315    1.411   1_556 S
C837   C839    1.423   .     A
C838   C843    1.418   .     A
C839   C841    1.418   .     A
C840   F856    1.360   .     S
C840   C319    1.392   1_556 S
C842   F857    1.360   .     S
C843   C320    1.392   1_556 S
C845   C848    1.404   .     A
C845   C731    1.395   1_655 S
C846   C848    1.405   .     A
C846   C728    1.395   1_655 S
Cu849  O869    1.975   .     S
Cu849  Cu850   2.680   .     S
Cu849  N861    2.014   .     S
Cu849  O865    1.952   .     S
Cu849  O863    1.953   .     S
Cu849  O867    1.977   .     S
Cu850  N862    2.014   .     S
Cu850  O866    1.952   .     S
Cu850  O864    1.953   .     S
Cu850  O868    1.977   .     S
Cu850  O870    1.975   .     S
Br871  C899    1.932   .     S
Br872  C901    1.932   .     S
Br873  C902    1.932   .     S
Br874  C903    1.932   .     S
Br875  C904    1.930   .     S
Br876  C905    1.930   .     S
C877   O924    1.288   .     A
C877   O921    1.288   .     A
C877   C878    1.440   .     S
C878   C905    1.405   .     A
C878   C902    1.404   .     A
C879   F916    1.355   .     S
C879   N920    1.368   .     A
C880   F917    1.355   .     S
C880   N919    1.368   .     A
C880   C533    1.416   1_565 S
C881   N920    1.368   .     A
C881   F918    1.354   .     S
C882   F910    1.354   .     S
C882   N919    1.368   .     A
C882   C531    1.416   1_565 S
C883   C889    1.467   .     S
C883   O928    1.296   .     A
C883   O925    1.295   .     A
C884   O926    1.295   .     A
C884   C887    1.467   .     S
C884   O927    1.296   .     A
C885   F909    1.355   .     S
C885   C887    1.403   .     A
C885   C896    1.406   .     A
C886   C897    1.406   .     A
C886   C889    1.403   .     A
C886   F911    1.355   .     S
C887   C890    1.399   .     A
C888   O922    1.288   .     A
C888   C906    1.440   .     S
C888   O923    1.288   .     A
C889   C891    1.399   .     A
C890   F912    1.360   .     S
C890   C892    1.398   .     A
C891   C893    1.398   .     A
C891   F913    1.360   .     S
C892   C898    1.404   .     A
C892   C894    1.415   .     A
C893   C895    1.415   .     A
C893   C900    1.404   .     A
C894   C896    1.423   .     A
C894   C373    1.411   1_556 S
C895   C897    1.423   .     A
C896   C901    1.418   .     A
C897   C899    1.418   .     A
C898   F914    1.360   .     S
C898   C377    1.392   1_556 S
C900   F915    1.360   .     S
C901   C378    1.392   1_556 S
C902   C1020   1.395   1_455 S
C903   C906    1.404   .     A
C903   C963    1.395   .     S
C904   C906    1.405   .     A
C904   C960    1.395   .     S
C905   C1019   1.395   1_455 S
Cu907  O927    1.975   .     S
Cu907  Cu908   2.680   .     S
Cu907  N919    2.014   .     S
Cu907  O923    1.952   .     S
Cu907  O921    1.953   .     S
Cu907  O925    1.977   .     S
Cu908  N920    2.014   .     S
Cu908  O924    1.952   .     S
Cu908  O922    1.953   .     S
Cu908  O926    1.977   .     S
Cu908  O928    1.975   .     S
Br929  C957    1.932   .     S
Br930  C959    1.932   .     S
Br931  C960    1.932   .     S
Br932  C961    1.932   .     S
Br933  C962    1.930   .     S
Br934  C963    1.930   .     S
C935   O982    1.288   .     A
C935   O979    1.288   .     A
C935   C936    1.440   .     S
C936   C963    1.405   .     A
C936   C960    1.404   .     A
C937   F974    1.355   .     S
C937   N978    1.368   .     A
C938   F975    1.355   .     S
C938   N977    1.368   .     A
C938   C591    1.416   1_565 S
C939   N978    1.368   .     A
C939   F976    1.354   .     S
C940   F968    1.354   .     S
C940   N977    1.368   .     A
C940   C589    1.416   1_565 S
C941   C947    1.467   .     S
C941   O986    1.296   .     A
C941   O983    1.295   .     A
C942   O984    1.295   .     A
C942   C945    1.467   .     S
C942   O985    1.296   .     A
C943   F967    1.355   .     S
C943   C945    1.403   .     A
C943   C954    1.406   .     A
C944   C955    1.406   .     A
C944   C947    1.403   .     A
C944   F969    1.355   .     S
C945   C948    1.399   .     A
C946   O980    1.288   .     A
C946   C964    1.440   .     S
C946   O981    1.288   .     A
C947   C949    1.399   .     A
C948   F970    1.360   .     S
C948   C950    1.398   .     A
C949   C951    1.398   .     A
C949   F971    1.360   .     S
C950   C956    1.404   .     A
C950   C952    1.415   .     A
C951   C953    1.415   .     A
C951   C958    1.404   .     A
C952   C954    1.423   .     A
C952   C431    1.411   1_556 S
C953   C955    1.423   .     A
C954   C959    1.418   .     A
C955   C957    1.418   .     A
C956   F972    1.360   .     S
C956   C435    1.392   1_556 S
C958   F973    1.360   .     S
C959   C436    1.392   1_556 S
C961   C964    1.404   .     A
C961   C1021   1.395   .     S
C962   C964    1.405   .     A
C962   C1018   1.395   .     S
Cu965  O985    1.975   .     S
Cu965  Cu966   2.680   .     S
Cu965  N977    2.014   .     S
Cu965  O981    1.952   .     S
Cu965  O979    1.953   .     S
Cu965  O983    1.977   .     S
Cu966  N978    2.014   .     S
Cu966  O982    1.952   .     S
Cu966  O980    1.953   .     S
Cu966  O984    1.977   .     S
Cu966  O986    1.975   .     S
Br987  C1015   1.932   .     S
Br988  C1017   1.932   .     S
Br989  C1018   1.932   .     S
Br990  C1019   1.932   .     S
Br991  C1020   1.930   .     S
Br992  C1021   1.930   .     S
C993   O1040   1.288   .     A
C993   O1037   1.288   .     A
C993   C994    1.440   .     S
C994   C1021   1.405   .     A
C994   C1018   1.404   .     A
C995   F1032   1.355   .     S
C995   N1036   1.368   .     A
C996   F1033   1.355   .     S
C996   N1035   1.368   .     A
C996   C649    1.416   1_565 S
C997   N1036   1.368   .     A
C997   F1034   1.354   .     S
C998   F1026   1.354   .     S
C998   N1035   1.368   .     A
C998   C647    1.416   1_565 S
C999   C1005   1.467   .     S
C999   O1044   1.296   .     A
C999   O1041   1.295   .     A
C1000  O1042   1.295   .     A
C1000  C1003   1.467   .     S
C1000  O1043   1.296   .     A
C1001  F1025   1.355   .     S
C1001  C1003   1.403   .     A
C1001  C1012   1.406   .     A
C1002  C1013   1.406   .     A
C1002  C1005   1.403   .     A
C1002  F1027   1.355   .     S
C1003  C1006   1.399   .     A
C1004  O1038   1.288   .     A
C1004  C1022   1.440   .     S
C1004  O1039   1.288   .     A
C1005  C1007   1.399   .     A
C1006  F1028   1.360   .     S
C1006  C1008   1.398   .     A
C1007  C1009   1.398   .     A
C1007  F1029   1.360   .     S
C1008  C1014   1.404   .     A
C1008  C1010   1.415   .     A
C1009  C1011   1.415   .     A
C1009  C1016   1.404   .     A
C1010  C1012   1.423   .     A
C1010  C489    1.411   1_556 S
C1011  C1013   1.423   .     A
C1012  C1017   1.418   .     A
C1013  C1015   1.418   .     A
C1014  F1030   1.360   .     S
C1014  C493    1.392   1_556 S
C1016  F1031   1.360   .     S
C1017  C494    1.392   1_556 S
C1019  C1022   1.404   .     A
C1019  C905    1.395   1_655 S
C1020  C1022   1.405   .     A
C1020  C902    1.395   1_655 S
Cu1023 O1043   1.975   .     S
Cu1023 Cu1024  2.680   .     S
Cu1023 N1035   2.014   .     S
Cu1023 O1039   1.952   .     S
Cu1023 O1037   1.953   .     S
Cu1023 O1041   1.977   .     S
Cu1024 N1036   2.014   .     S
Cu1024 O1040   1.952   .     S
Cu1024 O1038   1.953   .     S
Cu1024 O1042   1.977   .     S
Cu1024 O1044   1.975   .     S
