data_str_m2_o2_o10_pcu_sym.25
_audit_creation_date              2020-01-03
_audit_creation_method            'Materials Studio'
_symmetry_space_group_name_H-M    'P1'
_symmetry_Int_Tables_number       1
_symmetry_cell_setting            triclinic
loop_
_symmetry_equiv_pos_as_xyz
  x,y,z
_cell_length_a                    26.4089
_cell_length_b                    30.3039
_cell_length_c                    28.1073
_cell_angle_alpha                 91.5180
_cell_angle_beta                  97.8316
_cell_angle_gamma                 94.1951
loop_
_atom_site_label
_atom_site_type_symbol
_atom_site_fract_x
_atom_site_fract_y
_atom_site_fract_z
_atom_site_U_iso_or_equiv
_atom_site_adp_type
_atom_site_occupancy
C1     C     0.17084   0.16528   0.24982   0.00000  Uiso   1.00
C2     C     0.19847   0.27823   0.45134   0.00000  Uiso   1.00
C3     C     0.16948   0.24658   0.02760   0.00000  Uiso   1.00
C4     C     0.16377   0.25036   0.47233   0.00000  Uiso   1.00
C5     C     0.06811   0.24851   0.23803   0.00000  Uiso   1.00
C6     C     0.26513   0.25091   0.26221   0.00000  Uiso   1.00
C7     C     0.01292   0.24040   0.23377   0.00000  Uiso   1.00
C8     C     0.32038   0.25757   0.26792   0.00000  Uiso   1.00
C9     C     0.19057   0.05092   0.29515   0.00000  Uiso   1.00
C10    C     0.12679   0.45079   0.24210   0.00000  Uiso   1.00
C11    C     0.19586   0.09686   0.29299   0.00000  Uiso   1.00
C12    C     0.16781   0.33485   0.25066   0.00000  Uiso   1.00
C13    C     0.12529   0.40479   0.23788   0.00000  Uiso   1.00
C14    C     0.17857   0.11708   0.24937   0.00000  Uiso   1.00
C15    C     0.17019   0.38337   0.25217   0.00000  Uiso   1.00
C16    C     0.16856   0.09022   0.20605   0.00000  Uiso   1.00
C17    C     0.21724   0.40843   0.26783   0.00000  Uiso   1.00
C18    C     0.16448   0.04368   0.20884   0.00000  Uiso   1.00
C19    C     0.21851   0.45509   0.27034   0.00000  Uiso   1.00
C20    C     0.17387   0.02441   0.25391   0.00000  Uiso   1.00
C21    C     0.17289   0.47595   0.25737   0.00000  Uiso   1.00
C22    C     0.32179   0.20480   0.19707   0.00000  Uiso   1.00
C23    C     0.21109   0.26700   0.06056   0.00000  Uiso   1.00
C24    C     0.01133   0.28941   0.30883   0.00000  Uiso   1.00
C25    C     0.22690   0.12265   0.33532   0.00000  Uiso   1.00
C26    C     0.07637   0.37922   0.21575   0.00000  Uiso   1.00
C27    C     0.17052   0.10932   0.15803   0.00000  Uiso   1.00
C28    C     0.26591   0.38642   0.27447   0.00000  Uiso   1.00
C29    C     0.15466   0.01480   0.16458   0.00000  Uiso   1.00
C30    C     0.26801   0.48225   0.28140   0.00000  Uiso   1.00
C31    C     0.26503   0.27363   0.04786   0.00000  Uiso   1.00
C32    C     0.06892   0.22104   0.45097   0.00000  Uiso   1.00
C33    C     0.23769   0.30898   0.13774   0.00000  Uiso   1.00
C34    C     0.12299   0.22916   0.43891   0.00000  Uiso   1.00
C35    C     0.09630   0.18929   0.36010   0.00000  Uiso   1.00
C36    C     0.08541   0.19985   0.11379   0.00000  Uiso   1.00
C37    C     0.24308   0.30517   0.38675   0.00000  Uiso   1.00
C38    C     0.20538   0.27296   0.10995   0.00000  Uiso   1.00
C39    C     0.12907   0.22464   0.38944   0.00000  Uiso   1.00
C40    C     0.13095   0.22364   0.09869   0.00000  Uiso   1.00
C41    C     0.20059   0.27733   0.40177   0.00000  Uiso   1.00
C42    C     0.13353   0.22074   0.04923   0.00000  Uiso   1.00
Cu43   Cu    0.16667   0.24999   0.29822   0.00000  Uiso   1.00
Cu44   Cu    0.16667   0.25000   0.20179   0.00000  Uiso   1.00
H45    H     0.20164   0.03538   0.32891   0.00000  Uiso   1.00
H46    H     0.04266   0.31181   0.29862   0.00000  Uiso   1.00
H47    H     0.25478   0.14723   0.32246   0.00000  Uiso   1.00
H48    H     0.20220   0.13986   0.35720   0.00000  Uiso   1.00
H49    H     0.24947   0.10057   0.35944   0.00000  Uiso   1.00
H50    H     0.06580   0.35308   0.23995   0.00000  Uiso   1.00
H51    H     0.04407   0.40079   0.20903   0.00000  Uiso   1.00
H52    H     0.08203   0.36346   0.18095   0.00000  Uiso   1.00
H53    H     0.13785   0.11229   0.08911   0.00000  Uiso   1.00
H54    H     0.31159   0.34738   0.24375   0.00000  Uiso   1.00
H55    H     0.10369   0.48961   0.10882   0.00000  Uiso   1.00
H56    H     0.09237   0.46749   0.23117   0.00000  Uiso   1.00
H57    H     0.32644   0.00553   0.33157   0.00000  Uiso   1.00
H58    H     0.26995   0.25383   0.01529   0.00000  Uiso   1.00
H59    H     0.27586   0.30933   0.04402   0.00000  Uiso   1.00
H60    H     0.29270   0.26112   0.07674   0.00000  Uiso   1.00
H61    H     0.05980   0.18529   0.45613   0.00000  Uiso   1.00
H62    H     0.06252   0.24175   0.48241   0.00000  Uiso   1.00
H63    H     0.04069   0.23168   0.42139   0.00000  Uiso   1.00
H64    H     0.24627   0.37468   0.15404   0.00000  Uiso   1.00
H65    H     0.08597   0.12457   0.33984   0.00000  Uiso   1.00
H66    H     0.00928   0.18359   0.09793   0.00000  Uiso   1.00
H67    H     0.10784   0.19611   0.02850   0.00000  Uiso   1.00
H68    H     0.31872   0.32410   0.40121   0.00000  Uiso   1.00
H69    H     0.22329   0.30301   0.47292   0.00000  Uiso   1.00
H70    H     0.01679   0.18157   0.18913   0.00000  Uiso   1.00
H71    H     0.29137   0.18376   0.21113   0.00000  Uiso   1.00
H72    H     0.30579   0.21998   0.16338   0.00000  Uiso   1.00
H73    H     0.31608   0.31124   0.31942   0.00000  Uiso   1.00
H74    H     0.02579   0.27124   0.34083   0.00000  Uiso   1.00
N75    N     0.16667   0.25001   0.12935   0.00000  Uiso   1.00
N76    N     0.16667   0.24999   0.37066   0.00000  Uiso   1.00
O77    O     0.16667   0.18572   0.29072   0.00000  Uiso   1.00
O78    O     0.13130   0.09796   0.12012   0.00000  Uiso   1.00
O79    O     0.29869   0.39644   0.30887   0.00000  Uiso   1.00
O80    O     0.27490   0.35541   0.23978   0.00000  Uiso   1.00
O81    O     0.18895   0.49388   0.15245   0.00000  Uiso   1.00
O82    O     0.10582   0.01064   0.13781   0.00000  Uiso   1.00
O83    O     0.28586   0.00214   0.24944   0.00000  Uiso   1.00
O84    O     0.29338   0.48579   0.32849   0.00000  Uiso   1.00
O85    O     0.28175   0.30348   0.15482   0.00000  Uiso   1.00
O86    O     0.21928   0.35102   0.13910   0.00000  Uiso   1.00
O87    O     0.05359   0.19624   0.34061   0.00000  Uiso   1.00
O88    O     0.16666   0.31427   0.20929   0.00000  Uiso   1.00
O89    O     0.11190   0.14630   0.35984   0.00000  Uiso   1.00
O90    O     0.08955   0.17424   0.14642   0.00000  Uiso   1.00
O91    O     0.03735   0.20394   0.08713   0.00000  Uiso   1.00
O92    O     0.23464   0.33651   0.36139   0.00000  Uiso   1.00
O93    O     0.29307   0.29937   0.40806   0.00000  Uiso   1.00
O94    O     0.16667   0.18573   0.20928   0.00000  Uiso   1.00
O95    O     0.16666   0.31427   0.29072   0.00000  Uiso   1.00
O96    O     0.09161   0.24999   0.28132   0.00000  Uiso   1.00
O97    O     0.24172   0.25000   0.21868   0.00000  Uiso   1.00
O98    O     0.09161   0.25000   0.19989   0.00000  Uiso   1.00
O99    O     0.24172   0.25000   0.30012   0.00000  Uiso   1.00
O100   O     0.20785   0.13339   0.15112   0.00000  Uiso   1.00
C101   C     0.50418   0.16528   0.24982   0.00000  Uiso   1.00
C102   C     0.53180   0.27823   0.45134   0.00000  Uiso   1.00
C103   C     0.50281   0.24658   0.02760   0.00000  Uiso   1.00
C104   C     0.49710   0.25036   0.47233   0.00000  Uiso   1.00
C105   C     0.40144   0.24851   0.23803   0.00000  Uiso   1.00
C106   C     0.59846   0.25091   0.26221   0.00000  Uiso   1.00
C107   C     0.34625   0.24040   0.23377   0.00000  Uiso   1.00
C108   C     0.65371   0.25757   0.26792   0.00000  Uiso   1.00
C109   C     0.52391   0.05092   0.29515   0.00000  Uiso   1.00
C110   C     0.46012   0.45079   0.24210   0.00000  Uiso   1.00
C111   C     0.52919   0.09686   0.29299   0.00000  Uiso   1.00
C112   C     0.50114   0.33485   0.25066   0.00000  Uiso   1.00
C113   C     0.45863   0.40479   0.23788   0.00000  Uiso   1.00
C114   C     0.51191   0.11708   0.24937   0.00000  Uiso   1.00
C115   C     0.50353   0.38337   0.25217   0.00000  Uiso   1.00
C116   C     0.50189   0.09022   0.20605   0.00000  Uiso   1.00
C117   C     0.55057   0.40843   0.26783   0.00000  Uiso   1.00
C118   C     0.49781   0.04368   0.20884   0.00000  Uiso   1.00
C119   C     0.55184   0.45509   0.27034   0.00000  Uiso   1.00
C120   C     0.50720   0.02441   0.25391   0.00000  Uiso   1.00
C121   C     0.50622   0.47595   0.25737   0.00000  Uiso   1.00
C122   C     0.65512   0.20480   0.19707   0.00000  Uiso   1.00
C123   C     0.54442   0.26700   0.06056   0.00000  Uiso   1.00
C124   C     0.34466   0.28941   0.30883   0.00000  Uiso   1.00
C125   C     0.56023   0.12265   0.33532   0.00000  Uiso   1.00
C126   C     0.40970   0.37922   0.21575   0.00000  Uiso   1.00
C127   C     0.50385   0.10932   0.15803   0.00000  Uiso   1.00
C128   C     0.59925   0.38642   0.27447   0.00000  Uiso   1.00
C129   C     0.48799   0.01480   0.16458   0.00000  Uiso   1.00
C130   C     0.60134   0.48225   0.28140   0.00000  Uiso   1.00
C131   C     0.59836   0.27363   0.04786   0.00000  Uiso   1.00
C132   C     0.40226   0.22104   0.45097   0.00000  Uiso   1.00
C133   C     0.57103   0.30898   0.13774   0.00000  Uiso   1.00
C134   C     0.45632   0.22916   0.43891   0.00000  Uiso   1.00
C135   C     0.42963   0.18929   0.36010   0.00000  Uiso   1.00
C136   C     0.41875   0.19985   0.11379   0.00000  Uiso   1.00
C137   C     0.57641   0.30517   0.38675   0.00000  Uiso   1.00
C138   C     0.53871   0.27296   0.10995   0.00000  Uiso   1.00
C139   C     0.46241   0.22464   0.38944   0.00000  Uiso   1.00
C140   C     0.46428   0.22364   0.09869   0.00000  Uiso   1.00
C141   C     0.53392   0.27733   0.40177   0.00000  Uiso   1.00
C142   C     0.46686   0.22074   0.04923   0.00000  Uiso   1.00
Cu143  Cu    0.50000   0.24999   0.29822   0.00000  Uiso   1.00
Cu144  Cu    0.50000   0.25000   0.20179   0.00000  Uiso   1.00
H145   H     0.53498   0.03538   0.32891   0.00000  Uiso   1.00
H146   H     0.37599   0.31181   0.29862   0.00000  Uiso   1.00
H147   H     0.58811   0.14723   0.32246   0.00000  Uiso   1.00
H148   H     0.53554   0.13986   0.35720   0.00000  Uiso   1.00
H149   H     0.58281   0.10057   0.35944   0.00000  Uiso   1.00
H150   H     0.39913   0.35308   0.23995   0.00000  Uiso   1.00
H151   H     0.37741   0.40079   0.20903   0.00000  Uiso   1.00
H152   H     0.41537   0.36346   0.18095   0.00000  Uiso   1.00
H153   H     0.47118   0.11229   0.08911   0.00000  Uiso   1.00
H154   H     0.64493   0.34738   0.24375   0.00000  Uiso   1.00
H155   H     0.43702   0.48961   0.10882   0.00000  Uiso   1.00
H156   H     0.42571   0.46749   0.23117   0.00000  Uiso   1.00
H157   H     0.65977   0.00553   0.33157   0.00000  Uiso   1.00
H158   H     0.60328   0.25383   0.01529   0.00000  Uiso   1.00
H159   H     0.60919   0.30933   0.04402   0.00000  Uiso   1.00
H160   H     0.62603   0.26112   0.07674   0.00000  Uiso   1.00
H161   H     0.39313   0.18529   0.45613   0.00000  Uiso   1.00
H162   H     0.39585   0.24175   0.48241   0.00000  Uiso   1.00
H163   H     0.37402   0.23168   0.42139   0.00000  Uiso   1.00
H164   H     0.57960   0.37468   0.15404   0.00000  Uiso   1.00
H165   H     0.41931   0.12457   0.33984   0.00000  Uiso   1.00
H166   H     0.34261   0.18359   0.09793   0.00000  Uiso   1.00
H167   H     0.44117   0.19611   0.02850   0.00000  Uiso   1.00
H168   H     0.65206   0.32410   0.40121   0.00000  Uiso   1.00
H169   H     0.55663   0.30301   0.47292   0.00000  Uiso   1.00
H170   H     0.35012   0.18157   0.18913   0.00000  Uiso   1.00
H171   H     0.62470   0.18376   0.21113   0.00000  Uiso   1.00
H172   H     0.63912   0.21998   0.16338   0.00000  Uiso   1.00
H173   H     0.64941   0.31124   0.31942   0.00000  Uiso   1.00
H174   H     0.35912   0.27124   0.34083   0.00000  Uiso   1.00
N175   N     0.50000   0.25001   0.12935   0.00000  Uiso   1.00
N176   N     0.50000   0.24999   0.37066   0.00000  Uiso   1.00
O177   O     0.50000   0.18572   0.29072   0.00000  Uiso   1.00
O178   O     0.46464   0.09796   0.12012   0.00000  Uiso   1.00
O179   O     0.63203   0.39644   0.30887   0.00000  Uiso   1.00
O180   O     0.60823   0.35541   0.23978   0.00000  Uiso   1.00
O181   O     0.52228   0.49388   0.15245   0.00000  Uiso   1.00
O182   O     0.43915   0.01064   0.13781   0.00000  Uiso   1.00
O183   O     0.61920   0.00214   0.24944   0.00000  Uiso   1.00
O184   O     0.62671   0.48579   0.32849   0.00000  Uiso   1.00
O185   O     0.61509   0.30348   0.15482   0.00000  Uiso   1.00
O186   O     0.55261   0.35102   0.13910   0.00000  Uiso   1.00
O187   O     0.38693   0.19624   0.34061   0.00000  Uiso   1.00
O188   O     0.50000   0.31427   0.20929   0.00000  Uiso   1.00
O189   O     0.44524   0.14630   0.35984   0.00000  Uiso   1.00
O190   O     0.42289   0.17424   0.14642   0.00000  Uiso   1.00
O191   O     0.37069   0.20394   0.08713   0.00000  Uiso   1.00
O192   O     0.56797   0.33651   0.36139   0.00000  Uiso   1.00
O193   O     0.62640   0.29937   0.40806   0.00000  Uiso   1.00
O194   O     0.50000   0.18573   0.20928   0.00000  Uiso   1.00
O195   O     0.50000   0.31427   0.29072   0.00000  Uiso   1.00
O196   O     0.42495   0.24999   0.28132   0.00000  Uiso   1.00
O197   O     0.57505   0.25000   0.21868   0.00000  Uiso   1.00
O198   O     0.42495   0.25000   0.19989   0.00000  Uiso   1.00
O199   O     0.57505   0.25000   0.30012   0.00000  Uiso   1.00
O200   O     0.54119   0.13339   0.15112   0.00000  Uiso   1.00
C201   C     0.83751   0.16528   0.24982   0.00000  Uiso   1.00
C202   C     0.86513   0.27823   0.45134   0.00000  Uiso   1.00
C203   C     0.83614   0.24658   0.02760   0.00000  Uiso   1.00
C204   C     0.83043   0.25036   0.47233   0.00000  Uiso   1.00
C205   C     0.73478   0.24851   0.23803   0.00000  Uiso   1.00
C206   C     0.93180   0.25091   0.26221   0.00000  Uiso   1.00
C207   C     0.67958   0.24040   0.23377   0.00000  Uiso   1.00
C208   C     0.98704   0.25757   0.26792   0.00000  Uiso   1.00
C209   C     0.85724   0.05092   0.29515   0.00000  Uiso   1.00
C210   C     0.79346   0.45079   0.24210   0.00000  Uiso   1.00
C211   C     0.86252   0.09686   0.29299   0.00000  Uiso   1.00
C212   C     0.83447   0.33485   0.25066   0.00000  Uiso   1.00
C213   C     0.79196   0.40479   0.23788   0.00000  Uiso   1.00
C214   C     0.84524   0.11708   0.24937   0.00000  Uiso   1.00
C215   C     0.83686   0.38337   0.25217   0.00000  Uiso   1.00
C216   C     0.83523   0.09022   0.20605   0.00000  Uiso   1.00
C217   C     0.88390   0.40843   0.26783   0.00000  Uiso   1.00
C218   C     0.83114   0.04368   0.20884   0.00000  Uiso   1.00
C219   C     0.88517   0.45509   0.27034   0.00000  Uiso   1.00
C220   C     0.84054   0.02441   0.25391   0.00000  Uiso   1.00
C221   C     0.83955   0.47595   0.25737   0.00000  Uiso   1.00
C222   C     0.98846   0.20480   0.19707   0.00000  Uiso   1.00
C223   C     0.87775   0.26700   0.06056   0.00000  Uiso   1.00
C224   C     0.67800   0.28941   0.30883   0.00000  Uiso   1.00
C225   C     0.89356   0.12265   0.33532   0.00000  Uiso   1.00
C226   C     0.74303   0.37922   0.21575   0.00000  Uiso   1.00
C227   C     0.83718   0.10932   0.15803   0.00000  Uiso   1.00
C228   C     0.93258   0.38642   0.27447   0.00000  Uiso   1.00
C229   C     0.82132   0.01480   0.16458   0.00000  Uiso   1.00
C230   C     0.93468   0.48225   0.28140   0.00000  Uiso   1.00
C231   C     0.93170   0.27363   0.04786   0.00000  Uiso   1.00
C232   C     0.73559   0.22104   0.45097   0.00000  Uiso   1.00
C233   C     0.90436   0.30898   0.13774   0.00000  Uiso   1.00
C234   C     0.78966   0.22916   0.43891   0.00000  Uiso   1.00
C235   C     0.76296   0.18929   0.36010   0.00000  Uiso   1.00
C236   C     0.75208   0.19985   0.11379   0.00000  Uiso   1.00
C237   C     0.90974   0.30517   0.38675   0.00000  Uiso   1.00
C238   C     0.87204   0.27296   0.10995   0.00000  Uiso   1.00
C239   C     0.79574   0.22464   0.38944   0.00000  Uiso   1.00
C240   C     0.79761   0.22364   0.09869   0.00000  Uiso   1.00
C241   C     0.86725   0.27733   0.40177   0.00000  Uiso   1.00
C242   C     0.80020   0.22074   0.04923   0.00000  Uiso   1.00
Cu243  Cu    0.83333   0.24999   0.29822   0.00000  Uiso   1.00
Cu244  Cu    0.83333   0.25000   0.20179   0.00000  Uiso   1.00
H245   H     0.86831   0.03538   0.32891   0.00000  Uiso   1.00
H246   H     0.70933   0.31181   0.29862   0.00000  Uiso   1.00
H247   H     0.92145   0.14723   0.32246   0.00000  Uiso   1.00
H248   H     0.86887   0.13986   0.35720   0.00000  Uiso   1.00
H249   H     0.91614   0.10057   0.35944   0.00000  Uiso   1.00
H250   H     0.73247   0.35308   0.23995   0.00000  Uiso   1.00
H251   H     0.71074   0.40079   0.20903   0.00000  Uiso   1.00
H252   H     0.74870   0.36346   0.18095   0.00000  Uiso   1.00
H253   H     0.80451   0.11229   0.08911   0.00000  Uiso   1.00
H254   H     0.97826   0.34738   0.24375   0.00000  Uiso   1.00
H255   H     0.77035   0.48961   0.10882   0.00000  Uiso   1.00
H256   H     0.75904   0.46749   0.23117   0.00000  Uiso   1.00
H257   H     0.99310   0.00553   0.33157   0.00000  Uiso   1.00
H258   H     0.93661   0.25383   0.01529   0.00000  Uiso   1.00
H259   H     0.94252   0.30933   0.04402   0.00000  Uiso   1.00
H260   H     0.95937   0.26112   0.07674   0.00000  Uiso   1.00
H261   H     0.72646   0.18529   0.45613   0.00000  Uiso   1.00
H262   H     0.72919   0.24175   0.48241   0.00000  Uiso   1.00
H263   H     0.70736   0.23168   0.42139   0.00000  Uiso   1.00
H264   H     0.91293   0.37468   0.15404   0.00000  Uiso   1.00
H265   H     0.75264   0.12457   0.33984   0.00000  Uiso   1.00
H266   H     0.67595   0.18359   0.09793   0.00000  Uiso   1.00
H267   H     0.77450   0.19611   0.02850   0.00000  Uiso   1.00
H268   H     0.98539   0.32410   0.40121   0.00000  Uiso   1.00
H269   H     0.88996   0.30301   0.47292   0.00000  Uiso   1.00
H270   H     0.68345   0.18157   0.18913   0.00000  Uiso   1.00
H271   H     0.95804   0.18376   0.21113   0.00000  Uiso   1.00
H272   H     0.97245   0.21998   0.16338   0.00000  Uiso   1.00
H273   H     0.98275   0.31124   0.31942   0.00000  Uiso   1.00
H274   H     0.69245   0.27124   0.34083   0.00000  Uiso   1.00
N275   N     0.83333   0.25001   0.12935   0.00000  Uiso   1.00
N276   N     0.83333   0.24999   0.37066   0.00000  Uiso   1.00
O277   O     0.83334   0.18572   0.29072   0.00000  Uiso   1.00
O278   O     0.79797   0.09796   0.12012   0.00000  Uiso   1.00
O279   O     0.96536   0.39644   0.30887   0.00000  Uiso   1.00
O280   O     0.94157   0.35541   0.23978   0.00000  Uiso   1.00
O281   O     0.85562   0.49388   0.15245   0.00000  Uiso   1.00
O282   O     0.77249   0.01064   0.13781   0.00000  Uiso   1.00
O283   O     0.95253   0.00214   0.24944   0.00000  Uiso   1.00
O284   O     0.96004   0.48579   0.32849   0.00000  Uiso   1.00
O285   O     0.94842   0.30348   0.15482   0.00000  Uiso   1.00
O286   O     0.88595   0.35102   0.13910   0.00000  Uiso   1.00
O287   O     0.72026   0.19624   0.34061   0.00000  Uiso   1.00
O288   O     0.83333   0.31427   0.20929   0.00000  Uiso   1.00
O289   O     0.77857   0.14630   0.35984   0.00000  Uiso   1.00
O290   O     0.75622   0.17424   0.14642   0.00000  Uiso   1.00
O291   O     0.70402   0.20394   0.08713   0.00000  Uiso   1.00
O292   O     0.90130   0.33651   0.36139   0.00000  Uiso   1.00
O293   O     0.95973   0.29937   0.40806   0.00000  Uiso   1.00
O294   O     0.83334   0.18573   0.20928   0.00000  Uiso   1.00
O295   O     0.83333   0.31427   0.29072   0.00000  Uiso   1.00
O296   O     0.75828   0.24999   0.28132   0.00000  Uiso   1.00
O297   O     0.90839   0.25000   0.21868   0.00000  Uiso   1.00
O298   O     0.75828   0.25000   0.19989   0.00000  Uiso   1.00
O299   O     0.90839   0.25000   0.30012   0.00000  Uiso   1.00
O300   O     0.87452   0.13339   0.15112   0.00000  Uiso   1.00
C301   C     0.17084   0.66528   0.24982   0.00000  Uiso   1.00
C302   C     0.19847   0.77823   0.45134   0.00000  Uiso   1.00
C303   C     0.16948   0.74658   0.02760   0.00000  Uiso   1.00
C304   C     0.16377   0.75036   0.47233   0.00000  Uiso   1.00
C305   C     0.06811   0.74851   0.23803   0.00000  Uiso   1.00
C306   C     0.26513   0.75091   0.26221   0.00000  Uiso   1.00
C307   C     0.01292   0.74040   0.23377   0.00000  Uiso   1.00
C308   C     0.32038   0.75757   0.26792   0.00000  Uiso   1.00
C309   C     0.19057   0.55092   0.29515   0.00000  Uiso   1.00
C310   C     0.12679   0.95079   0.24210   0.00000  Uiso   1.00
C311   C     0.19586   0.59686   0.29299   0.00000  Uiso   1.00
C312   C     0.16781   0.83485   0.25066   0.00000  Uiso   1.00
C313   C     0.12529   0.90479   0.23788   0.00000  Uiso   1.00
C314   C     0.17857   0.61708   0.24937   0.00000  Uiso   1.00
C315   C     0.17019   0.88337   0.25217   0.00000  Uiso   1.00
C316   C     0.16856   0.59022   0.20605   0.00000  Uiso   1.00
C317   C     0.21724   0.90843   0.26783   0.00000  Uiso   1.00
C318   C     0.16448   0.54368   0.20884   0.00000  Uiso   1.00
C319   C     0.21851   0.95509   0.27034   0.00000  Uiso   1.00
C320   C     0.17387   0.52441   0.25391   0.00000  Uiso   1.00
C321   C     0.17289   0.97595   0.25737   0.00000  Uiso   1.00
C322   C     0.32179   0.70480   0.19707   0.00000  Uiso   1.00
C323   C     0.21109   0.76700   0.06056   0.00000  Uiso   1.00
C324   C     0.01133   0.78941   0.30883   0.00000  Uiso   1.00
C325   C     0.22690   0.62265   0.33532   0.00000  Uiso   1.00
C326   C     0.07637   0.87922   0.21575   0.00000  Uiso   1.00
C327   C     0.17052   0.60932   0.15803   0.00000  Uiso   1.00
C328   C     0.26591   0.88642   0.27447   0.00000  Uiso   1.00
C329   C     0.15466   0.51480   0.16458   0.00000  Uiso   1.00
C330   C     0.26801   0.98225   0.28140   0.00000  Uiso   1.00
C331   C     0.26503   0.77363   0.04786   0.00000  Uiso   1.00
C332   C     0.06892   0.72104   0.45097   0.00000  Uiso   1.00
C333   C     0.23769   0.80898   0.13774   0.00000  Uiso   1.00
C334   C     0.12299   0.72916   0.43891   0.00000  Uiso   1.00
C335   C     0.09630   0.68929   0.36010   0.00000  Uiso   1.00
C336   C     0.08541   0.69985   0.11379   0.00000  Uiso   1.00
C337   C     0.24308   0.80517   0.38675   0.00000  Uiso   1.00
C338   C     0.20538   0.77296   0.10995   0.00000  Uiso   1.00
C339   C     0.12907   0.72464   0.38944   0.00000  Uiso   1.00
C340   C     0.13095   0.72364   0.09869   0.00000  Uiso   1.00
C341   C     0.20059   0.77733   0.40177   0.00000  Uiso   1.00
C342   C     0.13353   0.72074   0.04923   0.00000  Uiso   1.00
Cu343  Cu    0.16667   0.74999   0.29822   0.00000  Uiso   1.00
Cu344  Cu    0.16667   0.75000   0.20179   0.00000  Uiso   1.00
H345   H     0.20164   0.53538   0.32891   0.00000  Uiso   1.00
H346   H     0.04266   0.81181   0.29862   0.00000  Uiso   1.00
H347   H     0.25478   0.64723   0.32246   0.00000  Uiso   1.00
H348   H     0.20220   0.63986   0.35720   0.00000  Uiso   1.00
H349   H     0.24947   0.60057   0.35944   0.00000  Uiso   1.00
H350   H     0.06580   0.85308   0.23995   0.00000  Uiso   1.00
H351   H     0.04407   0.90079   0.20903   0.00000  Uiso   1.00
H352   H     0.08203   0.86346   0.18095   0.00000  Uiso   1.00
H353   H     0.13785   0.61229   0.08911   0.00000  Uiso   1.00
H354   H     0.31159   0.84738   0.24375   0.00000  Uiso   1.00
H355   H     0.10369   0.98961   0.10882   0.00000  Uiso   1.00
H356   H     0.09237   0.96749   0.23117   0.00000  Uiso   1.00
H357   H     0.32644   0.50553   0.33157   0.00000  Uiso   1.00
H358   H     0.26995   0.75383   0.01529   0.00000  Uiso   1.00
H359   H     0.27586   0.80933   0.04402   0.00000  Uiso   1.00
H360   H     0.29270   0.76112   0.07674   0.00000  Uiso   1.00
H361   H     0.05980   0.68529   0.45613   0.00000  Uiso   1.00
H362   H     0.06252   0.74175   0.48241   0.00000  Uiso   1.00
H363   H     0.04069   0.73168   0.42139   0.00000  Uiso   1.00
H364   H     0.24627   0.87468   0.15404   0.00000  Uiso   1.00
H365   H     0.08597   0.62457   0.33984   0.00000  Uiso   1.00
H366   H     0.00928   0.68359   0.09793   0.00000  Uiso   1.00
H367   H     0.10784   0.69611   0.02850   0.00000  Uiso   1.00
H368   H     0.31872   0.82410   0.40121   0.00000  Uiso   1.00
H369   H     0.22329   0.80301   0.47292   0.00000  Uiso   1.00
H370   H     0.01679   0.68157   0.18913   0.00000  Uiso   1.00
H371   H     0.29137   0.68376   0.21113   0.00000  Uiso   1.00
H372   H     0.30579   0.71998   0.16338   0.00000  Uiso   1.00
H373   H     0.31608   0.81124   0.31942   0.00000  Uiso   1.00
H374   H     0.02579   0.77124   0.34083   0.00000  Uiso   1.00
N375   N     0.16667   0.75001   0.12935   0.00000  Uiso   1.00
N376   N     0.16667   0.74999   0.37066   0.00000  Uiso   1.00
O377   O     0.16667   0.68572   0.29072   0.00000  Uiso   1.00
O378   O     0.13130   0.59796   0.12012   0.00000  Uiso   1.00
O379   O     0.29869   0.89644   0.30887   0.00000  Uiso   1.00
O380   O     0.27490   0.85541   0.23978   0.00000  Uiso   1.00
O381   O     0.18895   0.99388   0.15245   0.00000  Uiso   1.00
O382   O     0.10582   0.51064   0.13781   0.00000  Uiso   1.00
O383   O     0.28586   0.50214   0.24944   0.00000  Uiso   1.00
O384   O     0.29338   0.98579   0.32849   0.00000  Uiso   1.00
O385   O     0.28175   0.80348   0.15482   0.00000  Uiso   1.00
O386   O     0.21928   0.85102   0.13910   0.00000  Uiso   1.00
O387   O     0.05359   0.69624   0.34061   0.00000  Uiso   1.00
O388   O     0.16666   0.81427   0.20929   0.00000  Uiso   1.00
O389   O     0.11190   0.64630   0.35984   0.00000  Uiso   1.00
O390   O     0.08955   0.67424   0.14642   0.00000  Uiso   1.00
O391   O     0.03735   0.70394   0.08713   0.00000  Uiso   1.00
O392   O     0.23464   0.83651   0.36139   0.00000  Uiso   1.00
O393   O     0.29307   0.79937   0.40806   0.00000  Uiso   1.00
O394   O     0.16667   0.68573   0.20928   0.00000  Uiso   1.00
O395   O     0.16666   0.81427   0.29072   0.00000  Uiso   1.00
O396   O     0.09161   0.74999   0.28132   0.00000  Uiso   1.00
O397   O     0.24172   0.75000   0.21868   0.00000  Uiso   1.00
O398   O     0.09161   0.75000   0.19989   0.00000  Uiso   1.00
O399   O     0.24172   0.75000   0.30012   0.00000  Uiso   1.00
O400   O     0.20785   0.63339   0.15112   0.00000  Uiso   1.00
C401   C     0.50418   0.66528   0.24982   0.00000  Uiso   1.00
C402   C     0.53180   0.77823   0.45134   0.00000  Uiso   1.00
C403   C     0.50281   0.74658   0.02760   0.00000  Uiso   1.00
C404   C     0.49710   0.75036   0.47233   0.00000  Uiso   1.00
C405   C     0.40144   0.74851   0.23803   0.00000  Uiso   1.00
C406   C     0.59846   0.75091   0.26221   0.00000  Uiso   1.00
C407   C     0.34625   0.74040   0.23377   0.00000  Uiso   1.00
C408   C     0.65371   0.75757   0.26792   0.00000  Uiso   1.00
C409   C     0.52391   0.55092   0.29515   0.00000  Uiso   1.00
C410   C     0.46012   0.95079   0.24210   0.00000  Uiso   1.00
C411   C     0.52919   0.59686   0.29299   0.00000  Uiso   1.00
C412   C     0.50114   0.83485   0.25066   0.00000  Uiso   1.00
C413   C     0.45863   0.90479   0.23788   0.00000  Uiso   1.00
C414   C     0.51191   0.61708   0.24937   0.00000  Uiso   1.00
C415   C     0.50353   0.88337   0.25217   0.00000  Uiso   1.00
C416   C     0.50189   0.59022   0.20605   0.00000  Uiso   1.00
C417   C     0.55057   0.90843   0.26783   0.00000  Uiso   1.00
C418   C     0.49781   0.54368   0.20884   0.00000  Uiso   1.00
C419   C     0.55184   0.95509   0.27034   0.00000  Uiso   1.00
C420   C     0.50720   0.52441   0.25391   0.00000  Uiso   1.00
C421   C     0.50622   0.97595   0.25737   0.00000  Uiso   1.00
C422   C     0.65512   0.70480   0.19707   0.00000  Uiso   1.00
C423   C     0.54442   0.76700   0.06056   0.00000  Uiso   1.00
C424   C     0.34466   0.78941   0.30883   0.00000  Uiso   1.00
C425   C     0.56023   0.62265   0.33532   0.00000  Uiso   1.00
C426   C     0.40970   0.87922   0.21575   0.00000  Uiso   1.00
C427   C     0.50385   0.60932   0.15803   0.00000  Uiso   1.00
C428   C     0.59925   0.88642   0.27447   0.00000  Uiso   1.00
C429   C     0.48799   0.51480   0.16458   0.00000  Uiso   1.00
C430   C     0.60134   0.98225   0.28140   0.00000  Uiso   1.00
C431   C     0.59836   0.77363   0.04786   0.00000  Uiso   1.00
C432   C     0.40226   0.72104   0.45097   0.00000  Uiso   1.00
C433   C     0.57103   0.80898   0.13774   0.00000  Uiso   1.00
C434   C     0.45632   0.72916   0.43891   0.00000  Uiso   1.00
C435   C     0.42963   0.68929   0.36010   0.00000  Uiso   1.00
C436   C     0.41875   0.69985   0.11379   0.00000  Uiso   1.00
C437   C     0.57641   0.80517   0.38675   0.00000  Uiso   1.00
C438   C     0.53871   0.77296   0.10995   0.00000  Uiso   1.00
C439   C     0.46241   0.72464   0.38944   0.00000  Uiso   1.00
C440   C     0.46428   0.72364   0.09869   0.00000  Uiso   1.00
C441   C     0.53392   0.77733   0.40177   0.00000  Uiso   1.00
C442   C     0.46686   0.72074   0.04923   0.00000  Uiso   1.00
Cu443  Cu    0.50000   0.74999   0.29822   0.00000  Uiso   1.00
Cu444  Cu    0.50000   0.75000   0.20179   0.00000  Uiso   1.00
H445   H     0.53498   0.53538   0.32891   0.00000  Uiso   1.00
H446   H     0.37599   0.81181   0.29862   0.00000  Uiso   1.00
H447   H     0.58811   0.64723   0.32246   0.00000  Uiso   1.00
H448   H     0.53554   0.63986   0.35720   0.00000  Uiso   1.00
H449   H     0.58281   0.60057   0.35944   0.00000  Uiso   1.00
H450   H     0.39913   0.85308   0.23995   0.00000  Uiso   1.00
H451   H     0.37741   0.90079   0.20903   0.00000  Uiso   1.00
H452   H     0.41537   0.86346   0.18095   0.00000  Uiso   1.00
H453   H     0.47118   0.61229   0.08911   0.00000  Uiso   1.00
H454   H     0.64493   0.84738   0.24375   0.00000  Uiso   1.00
H455   H     0.43702   0.98961   0.10882   0.00000  Uiso   1.00
H456   H     0.42571   0.96749   0.23117   0.00000  Uiso   1.00
H457   H     0.65977   0.50553   0.33157   0.00000  Uiso   1.00
H458   H     0.60328   0.75383   0.01529   0.00000  Uiso   1.00
H459   H     0.60919   0.80933   0.04402   0.00000  Uiso   1.00
H460   H     0.62603   0.76112   0.07674   0.00000  Uiso   1.00
H461   H     0.39313   0.68529   0.45613   0.00000  Uiso   1.00
H462   H     0.39585   0.74175   0.48241   0.00000  Uiso   1.00
H463   H     0.37402   0.73168   0.42139   0.00000  Uiso   1.00
H464   H     0.57960   0.87468   0.15404   0.00000  Uiso   1.00
H465   H     0.41931   0.62457   0.33984   0.00000  Uiso   1.00
H466   H     0.34261   0.68359   0.09793   0.00000  Uiso   1.00
H467   H     0.44117   0.69611   0.02850   0.00000  Uiso   1.00
H468   H     0.65206   0.82410   0.40121   0.00000  Uiso   1.00
H469   H     0.55663   0.80301   0.47292   0.00000  Uiso   1.00
H470   H     0.35012   0.68157   0.18913   0.00000  Uiso   1.00
H471   H     0.62470   0.68376   0.21113   0.00000  Uiso   1.00
H472   H     0.63912   0.71998   0.16338   0.00000  Uiso   1.00
H473   H     0.64941   0.81124   0.31942   0.00000  Uiso   1.00
H474   H     0.35912   0.77124   0.34083   0.00000  Uiso   1.00
N475   N     0.50000   0.75001   0.12935   0.00000  Uiso   1.00
N476   N     0.50000   0.74999   0.37066   0.00000  Uiso   1.00
O477   O     0.50000   0.68572   0.29072   0.00000  Uiso   1.00
O478   O     0.46464   0.59796   0.12012   0.00000  Uiso   1.00
O479   O     0.63203   0.89644   0.30887   0.00000  Uiso   1.00
O480   O     0.60823   0.85541   0.23978   0.00000  Uiso   1.00
O481   O     0.52228   0.99388   0.15245   0.00000  Uiso   1.00
O482   O     0.43915   0.51064   0.13781   0.00000  Uiso   1.00
O483   O     0.61920   0.50214   0.24944   0.00000  Uiso   1.00
O484   O     0.62671   0.98579   0.32849   0.00000  Uiso   1.00
O485   O     0.61509   0.80348   0.15482   0.00000  Uiso   1.00
O486   O     0.55261   0.85102   0.13910   0.00000  Uiso   1.00
O487   O     0.38693   0.69624   0.34061   0.00000  Uiso   1.00
O488   O     0.50000   0.81427   0.20929   0.00000  Uiso   1.00
O489   O     0.44524   0.64630   0.35984   0.00000  Uiso   1.00
O490   O     0.42289   0.67424   0.14642   0.00000  Uiso   1.00
O491   O     0.37069   0.70394   0.08713   0.00000  Uiso   1.00
O492   O     0.56797   0.83651   0.36139   0.00000  Uiso   1.00
O493   O     0.62640   0.79937   0.40806   0.00000  Uiso   1.00
O494   O     0.50000   0.68573   0.20928   0.00000  Uiso   1.00
O495   O     0.50000   0.81427   0.29072   0.00000  Uiso   1.00
O496   O     0.42495   0.74999   0.28132   0.00000  Uiso   1.00
O497   O     0.57505   0.75000   0.21868   0.00000  Uiso   1.00
O498   O     0.42495   0.75000   0.19989   0.00000  Uiso   1.00
O499   O     0.57505   0.75000   0.30012   0.00000  Uiso   1.00
O500   O     0.54119   0.63339   0.15112   0.00000  Uiso   1.00
C501   C     0.83751   0.66528   0.24982   0.00000  Uiso   1.00
C502   C     0.86513   0.77823   0.45134   0.00000  Uiso   1.00
C503   C     0.83614   0.74658   0.02760   0.00000  Uiso   1.00
C504   C     0.83043   0.75036   0.47233   0.00000  Uiso   1.00
C505   C     0.73478   0.74851   0.23803   0.00000  Uiso   1.00
C506   C     0.93180   0.75091   0.26221   0.00000  Uiso   1.00
C507   C     0.67958   0.74040   0.23377   0.00000  Uiso   1.00
C508   C     0.98704   0.75757   0.26792   0.00000  Uiso   1.00
C509   C     0.85724   0.55092   0.29515   0.00000  Uiso   1.00
C510   C     0.79346   0.95079   0.24210   0.00000  Uiso   1.00
C511   C     0.86252   0.59686   0.29299   0.00000  Uiso   1.00
C512   C     0.83447   0.83485   0.25066   0.00000  Uiso   1.00
C513   C     0.79196   0.90479   0.23788   0.00000  Uiso   1.00
C514   C     0.84524   0.61708   0.24937   0.00000  Uiso   1.00
C515   C     0.83686   0.88337   0.25217   0.00000  Uiso   1.00
C516   C     0.83523   0.59022   0.20605   0.00000  Uiso   1.00
C517   C     0.88390   0.90843   0.26783   0.00000  Uiso   1.00
C518   C     0.83114   0.54368   0.20884   0.00000  Uiso   1.00
C519   C     0.88517   0.95509   0.27034   0.00000  Uiso   1.00
C520   C     0.84054   0.52441   0.25391   0.00000  Uiso   1.00
C521   C     0.83955   0.97595   0.25737   0.00000  Uiso   1.00
C522   C     0.98846   0.70480   0.19707   0.00000  Uiso   1.00
C523   C     0.87775   0.76700   0.06056   0.00000  Uiso   1.00
C524   C     0.67800   0.78941   0.30883   0.00000  Uiso   1.00
C525   C     0.89356   0.62265   0.33532   0.00000  Uiso   1.00
C526   C     0.74303   0.87922   0.21575   0.00000  Uiso   1.00
C527   C     0.83718   0.60932   0.15803   0.00000  Uiso   1.00
C528   C     0.93258   0.88642   0.27447   0.00000  Uiso   1.00
C529   C     0.82132   0.51480   0.16458   0.00000  Uiso   1.00
C530   C     0.93468   0.98225   0.28140   0.00000  Uiso   1.00
C531   C     0.93170   0.77363   0.04786   0.00000  Uiso   1.00
C532   C     0.73559   0.72104   0.45097   0.00000  Uiso   1.00
C533   C     0.90436   0.80898   0.13774   0.00000  Uiso   1.00
C534   C     0.78966   0.72916   0.43891   0.00000  Uiso   1.00
C535   C     0.76296   0.68929   0.36010   0.00000  Uiso   1.00
C536   C     0.75208   0.69985   0.11379   0.00000  Uiso   1.00
C537   C     0.90974   0.80517   0.38675   0.00000  Uiso   1.00
C538   C     0.87204   0.77296   0.10995   0.00000  Uiso   1.00
C539   C     0.79574   0.72464   0.38944   0.00000  Uiso   1.00
C540   C     0.79761   0.72364   0.09869   0.00000  Uiso   1.00
C541   C     0.86725   0.77733   0.40177   0.00000  Uiso   1.00
C542   C     0.80020   0.72074   0.04923   0.00000  Uiso   1.00
Cu543  Cu    0.83333   0.74999   0.29822   0.00000  Uiso   1.00
Cu544  Cu    0.83333   0.75000   0.20179   0.00000  Uiso   1.00
H545   H     0.86831   0.53538   0.32891   0.00000  Uiso   1.00
H546   H     0.70933   0.81181   0.29862   0.00000  Uiso   1.00
H547   H     0.92145   0.64723   0.32246   0.00000  Uiso   1.00
H548   H     0.86887   0.63986   0.35720   0.00000  Uiso   1.00
H549   H     0.91614   0.60057   0.35944   0.00000  Uiso   1.00
H550   H     0.73247   0.85308   0.23995   0.00000  Uiso   1.00
H551   H     0.71074   0.90079   0.20903   0.00000  Uiso   1.00
H552   H     0.74870   0.86346   0.18095   0.00000  Uiso   1.00
H553   H     0.80451   0.61229   0.08911   0.00000  Uiso   1.00
H554   H     0.97826   0.84738   0.24375   0.00000  Uiso   1.00
H555   H     0.77035   0.98961   0.10882   0.00000  Uiso   1.00
H556   H     0.75904   0.96749   0.23117   0.00000  Uiso   1.00
H557   H     0.99310   0.50553   0.33157   0.00000  Uiso   1.00
H558   H     0.93661   0.75383   0.01529   0.00000  Uiso   1.00
H559   H     0.94252   0.80933   0.04402   0.00000  Uiso   1.00
H560   H     0.95937   0.76112   0.07674   0.00000  Uiso   1.00
H561   H     0.72646   0.68529   0.45613   0.00000  Uiso   1.00
H562   H     0.72919   0.74175   0.48241   0.00000  Uiso   1.00
H563   H     0.70736   0.73168   0.42139   0.00000  Uiso   1.00
H564   H     0.91293   0.87468   0.15404   0.00000  Uiso   1.00
H565   H     0.75264   0.62457   0.33984   0.00000  Uiso   1.00
H566   H     0.67595   0.68359   0.09793   0.00000  Uiso   1.00
H567   H     0.77450   0.69611   0.02850   0.00000  Uiso   1.00
H568   H     0.98539   0.82410   0.40121   0.00000  Uiso   1.00
H569   H     0.88996   0.80301   0.47292   0.00000  Uiso   1.00
H570   H     0.68345   0.68157   0.18913   0.00000  Uiso   1.00
H571   H     0.95804   0.68376   0.21113   0.00000  Uiso   1.00
H572   H     0.97245   0.71998   0.16338   0.00000  Uiso   1.00
H573   H     0.98275   0.81124   0.31942   0.00000  Uiso   1.00
H574   H     0.69245   0.77124   0.34083   0.00000  Uiso   1.00
N575   N     0.83333   0.75001   0.12935   0.00000  Uiso   1.00
N576   N     0.83333   0.74999   0.37066   0.00000  Uiso   1.00
O577   O     0.83334   0.68572   0.29072   0.00000  Uiso   1.00
O578   O     0.79797   0.59796   0.12012   0.00000  Uiso   1.00
O579   O     0.96536   0.89644   0.30887   0.00000  Uiso   1.00
O580   O     0.94157   0.85541   0.23978   0.00000  Uiso   1.00
O581   O     0.85562   0.99388   0.15245   0.00000  Uiso   1.00
O582   O     0.77249   0.51064   0.13781   0.00000  Uiso   1.00
O583   O     0.95253   0.50214   0.24944   0.00000  Uiso   1.00
O584   O     0.96004   0.98579   0.32849   0.00000  Uiso   1.00
O585   O     0.94842   0.80348   0.15482   0.00000  Uiso   1.00
O586   O     0.88595   0.85102   0.13910   0.00000  Uiso   1.00
O587   O     0.72026   0.69624   0.34061   0.00000  Uiso   1.00
O588   O     0.83333   0.81427   0.20929   0.00000  Uiso   1.00
O589   O     0.77857   0.64630   0.35984   0.00000  Uiso   1.00
O590   O     0.75622   0.67424   0.14642   0.00000  Uiso   1.00
O591   O     0.70402   0.70394   0.08713   0.00000  Uiso   1.00
O592   O     0.90130   0.83651   0.36139   0.00000  Uiso   1.00
O593   O     0.95973   0.79937   0.40806   0.00000  Uiso   1.00
O594   O     0.83334   0.68573   0.20928   0.00000  Uiso   1.00
O595   O     0.83333   0.81427   0.29072   0.00000  Uiso   1.00
O596   O     0.75828   0.74999   0.28132   0.00000  Uiso   1.00
O597   O     0.90839   0.75000   0.21868   0.00000  Uiso   1.00
O598   O     0.75828   0.75000   0.19989   0.00000  Uiso   1.00
O599   O     0.90839   0.75000   0.30012   0.00000  Uiso   1.00
O600   O     0.87452   0.63339   0.15112   0.00000  Uiso   1.00
C601   C     0.17084   0.16528   0.74982   0.00000  Uiso   1.00
C602   C     0.19847   0.27823   0.95134   0.00000  Uiso   1.00
C603   C     0.16948   0.24658   0.52760   0.00000  Uiso   1.00
C604   C     0.16377   0.25036   0.97233   0.00000  Uiso   1.00
C605   C     0.06811   0.24851   0.73803   0.00000  Uiso   1.00
C606   C     0.26513   0.25091   0.76221   0.00000  Uiso   1.00
C607   C     0.01292   0.24040   0.73377   0.00000  Uiso   1.00
C608   C     0.32038   0.25757   0.76792   0.00000  Uiso   1.00
C609   C     0.19057   0.05092   0.79515   0.00000  Uiso   1.00
C610   C     0.12679   0.45079   0.74210   0.00000  Uiso   1.00
C611   C     0.19586   0.09686   0.79299   0.00000  Uiso   1.00
C612   C     0.16781   0.33485   0.75066   0.00000  Uiso   1.00
C613   C     0.12529   0.40479   0.73788   0.00000  Uiso   1.00
C614   C     0.17857   0.11708   0.74937   0.00000  Uiso   1.00
C615   C     0.17019   0.38337   0.75217   0.00000  Uiso   1.00
C616   C     0.16856   0.09022   0.70605   0.00000  Uiso   1.00
C617   C     0.21724   0.40843   0.76783   0.00000  Uiso   1.00
C618   C     0.16448   0.04368   0.70884   0.00000  Uiso   1.00
C619   C     0.21851   0.45509   0.77034   0.00000  Uiso   1.00
C620   C     0.17387   0.02441   0.75391   0.00000  Uiso   1.00
C621   C     0.17289   0.47595   0.75737   0.00000  Uiso   1.00
C622   C     0.32179   0.20480   0.69707   0.00000  Uiso   1.00
C623   C     0.21109   0.26700   0.56056   0.00000  Uiso   1.00
C624   C     0.01133   0.28941   0.80883   0.00000  Uiso   1.00
C625   C     0.22690   0.12265   0.83532   0.00000  Uiso   1.00
C626   C     0.07637   0.37922   0.71575   0.00000  Uiso   1.00
C627   C     0.17052   0.10932   0.65803   0.00000  Uiso   1.00
C628   C     0.26591   0.38642   0.77447   0.00000  Uiso   1.00
C629   C     0.15466   0.01480   0.66458   0.00000  Uiso   1.00
C630   C     0.26801   0.48225   0.78140   0.00000  Uiso   1.00
C631   C     0.26503   0.27363   0.54786   0.00000  Uiso   1.00
C632   C     0.06892   0.22104   0.95097   0.00000  Uiso   1.00
C633   C     0.23769   0.30898   0.63774   0.00000  Uiso   1.00
C634   C     0.12299   0.22916   0.93891   0.00000  Uiso   1.00
C635   C     0.09630   0.18929   0.86010   0.00000  Uiso   1.00
C636   C     0.08541   0.19985   0.61379   0.00000  Uiso   1.00
C637   C     0.24308   0.30517   0.88675   0.00000  Uiso   1.00
C638   C     0.20538   0.27296   0.60995   0.00000  Uiso   1.00
C639   C     0.12907   0.22464   0.88944   0.00000  Uiso   1.00
C640   C     0.13095   0.22364   0.59869   0.00000  Uiso   1.00
C641   C     0.20059   0.27733   0.90177   0.00000  Uiso   1.00
C642   C     0.13353   0.22074   0.54923   0.00000  Uiso   1.00
Cu643  Cu    0.16667   0.24999   0.79822   0.00000  Uiso   1.00
Cu644  Cu    0.16667   0.25000   0.70179   0.00000  Uiso   1.00
H645   H     0.20164   0.03538   0.82891   0.00000  Uiso   1.00
H646   H     0.04266   0.31181   0.79862   0.00000  Uiso   1.00
H647   H     0.25478   0.14723   0.82246   0.00000  Uiso   1.00
H648   H     0.20220   0.13986   0.85720   0.00000  Uiso   1.00
H649   H     0.24947   0.10057   0.85944   0.00000  Uiso   1.00
H650   H     0.06580   0.35308   0.73995   0.00000  Uiso   1.00
H651   H     0.04407   0.40079   0.70903   0.00000  Uiso   1.00
H652   H     0.08203   0.36346   0.68095   0.00000  Uiso   1.00
H653   H     0.13785   0.11229   0.58911   0.00000  Uiso   1.00
H654   H     0.31159   0.34738   0.74375   0.00000  Uiso   1.00
H655   H     0.10369   0.48961   0.60882   0.00000  Uiso   1.00
H656   H     0.09237   0.46749   0.73117   0.00000  Uiso   1.00
H657   H     0.32644   0.00553   0.83157   0.00000  Uiso   1.00
H658   H     0.26995   0.25383   0.51529   0.00000  Uiso   1.00
H659   H     0.27586   0.30933   0.54402   0.00000  Uiso   1.00
H660   H     0.29270   0.26112   0.57674   0.00000  Uiso   1.00
H661   H     0.05980   0.18529   0.95613   0.00000  Uiso   1.00
H662   H     0.06252   0.24175   0.98241   0.00000  Uiso   1.00
H663   H     0.04069   0.23168   0.92139   0.00000  Uiso   1.00
H664   H     0.24627   0.37468   0.65404   0.00000  Uiso   1.00
H665   H     0.08597   0.12457   0.83984   0.00000  Uiso   1.00
H666   H     0.00928   0.18359   0.59793   0.00000  Uiso   1.00
H667   H     0.10784   0.19611   0.52850   0.00000  Uiso   1.00
H668   H     0.31872   0.32410   0.90121   0.00000  Uiso   1.00
H669   H     0.22329   0.30301   0.97292   0.00000  Uiso   1.00
H670   H     0.01679   0.18157   0.68913   0.00000  Uiso   1.00
H671   H     0.29137   0.18376   0.71113   0.00000  Uiso   1.00
H672   H     0.30579   0.21998   0.66338   0.00000  Uiso   1.00
H673   H     0.31608   0.31124   0.81942   0.00000  Uiso   1.00
H674   H     0.02579   0.27124   0.84083   0.00000  Uiso   1.00
N675   N     0.16667   0.25001   0.62935   0.00000  Uiso   1.00
N676   N     0.16667   0.24999   0.87066   0.00000  Uiso   1.00
O677   O     0.16667   0.18572   0.79072   0.00000  Uiso   1.00
O678   O     0.13130   0.09796   0.62012   0.00000  Uiso   1.00
O679   O     0.29869   0.39644   0.80887   0.00000  Uiso   1.00
O680   O     0.27490   0.35541   0.73978   0.00000  Uiso   1.00
O681   O     0.18895   0.49388   0.65245   0.00000  Uiso   1.00
O682   O     0.10582   0.01064   0.63781   0.00000  Uiso   1.00
O683   O     0.28586   0.00214   0.74944   0.00000  Uiso   1.00
O684   O     0.29338   0.48579   0.82849   0.00000  Uiso   1.00
O685   O     0.28175   0.30348   0.65482   0.00000  Uiso   1.00
O686   O     0.21928   0.35102   0.63910   0.00000  Uiso   1.00
O687   O     0.05359   0.19624   0.84061   0.00000  Uiso   1.00
O688   O     0.16666   0.31427   0.70929   0.00000  Uiso   1.00
O689   O     0.11190   0.14630   0.85984   0.00000  Uiso   1.00
O690   O     0.08955   0.17424   0.64642   0.00000  Uiso   1.00
O691   O     0.03735   0.20394   0.58713   0.00000  Uiso   1.00
O692   O     0.23464   0.33651   0.86139   0.00000  Uiso   1.00
O693   O     0.29307   0.29937   0.90806   0.00000  Uiso   1.00
O694   O     0.16667   0.18573   0.70928   0.00000  Uiso   1.00
O695   O     0.16666   0.31427   0.79072   0.00000  Uiso   1.00
O696   O     0.09161   0.24999   0.78132   0.00000  Uiso   1.00
O697   O     0.24172   0.25000   0.71868   0.00000  Uiso   1.00
O698   O     0.09161   0.25000   0.69989   0.00000  Uiso   1.00
O699   O     0.24172   0.25000   0.80012   0.00000  Uiso   1.00
O700   O     0.20785   0.13339   0.65112   0.00000  Uiso   1.00
C701   C     0.50418   0.16528   0.74982   0.00000  Uiso   1.00
C702   C     0.53180   0.27823   0.95134   0.00000  Uiso   1.00
C703   C     0.50281   0.24658   0.52760   0.00000  Uiso   1.00
C704   C     0.49710   0.25036   0.97233   0.00000  Uiso   1.00
C705   C     0.40144   0.24851   0.73803   0.00000  Uiso   1.00
C706   C     0.59846   0.25091   0.76221   0.00000  Uiso   1.00
C707   C     0.34625   0.24040   0.73377   0.00000  Uiso   1.00
C708   C     0.65371   0.25757   0.76792   0.00000  Uiso   1.00
C709   C     0.52391   0.05092   0.79515   0.00000  Uiso   1.00
C710   C     0.46012   0.45079   0.74210   0.00000  Uiso   1.00
C711   C     0.52919   0.09686   0.79299   0.00000  Uiso   1.00
C712   C     0.50114   0.33485   0.75066   0.00000  Uiso   1.00
C713   C     0.45863   0.40479   0.73788   0.00000  Uiso   1.00
C714   C     0.51191   0.11708   0.74937   0.00000  Uiso   1.00
C715   C     0.50353   0.38337   0.75217   0.00000  Uiso   1.00
C716   C     0.50189   0.09022   0.70605   0.00000  Uiso   1.00
C717   C     0.55057   0.40843   0.76783   0.00000  Uiso   1.00
C718   C     0.49781   0.04368   0.70884   0.00000  Uiso   1.00
C719   C     0.55184   0.45509   0.77034   0.00000  Uiso   1.00
C720   C     0.50720   0.02441   0.75391   0.00000  Uiso   1.00
C721   C     0.50622   0.47595   0.75737   0.00000  Uiso   1.00
C722   C     0.65512   0.20480   0.69707   0.00000  Uiso   1.00
C723   C     0.54442   0.26700   0.56056   0.00000  Uiso   1.00
C724   C     0.34466   0.28941   0.80883   0.00000  Uiso   1.00
C725   C     0.56023   0.12265   0.83532   0.00000  Uiso   1.00
C726   C     0.40970   0.37922   0.71575   0.00000  Uiso   1.00
C727   C     0.50385   0.10932   0.65803   0.00000  Uiso   1.00
C728   C     0.59925   0.38642   0.77447   0.00000  Uiso   1.00
C729   C     0.48799   0.01480   0.66458   0.00000  Uiso   1.00
C730   C     0.60134   0.48225   0.78140   0.00000  Uiso   1.00
C731   C     0.59836   0.27363   0.54786   0.00000  Uiso   1.00
C732   C     0.40226   0.22104   0.95097   0.00000  Uiso   1.00
C733   C     0.57103   0.30898   0.63774   0.00000  Uiso   1.00
C734   C     0.45632   0.22916   0.93891   0.00000  Uiso   1.00
C735   C     0.42963   0.18929   0.86010   0.00000  Uiso   1.00
C736   C     0.41875   0.19985   0.61379   0.00000  Uiso   1.00
C737   C     0.57641   0.30517   0.88675   0.00000  Uiso   1.00
C738   C     0.53871   0.27296   0.60995   0.00000  Uiso   1.00
C739   C     0.46241   0.22464   0.88944   0.00000  Uiso   1.00
C740   C     0.46428   0.22364   0.59869   0.00000  Uiso   1.00
C741   C     0.53392   0.27733   0.90177   0.00000  Uiso   1.00
C742   C     0.46686   0.22074   0.54923   0.00000  Uiso   1.00
Cu743  Cu    0.50000   0.24999   0.79822   0.00000  Uiso   1.00
Cu744  Cu    0.50000   0.25000   0.70179   0.00000  Uiso   1.00
H745   H     0.53498   0.03538   0.82891   0.00000  Uiso   1.00
H746   H     0.37599   0.31181   0.79862   0.00000  Uiso   1.00
H747   H     0.58811   0.14723   0.82246   0.00000  Uiso   1.00
H748   H     0.53554   0.13986   0.85720   0.00000  Uiso   1.00
H749   H     0.58281   0.10057   0.85944   0.00000  Uiso   1.00
H750   H     0.39913   0.35308   0.73995   0.00000  Uiso   1.00
H751   H     0.37741   0.40079   0.70903   0.00000  Uiso   1.00
H752   H     0.41537   0.36346   0.68095   0.00000  Uiso   1.00
H753   H     0.47118   0.11229   0.58911   0.00000  Uiso   1.00
H754   H     0.64493   0.34738   0.74375   0.00000  Uiso   1.00
H755   H     0.43702   0.48961   0.60882   0.00000  Uiso   1.00
H756   H     0.42571   0.46749   0.73117   0.00000  Uiso   1.00
H757   H     0.65977   0.00553   0.83157   0.00000  Uiso   1.00
H758   H     0.60328   0.25383   0.51529   0.00000  Uiso   1.00
H759   H     0.60919   0.30933   0.54402   0.00000  Uiso   1.00
H760   H     0.62603   0.26112   0.57674   0.00000  Uiso   1.00
H761   H     0.39313   0.18529   0.95613   0.00000  Uiso   1.00
H762   H     0.39585   0.24175   0.98241   0.00000  Uiso   1.00
H763   H     0.37402   0.23168   0.92139   0.00000  Uiso   1.00
H764   H     0.57960   0.37468   0.65404   0.00000  Uiso   1.00
H765   H     0.41931   0.12457   0.83984   0.00000  Uiso   1.00
H766   H     0.34261   0.18359   0.59793   0.00000  Uiso   1.00
H767   H     0.44117   0.19611   0.52850   0.00000  Uiso   1.00
H768   H     0.65206   0.32410   0.90121   0.00000  Uiso   1.00
H769   H     0.55663   0.30301   0.97292   0.00000  Uiso   1.00
H770   H     0.35012   0.18157   0.68913   0.00000  Uiso   1.00
H771   H     0.62470   0.18376   0.71113   0.00000  Uiso   1.00
H772   H     0.63912   0.21998   0.66338   0.00000  Uiso   1.00
H773   H     0.64941   0.31124   0.81942   0.00000  Uiso   1.00
H774   H     0.35912   0.27124   0.84083   0.00000  Uiso   1.00
N775   N     0.50000   0.25001   0.62935   0.00000  Uiso   1.00
N776   N     0.50000   0.24999   0.87066   0.00000  Uiso   1.00
O777   O     0.50000   0.18572   0.79072   0.00000  Uiso   1.00
O778   O     0.46464   0.09796   0.62012   0.00000  Uiso   1.00
O779   O     0.63203   0.39644   0.80887   0.00000  Uiso   1.00
O780   O     0.60823   0.35541   0.73978   0.00000  Uiso   1.00
O781   O     0.52228   0.49388   0.65245   0.00000  Uiso   1.00
O782   O     0.43915   0.01064   0.63781   0.00000  Uiso   1.00
O783   O     0.61920   0.00214   0.74944   0.00000  Uiso   1.00
O784   O     0.62671   0.48579   0.82849   0.00000  Uiso   1.00
O785   O     0.61509   0.30348   0.65482   0.00000  Uiso   1.00
O786   O     0.55261   0.35102   0.63910   0.00000  Uiso   1.00
O787   O     0.38693   0.19624   0.84061   0.00000  Uiso   1.00
O788   O     0.50000   0.31427   0.70929   0.00000  Uiso   1.00
O789   O     0.44524   0.14630   0.85984   0.00000  Uiso   1.00
O790   O     0.42289   0.17424   0.64642   0.00000  Uiso   1.00
O791   O     0.37069   0.20394   0.58713   0.00000  Uiso   1.00
O792   O     0.56797   0.33651   0.86139   0.00000  Uiso   1.00
O793   O     0.62640   0.29937   0.90806   0.00000  Uiso   1.00
O794   O     0.50000   0.18573   0.70928   0.00000  Uiso   1.00
O795   O     0.50000   0.31427   0.79072   0.00000  Uiso   1.00
O796   O     0.42495   0.24999   0.78132   0.00000  Uiso   1.00
O797   O     0.57505   0.25000   0.71868   0.00000  Uiso   1.00
O798   O     0.42495   0.25000   0.69989   0.00000  Uiso   1.00
O799   O     0.57505   0.25000   0.80012   0.00000  Uiso   1.00
O800   O     0.54119   0.13339   0.65112   0.00000  Uiso   1.00
C801   C     0.83751   0.16528   0.74982   0.00000  Uiso   1.00
C802   C     0.86513   0.27823   0.95134   0.00000  Uiso   1.00
C803   C     0.83614   0.24658   0.52760   0.00000  Uiso   1.00
C804   C     0.83043   0.25036   0.97233   0.00000  Uiso   1.00
C805   C     0.73478   0.24851   0.73803   0.00000  Uiso   1.00
C806   C     0.93180   0.25091   0.76221   0.00000  Uiso   1.00
C807   C     0.67958   0.24040   0.73377   0.00000  Uiso   1.00
C808   C     0.98704   0.25757   0.76792   0.00000  Uiso   1.00
C809   C     0.85724   0.05092   0.79515   0.00000  Uiso   1.00
C810   C     0.79346   0.45079   0.74210   0.00000  Uiso   1.00
C811   C     0.86252   0.09686   0.79299   0.00000  Uiso   1.00
C812   C     0.83447   0.33485   0.75066   0.00000  Uiso   1.00
C813   C     0.79196   0.40479   0.73788   0.00000  Uiso   1.00
C814   C     0.84524   0.11708   0.74937   0.00000  Uiso   1.00
C815   C     0.83686   0.38337   0.75217   0.00000  Uiso   1.00
C816   C     0.83523   0.09022   0.70605   0.00000  Uiso   1.00
C817   C     0.88390   0.40843   0.76783   0.00000  Uiso   1.00
C818   C     0.83114   0.04368   0.70884   0.00000  Uiso   1.00
C819   C     0.88517   0.45509   0.77034   0.00000  Uiso   1.00
C820   C     0.84054   0.02441   0.75391   0.00000  Uiso   1.00
C821   C     0.83955   0.47595   0.75737   0.00000  Uiso   1.00
C822   C     0.98846   0.20480   0.69707   0.00000  Uiso   1.00
C823   C     0.87775   0.26700   0.56056   0.00000  Uiso   1.00
C824   C     0.67800   0.28941   0.80883   0.00000  Uiso   1.00
C825   C     0.89356   0.12265   0.83532   0.00000  Uiso   1.00
C826   C     0.74303   0.37922   0.71575   0.00000  Uiso   1.00
C827   C     0.83718   0.10932   0.65803   0.00000  Uiso   1.00
C828   C     0.93258   0.38642   0.77447   0.00000  Uiso   1.00
C829   C     0.82132   0.01480   0.66458   0.00000  Uiso   1.00
C830   C     0.93468   0.48225   0.78140   0.00000  Uiso   1.00
C831   C     0.93170   0.27363   0.54786   0.00000  Uiso   1.00
C832   C     0.73559   0.22104   0.95097   0.00000  Uiso   1.00
C833   C     0.90436   0.30898   0.63774   0.00000  Uiso   1.00
C834   C     0.78966   0.22916   0.93891   0.00000  Uiso   1.00
C835   C     0.76296   0.18929   0.86010   0.00000  Uiso   1.00
C836   C     0.75208   0.19985   0.61379   0.00000  Uiso   1.00
C837   C     0.90974   0.30517   0.88675   0.00000  Uiso   1.00
C838   C     0.87204   0.27296   0.60995   0.00000  Uiso   1.00
C839   C     0.79574   0.22464   0.88944   0.00000  Uiso   1.00
C840   C     0.79761   0.22364   0.59869   0.00000  Uiso   1.00
C841   C     0.86725   0.27733   0.90177   0.00000  Uiso   1.00
C842   C     0.80020   0.22074   0.54923   0.00000  Uiso   1.00
Cu843  Cu    0.83333   0.24999   0.79822   0.00000  Uiso   1.00
Cu844  Cu    0.83333   0.25000   0.70179   0.00000  Uiso   1.00
H845   H     0.86831   0.03538   0.82891   0.00000  Uiso   1.00
H846   H     0.70933   0.31181   0.79862   0.00000  Uiso   1.00
H847   H     0.92145   0.14723   0.82246   0.00000  Uiso   1.00
H848   H     0.86887   0.13986   0.85720   0.00000  Uiso   1.00
H849   H     0.91614   0.10057   0.85944   0.00000  Uiso   1.00
H850   H     0.73247   0.35308   0.73995   0.00000  Uiso   1.00
H851   H     0.71074   0.40079   0.70903   0.00000  Uiso   1.00
H852   H     0.74870   0.36346   0.68095   0.00000  Uiso   1.00
H853   H     0.80451   0.11229   0.58911   0.00000  Uiso   1.00
H854   H     0.97826   0.34738   0.74375   0.00000  Uiso   1.00
H855   H     0.77035   0.48961   0.60882   0.00000  Uiso   1.00
H856   H     0.75904   0.46749   0.73117   0.00000  Uiso   1.00
H857   H     0.99310   0.00553   0.83157   0.00000  Uiso   1.00
H858   H     0.93661   0.25383   0.51529   0.00000  Uiso   1.00
H859   H     0.94252   0.30933   0.54402   0.00000  Uiso   1.00
H860   H     0.95937   0.26112   0.57674   0.00000  Uiso   1.00
H861   H     0.72646   0.18529   0.95613   0.00000  Uiso   1.00
H862   H     0.72919   0.24175   0.98241   0.00000  Uiso   1.00
H863   H     0.70736   0.23168   0.92139   0.00000  Uiso   1.00
H864   H     0.91293   0.37468   0.65404   0.00000  Uiso   1.00
H865   H     0.75264   0.12457   0.83984   0.00000  Uiso   1.00
H866   H     0.67595   0.18359   0.59793   0.00000  Uiso   1.00
H867   H     0.77450   0.19611   0.52850   0.00000  Uiso   1.00
H868   H     0.98539   0.32410   0.90121   0.00000  Uiso   1.00
H869   H     0.88996   0.30301   0.97292   0.00000  Uiso   1.00
H870   H     0.68345   0.18157   0.68913   0.00000  Uiso   1.00
H871   H     0.95804   0.18376   0.71113   0.00000  Uiso   1.00
H872   H     0.97245   0.21998   0.66338   0.00000  Uiso   1.00
H873   H     0.98275   0.31124   0.81942   0.00000  Uiso   1.00
H874   H     0.69245   0.27124   0.84083   0.00000  Uiso   1.00
N875   N     0.83333   0.25001   0.62935   0.00000  Uiso   1.00
N876   N     0.83333   0.24999   0.87066   0.00000  Uiso   1.00
O877   O     0.83334   0.18572   0.79072   0.00000  Uiso   1.00
O878   O     0.79797   0.09796   0.62012   0.00000  Uiso   1.00
O879   O     0.96536   0.39644   0.80887   0.00000  Uiso   1.00
O880   O     0.94157   0.35541   0.73978   0.00000  Uiso   1.00
O881   O     0.85562   0.49388   0.65245   0.00000  Uiso   1.00
O882   O     0.77249   0.01064   0.63781   0.00000  Uiso   1.00
O883   O     0.95253   0.00214   0.74944   0.00000  Uiso   1.00
O884   O     0.96004   0.48579   0.82849   0.00000  Uiso   1.00
O885   O     0.94842   0.30348   0.65482   0.00000  Uiso   1.00
O886   O     0.88595   0.35102   0.63910   0.00000  Uiso   1.00
O887   O     0.72026   0.19624   0.84061   0.00000  Uiso   1.00
O888   O     0.83333   0.31427   0.70929   0.00000  Uiso   1.00
O889   O     0.77857   0.14630   0.85984   0.00000  Uiso   1.00
O890   O     0.75622   0.17424   0.64642   0.00000  Uiso   1.00
O891   O     0.70402   0.20394   0.58713   0.00000  Uiso   1.00
O892   O     0.90130   0.33651   0.86139   0.00000  Uiso   1.00
O893   O     0.95973   0.29937   0.90806   0.00000  Uiso   1.00
O894   O     0.83334   0.18573   0.70928   0.00000  Uiso   1.00
O895   O     0.83333   0.31427   0.79072   0.00000  Uiso   1.00
O896   O     0.75828   0.24999   0.78132   0.00000  Uiso   1.00
O897   O     0.90839   0.25000   0.71868   0.00000  Uiso   1.00
O898   O     0.75828   0.25000   0.69989   0.00000  Uiso   1.00
O899   O     0.90839   0.25000   0.80012   0.00000  Uiso   1.00
O900   O     0.87452   0.13339   0.65112   0.00000  Uiso   1.00
C901   C     0.17084   0.66528   0.74982   0.00000  Uiso   1.00
C902   C     0.19847   0.77823   0.95134   0.00000  Uiso   1.00
C903   C     0.16948   0.74658   0.52760   0.00000  Uiso   1.00
C904   C     0.16377   0.75036   0.97233   0.00000  Uiso   1.00
C905   C     0.06811   0.74851   0.73803   0.00000  Uiso   1.00
C906   C     0.26513   0.75091   0.76221   0.00000  Uiso   1.00
C907   C     0.01292   0.74040   0.73377   0.00000  Uiso   1.00
C908   C     0.32038   0.75757   0.76792   0.00000  Uiso   1.00
C909   C     0.19057   0.55092   0.79515   0.00000  Uiso   1.00
C910   C     0.12679   0.95079   0.74210   0.00000  Uiso   1.00
C911   C     0.19586   0.59686   0.79299   0.00000  Uiso   1.00
C912   C     0.16781   0.83485   0.75066   0.00000  Uiso   1.00
C913   C     0.12529   0.90479   0.73788   0.00000  Uiso   1.00
C914   C     0.17857   0.61708   0.74937   0.00000  Uiso   1.00
C915   C     0.17019   0.88337   0.75217   0.00000  Uiso   1.00
C916   C     0.16856   0.59022   0.70605   0.00000  Uiso   1.00
C917   C     0.21724   0.90843   0.76783   0.00000  Uiso   1.00
C918   C     0.16448   0.54368   0.70884   0.00000  Uiso   1.00
C919   C     0.21851   0.95509   0.77034   0.00000  Uiso   1.00
C920   C     0.17387   0.52441   0.75391   0.00000  Uiso   1.00
C921   C     0.17289   0.97595   0.75737   0.00000  Uiso   1.00
C922   C     0.32179   0.70480   0.69707   0.00000  Uiso   1.00
C923   C     0.21109   0.76700   0.56056   0.00000  Uiso   1.00
C924   C     0.01133   0.78941   0.80883   0.00000  Uiso   1.00
C925   C     0.22690   0.62265   0.83532   0.00000  Uiso   1.00
C926   C     0.07637   0.87922   0.71575   0.00000  Uiso   1.00
C927   C     0.17052   0.60932   0.65803   0.00000  Uiso   1.00
C928   C     0.26591   0.88642   0.77447   0.00000  Uiso   1.00
C929   C     0.15466   0.51480   0.66458   0.00000  Uiso   1.00
C930   C     0.26801   0.98225   0.78140   0.00000  Uiso   1.00
C931   C     0.26503   0.77363   0.54786   0.00000  Uiso   1.00
C932   C     0.06892   0.72104   0.95097   0.00000  Uiso   1.00
C933   C     0.23769   0.80898   0.63774   0.00000  Uiso   1.00
C934   C     0.12299   0.72916   0.93891   0.00000  Uiso   1.00
C935   C     0.09630   0.68929   0.86010   0.00000  Uiso   1.00
C936   C     0.08541   0.69985   0.61379   0.00000  Uiso   1.00
C937   C     0.24308   0.80517   0.88675   0.00000  Uiso   1.00
C938   C     0.20538   0.77296   0.60995   0.00000  Uiso   1.00
C939   C     0.12907   0.72464   0.88944   0.00000  Uiso   1.00
C940   C     0.13095   0.72364   0.59869   0.00000  Uiso   1.00
C941   C     0.20059   0.77733   0.90177   0.00000  Uiso   1.00
C942   C     0.13353   0.72074   0.54923   0.00000  Uiso   1.00
Cu943  Cu    0.16667   0.74999   0.79822   0.00000  Uiso   1.00
Cu944  Cu    0.16667   0.75000   0.70179   0.00000  Uiso   1.00
H945   H     0.20164   0.53538   0.82891   0.00000  Uiso   1.00
H946   H     0.04266   0.81181   0.79862   0.00000  Uiso   1.00
H947   H     0.25478   0.64723   0.82246   0.00000  Uiso   1.00
H948   H     0.20220   0.63986   0.85720   0.00000  Uiso   1.00
H949   H     0.24947   0.60057   0.85944   0.00000  Uiso   1.00
H950   H     0.06580   0.85308   0.73995   0.00000  Uiso   1.00
H951   H     0.04407   0.90079   0.70903   0.00000  Uiso   1.00
H952   H     0.08203   0.86346   0.68095   0.00000  Uiso   1.00
H953   H     0.13785   0.61229   0.58911   0.00000  Uiso   1.00
H954   H     0.31159   0.84738   0.74375   0.00000  Uiso   1.00
H955   H     0.10369   0.98961   0.60882   0.00000  Uiso   1.00
H956   H     0.09237   0.96749   0.73117   0.00000  Uiso   1.00
H957   H     0.32644   0.50553   0.83157   0.00000  Uiso   1.00
H958   H     0.26995   0.75383   0.51529   0.00000  Uiso   1.00
H959   H     0.27586   0.80933   0.54402   0.00000  Uiso   1.00
H960   H     0.29270   0.76112   0.57674   0.00000  Uiso   1.00
H961   H     0.05980   0.68529   0.95613   0.00000  Uiso   1.00
H962   H     0.06252   0.74175   0.98241   0.00000  Uiso   1.00
H963   H     0.04069   0.73168   0.92139   0.00000  Uiso   1.00
H964   H     0.24627   0.87468   0.65404   0.00000  Uiso   1.00
H965   H     0.08597   0.62457   0.83984   0.00000  Uiso   1.00
H966   H     0.00928   0.68359   0.59793   0.00000  Uiso   1.00
H967   H     0.10784   0.69611   0.52850   0.00000  Uiso   1.00
H968   H     0.31872   0.82410   0.90121   0.00000  Uiso   1.00
H969   H     0.22329   0.80301   0.97292   0.00000  Uiso   1.00
H970   H     0.01679   0.68157   0.68913   0.00000  Uiso   1.00
H971   H     0.29137   0.68376   0.71113   0.00000  Uiso   1.00
H972   H     0.30579   0.71998   0.66338   0.00000  Uiso   1.00
H973   H     0.31608   0.81124   0.81942   0.00000  Uiso   1.00
H974   H     0.02579   0.77124   0.84083   0.00000  Uiso   1.00
N975   N     0.16667   0.75001   0.62935   0.00000  Uiso   1.00
N976   N     0.16667   0.74999   0.87066   0.00000  Uiso   1.00
O977   O     0.16667   0.68572   0.79072   0.00000  Uiso   1.00
O978   O     0.13130   0.59796   0.62012   0.00000  Uiso   1.00
O979   O     0.29869   0.89644   0.80887   0.00000  Uiso   1.00
O980   O     0.27490   0.85541   0.73978   0.00000  Uiso   1.00
O981   O     0.18895   0.99388   0.65245   0.00000  Uiso   1.00
O982   O     0.10582   0.51064   0.63781   0.00000  Uiso   1.00
O983   O     0.28586   0.50214   0.74944   0.00000  Uiso   1.00
O984   O     0.29338   0.98579   0.82849   0.00000  Uiso   1.00
O985   O     0.28175   0.80348   0.65482   0.00000  Uiso   1.00
O986   O     0.21928   0.85102   0.63910   0.00000  Uiso   1.00
O987   O     0.05359   0.69624   0.84061   0.00000  Uiso   1.00
O988   O     0.16666   0.81427   0.70929   0.00000  Uiso   1.00
O989   O     0.11190   0.64630   0.85984   0.00000  Uiso   1.00
O990   O     0.08955   0.67424   0.64642   0.00000  Uiso   1.00
O991   O     0.03735   0.70394   0.58713   0.00000  Uiso   1.00
O992   O     0.23464   0.83651   0.86139   0.00000  Uiso   1.00
O993   O     0.29307   0.79937   0.90806   0.00000  Uiso   1.00
O994   O     0.16667   0.68573   0.70928   0.00000  Uiso   1.00
O995   O     0.16666   0.81427   0.79072   0.00000  Uiso   1.00
O996   O     0.09161   0.74999   0.78132   0.00000  Uiso   1.00
O997   O     0.24172   0.75000   0.71868   0.00000  Uiso   1.00
O998   O     0.09161   0.75000   0.69989   0.00000  Uiso   1.00
O999   O     0.24172   0.75000   0.80012   0.00000  Uiso   1.00
O1000  O     0.20785   0.63339   0.65112   0.00000  Uiso   1.00
C1001  C     0.50418   0.66528   0.74982   0.00000  Uiso   1.00
C1002  C     0.53180   0.77823   0.95134   0.00000  Uiso   1.00
C1003  C     0.50281   0.74658   0.52760   0.00000  Uiso   1.00
C1004  C     0.49710   0.75036   0.97233   0.00000  Uiso   1.00
C1005  C     0.40144   0.74851   0.73803   0.00000  Uiso   1.00
C1006  C     0.59846   0.75091   0.76221   0.00000  Uiso   1.00
C1007  C     0.34625   0.74040   0.73377   0.00000  Uiso   1.00
C1008  C     0.65371   0.75757   0.76792   0.00000  Uiso   1.00
C1009  C     0.52391   0.55092   0.79515   0.00000  Uiso   1.00
C1010  C     0.46012   0.95079   0.74210   0.00000  Uiso   1.00
C1011  C     0.52919   0.59686   0.79299   0.00000  Uiso   1.00
C1012  C     0.50114   0.83485   0.75066   0.00000  Uiso   1.00
C1013  C     0.45863   0.90479   0.73788   0.00000  Uiso   1.00
C1014  C     0.51191   0.61708   0.74937   0.00000  Uiso   1.00
C1015  C     0.50353   0.88337   0.75217   0.00000  Uiso   1.00
C1016  C     0.50189   0.59022   0.70605   0.00000  Uiso   1.00
C1017  C     0.55057   0.90843   0.76783   0.00000  Uiso   1.00
C1018  C     0.49781   0.54368   0.70884   0.00000  Uiso   1.00
C1019  C     0.55184   0.95509   0.77034   0.00000  Uiso   1.00
C1020  C     0.50720   0.52441   0.75391   0.00000  Uiso   1.00
C1021  C     0.50622   0.97595   0.75737   0.00000  Uiso   1.00
C1022  C     0.65512   0.70480   0.69707   0.00000  Uiso   1.00
C1023  C     0.54442   0.76700   0.56056   0.00000  Uiso   1.00
C1024  C     0.34466   0.78941   0.80883   0.00000  Uiso   1.00
C1025  C     0.56023   0.62265   0.83532   0.00000  Uiso   1.00
C1026  C     0.40970   0.87922   0.71575   0.00000  Uiso   1.00
C1027  C     0.50385   0.60932   0.65803   0.00000  Uiso   1.00
C1028  C     0.59925   0.88642   0.77447   0.00000  Uiso   1.00
C1029  C     0.48799   0.51480   0.66458   0.00000  Uiso   1.00
C1030  C     0.60134   0.98225   0.78140   0.00000  Uiso   1.00
C1031  C     0.59836   0.77363   0.54786   0.00000  Uiso   1.00
C1032  C     0.40226   0.72104   0.95097   0.00000  Uiso   1.00
C1033  C     0.57103   0.80898   0.63774   0.00000  Uiso   1.00
C1034  C     0.45632   0.72916   0.93891   0.00000  Uiso   1.00
C1035  C     0.42963   0.68929   0.86010   0.00000  Uiso   1.00
C1036  C     0.41875   0.69985   0.61379   0.00000  Uiso   1.00
C1037  C     0.57641   0.80517   0.88675   0.00000  Uiso   1.00
C1038  C     0.53871   0.77296   0.60995   0.00000  Uiso   1.00
C1039  C     0.46241   0.72464   0.88944   0.00000  Uiso   1.00
C1040  C     0.46428   0.72364   0.59869   0.00000  Uiso   1.00
C1041  C     0.53392   0.77733   0.90177   0.00000  Uiso   1.00
C1042  C     0.46686   0.72074   0.54923   0.00000  Uiso   1.00
Cu1043 Cu    0.50000   0.74999   0.79822   0.00000  Uiso   1.00
Cu1044 Cu    0.50000   0.75000   0.70179   0.00000  Uiso   1.00
H1045  H     0.53498   0.53538   0.82891   0.00000  Uiso   1.00
H1046  H     0.37599   0.81181   0.79862   0.00000  Uiso   1.00
H1047  H     0.58811   0.64723   0.82246   0.00000  Uiso   1.00
H1048  H     0.53554   0.63986   0.85720   0.00000  Uiso   1.00
H1049  H     0.58281   0.60057   0.85944   0.00000  Uiso   1.00
H1050  H     0.39913   0.85308   0.73995   0.00000  Uiso   1.00
H1051  H     0.37741   0.90079   0.70903   0.00000  Uiso   1.00
H1052  H     0.41537   0.86346   0.68095   0.00000  Uiso   1.00
H1053  H     0.47118   0.61229   0.58911   0.00000  Uiso   1.00
H1054  H     0.64493   0.84738   0.74375   0.00000  Uiso   1.00
H1055  H     0.43702   0.98961   0.60882   0.00000  Uiso   1.00
H1056  H     0.42571   0.96749   0.73117   0.00000  Uiso   1.00
H1057  H     0.65977   0.50553   0.83157   0.00000  Uiso   1.00
H1058  H     0.60328   0.75383   0.51529   0.00000  Uiso   1.00
H1059  H     0.60919   0.80933   0.54402   0.00000  Uiso   1.00
H1060  H     0.62603   0.76112   0.57674   0.00000  Uiso   1.00
H1061  H     0.39313   0.68529   0.95613   0.00000  Uiso   1.00
H1062  H     0.39585   0.74175   0.98241   0.00000  Uiso   1.00
H1063  H     0.37402   0.73168   0.92139   0.00000  Uiso   1.00
H1064  H     0.57960   0.87468   0.65404   0.00000  Uiso   1.00
H1065  H     0.41931   0.62457   0.83984   0.00000  Uiso   1.00
H1066  H     0.34261   0.68359   0.59793   0.00000  Uiso   1.00
H1067  H     0.44117   0.69611   0.52850   0.00000  Uiso   1.00
H1068  H     0.65206   0.82410   0.90121   0.00000  Uiso   1.00
H1069  H     0.55663   0.80301   0.97292   0.00000  Uiso   1.00
H1070  H     0.35012   0.68157   0.68913   0.00000  Uiso   1.00
H1071  H     0.62470   0.68376   0.71113   0.00000  Uiso   1.00
H1072  H     0.63912   0.71998   0.66338   0.00000  Uiso   1.00
H1073  H     0.64941   0.81124   0.81942   0.00000  Uiso   1.00
H1074  H     0.35912   0.77124   0.84083   0.00000  Uiso   1.00
N1075  N     0.50000   0.75001   0.62935   0.00000  Uiso   1.00
N1076  N     0.50000   0.74999   0.87066   0.00000  Uiso   1.00
O1077  O     0.50000   0.68572   0.79072   0.00000  Uiso   1.00
O1078  O     0.46464   0.59796   0.62012   0.00000  Uiso   1.00
O1079  O     0.63203   0.89644   0.80887   0.00000  Uiso   1.00
O1080  O     0.60823   0.85541   0.73978   0.00000  Uiso   1.00
O1081  O     0.52228   0.99388   0.65245   0.00000  Uiso   1.00
O1082  O     0.43915   0.51064   0.63781   0.00000  Uiso   1.00
O1083  O     0.61920   0.50214   0.74944   0.00000  Uiso   1.00
O1084  O     0.62671   0.98579   0.82849   0.00000  Uiso   1.00
O1085  O     0.61509   0.80348   0.65482   0.00000  Uiso   1.00
O1086  O     0.55261   0.85102   0.63910   0.00000  Uiso   1.00
O1087  O     0.38693   0.69624   0.84061   0.00000  Uiso   1.00
O1088  O     0.50000   0.81427   0.70929   0.00000  Uiso   1.00
O1089  O     0.44524   0.64630   0.85984   0.00000  Uiso   1.00
O1090  O     0.42289   0.67424   0.64642   0.00000  Uiso   1.00
O1091  O     0.37069   0.70394   0.58713   0.00000  Uiso   1.00
O1092  O     0.56797   0.83651   0.86139   0.00000  Uiso   1.00
O1093  O     0.62640   0.79937   0.90806   0.00000  Uiso   1.00
O1094  O     0.50000   0.68573   0.70928   0.00000  Uiso   1.00
O1095  O     0.50000   0.81427   0.79072   0.00000  Uiso   1.00
O1096  O     0.42495   0.74999   0.78132   0.00000  Uiso   1.00
O1097  O     0.57505   0.75000   0.71868   0.00000  Uiso   1.00
O1098  O     0.42495   0.75000   0.69989   0.00000  Uiso   1.00
O1099  O     0.57505   0.75000   0.80012   0.00000  Uiso   1.00
O1100  O     0.54119   0.63339   0.65112   0.00000  Uiso   1.00
C1101  C     0.83751   0.66528   0.74982   0.00000  Uiso   1.00
C1102  C     0.86513   0.77823   0.95134   0.00000  Uiso   1.00
C1103  C     0.83614   0.74658   0.52760   0.00000  Uiso   1.00
C1104  C     0.83043   0.75036   0.97233   0.00000  Uiso   1.00
C1105  C     0.73478   0.74851   0.73803   0.00000  Uiso   1.00
C1106  C     0.93180   0.75091   0.76221   0.00000  Uiso   1.00
C1107  C     0.67958   0.74040   0.73377   0.00000  Uiso   1.00
C1108  C     0.98704   0.75757   0.76792   0.00000  Uiso   1.00
C1109  C     0.85724   0.55092   0.79515   0.00000  Uiso   1.00
C1110  C     0.79346   0.95079   0.74210   0.00000  Uiso   1.00
C1111  C     0.86252   0.59686   0.79299   0.00000  Uiso   1.00
C1112  C     0.83447   0.83485   0.75066   0.00000  Uiso   1.00
C1113  C     0.79196   0.90479   0.73788   0.00000  Uiso   1.00
C1114  C     0.84524   0.61708   0.74937   0.00000  Uiso   1.00
C1115  C     0.83686   0.88337   0.75217   0.00000  Uiso   1.00
C1116  C     0.83523   0.59022   0.70605   0.00000  Uiso   1.00
C1117  C     0.88390   0.90843   0.76783   0.00000  Uiso   1.00
C1118  C     0.83114   0.54368   0.70884   0.00000  Uiso   1.00
C1119  C     0.88517   0.95509   0.77034   0.00000  Uiso   1.00
C1120  C     0.84054   0.52441   0.75391   0.00000  Uiso   1.00
C1121  C     0.83955   0.97595   0.75737   0.00000  Uiso   1.00
C1122  C     0.98846   0.70480   0.69707   0.00000  Uiso   1.00
C1123  C     0.87775   0.76700   0.56056   0.00000  Uiso   1.00
C1124  C     0.67800   0.78941   0.80883   0.00000  Uiso   1.00
C1125  C     0.89356   0.62265   0.83532   0.00000  Uiso   1.00
C1126  C     0.74303   0.87922   0.71575   0.00000  Uiso   1.00
C1127  C     0.83718   0.60932   0.65803   0.00000  Uiso   1.00
C1128  C     0.93258   0.88642   0.77447   0.00000  Uiso   1.00
C1129  C     0.82132   0.51480   0.66458   0.00000  Uiso   1.00
C1130  C     0.93468   0.98225   0.78140   0.00000  Uiso   1.00
C1131  C     0.93170   0.77363   0.54786   0.00000  Uiso   1.00
C1132  C     0.73559   0.72104   0.95097   0.00000  Uiso   1.00
C1133  C     0.90436   0.80898   0.63774   0.00000  Uiso   1.00
C1134  C     0.78966   0.72916   0.93891   0.00000  Uiso   1.00
C1135  C     0.76296   0.68929   0.86010   0.00000  Uiso   1.00
C1136  C     0.75208   0.69985   0.61379   0.00000  Uiso   1.00
C1137  C     0.90974   0.80517   0.88675   0.00000  Uiso   1.00
C1138  C     0.87204   0.77296   0.60995   0.00000  Uiso   1.00
C1139  C     0.79574   0.72464   0.88944   0.00000  Uiso   1.00
C1140  C     0.79761   0.72364   0.59869   0.00000  Uiso   1.00
C1141  C     0.86725   0.77733   0.90177   0.00000  Uiso   1.00
C1142  C     0.80020   0.72074   0.54923   0.00000  Uiso   1.00
Cu1143 Cu    0.83333   0.74999   0.79822   0.00000  Uiso   1.00
Cu1144 Cu    0.83333   0.75000   0.70179   0.00000  Uiso   1.00
H1145  H     0.86831   0.53538   0.82891   0.00000  Uiso   1.00
H1146  H     0.70933   0.81181   0.79862   0.00000  Uiso   1.00
H1147  H     0.92145   0.64723   0.82246   0.00000  Uiso   1.00
H1148  H     0.86887   0.63986   0.85720   0.00000  Uiso   1.00
H1149  H     0.91614   0.60057   0.85944   0.00000  Uiso   1.00
H1150  H     0.73247   0.85308   0.73995   0.00000  Uiso   1.00
H1151  H     0.71074   0.90079   0.70903   0.00000  Uiso   1.00
H1152  H     0.74870   0.86346   0.68095   0.00000  Uiso   1.00
H1153  H     0.80451   0.61229   0.58911   0.00000  Uiso   1.00
H1154  H     0.97826   0.84738   0.74375   0.00000  Uiso   1.00
H1155  H     0.77035   0.98961   0.60882   0.00000  Uiso   1.00
H1156  H     0.75904   0.96749   0.73117   0.00000  Uiso   1.00
H1157  H     0.99310   0.50553   0.83157   0.00000  Uiso   1.00
H1158  H     0.93661   0.75383   0.51529   0.00000  Uiso   1.00
H1159  H     0.94252   0.80933   0.54402   0.00000  Uiso   1.00
H1160  H     0.95937   0.76112   0.57674   0.00000  Uiso   1.00
H1161  H     0.72646   0.68529   0.95613   0.00000  Uiso   1.00
H1162  H     0.72919   0.74175   0.98241   0.00000  Uiso   1.00
H1163  H     0.70736   0.73168   0.92139   0.00000  Uiso   1.00
H1164  H     0.91293   0.87468   0.65404   0.00000  Uiso   1.00
H1165  H     0.75264   0.62457   0.83984   0.00000  Uiso   1.00
H1166  H     0.67595   0.68359   0.59793   0.00000  Uiso   1.00
H1167  H     0.77450   0.69611   0.52850   0.00000  Uiso   1.00
H1168  H     0.98539   0.82410   0.90121   0.00000  Uiso   1.00
H1169  H     0.88996   0.80301   0.97292   0.00000  Uiso   1.00
H1170  H     0.68345   0.68157   0.68913   0.00000  Uiso   1.00
H1171  H     0.95804   0.68376   0.71113   0.00000  Uiso   1.00
H1172  H     0.97245   0.71998   0.66338   0.00000  Uiso   1.00
H1173  H     0.98275   0.81124   0.81942   0.00000  Uiso   1.00
H1174  H     0.69245   0.77124   0.84083   0.00000  Uiso   1.00
N1175  N     0.83333   0.75001   0.62935   0.00000  Uiso   1.00
N1176  N     0.83333   0.74999   0.87066   0.00000  Uiso   1.00
O1177  O     0.83334   0.68572   0.79072   0.00000  Uiso   1.00
O1178  O     0.79797   0.59796   0.62012   0.00000  Uiso   1.00
O1179  O     0.96536   0.89644   0.80887   0.00000  Uiso   1.00
O1180  O     0.94157   0.85541   0.73978   0.00000  Uiso   1.00
O1181  O     0.85562   0.99388   0.65245   0.00000  Uiso   1.00
O1182  O     0.77249   0.51064   0.63781   0.00000  Uiso   1.00
O1183  O     0.95253   0.50214   0.74944   0.00000  Uiso   1.00
O1184  O     0.96004   0.98579   0.82849   0.00000  Uiso   1.00
O1185  O     0.94842   0.80348   0.65482   0.00000  Uiso   1.00
O1186  O     0.88595   0.85102   0.63910   0.00000  Uiso   1.00
O1187  O     0.72026   0.69624   0.84061   0.00000  Uiso   1.00
O1188  O     0.83333   0.81427   0.70929   0.00000  Uiso   1.00
O1189  O     0.77857   0.64630   0.85984   0.00000  Uiso   1.00
O1190  O     0.75622   0.67424   0.64642   0.00000  Uiso   1.00
O1191  O     0.70402   0.70394   0.58713   0.00000  Uiso   1.00
O1192  O     0.90130   0.83651   0.86139   0.00000  Uiso   1.00
O1193  O     0.95973   0.79937   0.90806   0.00000  Uiso   1.00
O1194  O     0.83334   0.68573   0.70928   0.00000  Uiso   1.00
O1195  O     0.83333   0.81427   0.79072   0.00000  Uiso   1.00
O1196  O     0.75828   0.74999   0.78132   0.00000  Uiso   1.00
O1197  O     0.90839   0.75000   0.71868   0.00000  Uiso   1.00
O1198  O     0.75828   0.75000   0.69989   0.00000  Uiso   1.00
O1199  O     0.90839   0.75000   0.80012   0.00000  Uiso   1.00
O1200  O     0.87452   0.63339   0.65112   0.00000  Uiso   1.00
loop_
_geom_bond_atom_site_label_1
_geom_bond_atom_site_label_2
_geom_bond_distance
_geom_bond_site_symmetry_2
_ccdc_geom_bond_type
C1     O77     1.313   .     A
C1     O94     1.307   .     A
C1     C14     1.490   .     S
C2     C41     1.402   .     A
C2     H69     1.075   .     S
C2     C4      1.401   .     A
C3     C42     1.399   .     A
C3     C23     1.429   .     A
C3     C604    1.548   1_554 S
C4     C34     1.430   .     A
C4     C603    1.548   .     S
C5     C7      1.448   .     S
C5     O98     1.310   .     A
C5     O96     1.287   .     A
C6     O97     1.292   .     A
C6     C8      1.444   .     S
C6     O99     1.302   .     A
C7     C208    1.365   1_455 S
C7     C222    1.518   1_455 S
C8     C107    1.365   .     S
C8     C124    1.521   .     S
C9     H45     1.084   .     S
C9     C20     1.394   .     A
C9     C11     1.393   .     A
C10    H56     1.085   .     S
C10    C21     1.397   .     A
C10    C13     1.393   .     A
C11    C14     1.420   .     A
C11    C25     1.513   .     S
C12    O95     1.305   .     A
C12    O88     1.300   .     A
C12    C15     1.466   .     S
C13    C15     1.409   .     A
C13    C26     1.505   .     S
C14    C16     1.429   .     A
C15    C17     1.418   .     A
C16    C27     1.488   .     S
C16    C18     1.412   .     A
C17    C28     1.483   .     S
C17    C19     1.411   .     A
C18    C29     1.484   .     S
C18    C20     1.408   .     A
C19    C21     1.410   .     A
C19    C30     1.484   .     S
C20    C321    1.473   1_545 S
C21    C320    1.473   .     S
C22    H72     1.109   .     S
C22    H71     1.111   .     S
C22    C107    1.518   .     S
C22    H170    1.104   .     S
C23    C38     1.425   .     A
C23    C31     1.516   .     S
C24    H46     1.105   .     S
C24    H74     1.105   .     S
C24    C208    1.521   1_455 S
C24    H273    1.105   1_455 S
C25    H47     1.111   .     S
C25    H48     1.103   .     S
C25    H49     1.111   .     S
C26    H50     1.103   .     S
C26    H52     1.110   .     S
C26    H51     1.111   .     S
C27    O78     1.398   .     S
C27    O100    1.223   .     D
C28    O79     1.222   .     D
C28    O80     1.392   .     S
C29    O82     1.397   .     S
C29    O381    1.223   1_545 S
C30    O84     1.397   .     S
C30    O383    1.223   .     S
C31    H58     1.109   .     S
C31    H59     1.110   .     S
C31    H60     1.110   .     S
C32    H61     1.110   .     S
C32    C34     1.516   .     S
C32    H63     1.110   .     S
C32    H62     1.109   .     S
C33    O86     1.398   .     S
C33    O85     1.222   .     D
C33    C38     1.472   .     S
C34    C39     1.425   .     A
C35    O87     1.220   .     D
C35    C39     1.483   .     S
C35    O89     1.395   .     S
C36    C40     1.475   .     S
C36    O91     1.399   .     S
C36    O90     1.216   .     D
C37    C41     1.469   .     S
C37    O93     1.399   .     S
C37    O92     1.218   .     D
C38    N75     1.376   .     A
C39    N76     1.381   .     A
C40    C42     1.402   .     A
C40    N75     1.379   .     A
C41    N76     1.376   .     A
C42    H67     1.073   .     S
Cu43   O99     1.975   .     S
Cu43   O95     1.965   .     S
Cu43   Cu44    2.710   .     S
Cu43   O96     1.974   .     S
Cu43   N76     2.036   .     S
Cu43   O77     1.953   .     S
Cu44   O98     1.975   .     S
Cu44   N75     2.036   .     S
Cu44   O97     1.974   .     S
Cu44   O94     1.965   .     S
Cu44   O88     1.953   .     S
H53    O78     1.014   .     S
H54    O80     1.008   .     S
H55    O382    1.014   .     S
H57    O384    1.014   1_545 S
H64    O86     1.013   .     S
H65    O89     1.014   .     S
H66    O91     1.013   .     S
H68    O93     1.013   .     S
H70    C222    1.104   1_455 S
H73    C124    1.105   .     S
O81    C329    1.223   .     S
O82    H355    1.014   1_545 S
O83    C330    1.223   1_545 S
O84    H357    1.014   .     S
C101   O177    1.313   .     A
C101   O194    1.307   .     A
C101   C114    1.490   .     S
C102   C141    1.402   .     A
C102   H169    1.075   .     S
C102   C104    1.401   .     A
C103   C142    1.399   .     A
C103   C123    1.429   .     A
C103   C704    1.548   1_554 S
C104   C134    1.430   .     A
C104   C703    1.548   .     S
C105   C107    1.448   .     S
C105   O198    1.310   .     A
C105   O196    1.287   .     A
C106   O197    1.292   .     A
C106   C108    1.444   .     S
C106   O199    1.302   .     A
C108   C207    1.365   .     S
C108   C224    1.521   .     S
C109   H145    1.084   .     S
C109   C120    1.394   .     A
C109   C111    1.393   .     A
C110   H156    1.085   .     S
C110   C121    1.397   .     A
C110   C113    1.393   .     A
C111   C114    1.420   .     A
C111   C125    1.513   .     S
C112   O195    1.305   .     A
C112   O188    1.300   .     A
C112   C115    1.466   .     S
C113   C115    1.409   .     A
C113   C126    1.505   .     S
C114   C116    1.429   .     A
C115   C117    1.418   .     A
C116   C127    1.488   .     S
C116   C118    1.412   .     A
C117   C128    1.483   .     S
C117   C119    1.411   .     A
C118   C129    1.484   .     S
C118   C120    1.408   .     A
C119   C121    1.410   .     A
C119   C130    1.484   .     S
C120   C421    1.473   1_545 S
C121   C420    1.473   .     S
C122   H172    1.109   .     S
C122   H171    1.111   .     S
C122   C207    1.518   .     S
C122   H270    1.104   .     S
C123   C138    1.425   .     A
C123   C131    1.516   .     S
C124   H146    1.105   .     S
C124   H174    1.105   .     S
C125   H147    1.111   .     S
C125   H148    1.103   .     S
C125   H149    1.111   .     S
C126   H150    1.103   .     S
C126   H152    1.110   .     S
C126   H151    1.111   .     S
C127   O178    1.398   .     S
C127   O200    1.223   .     D
C128   O179    1.222   .     D
C128   O180    1.392   .     S
C129   O182    1.397   .     S
C129   O481    1.223   1_545 S
C130   O184    1.397   .     S
C130   O483    1.223   .     S
C131   H158    1.109   .     S
C131   H159    1.110   .     S
C131   H160    1.110   .     S
C132   H161    1.110   .     S
C132   C134    1.516   .     S
C132   H163    1.110   .     S
C132   H162    1.109   .     S
C133   O186    1.398   .     S
C133   O185    1.222   .     D
C133   C138    1.472   .     S
C134   C139    1.425   .     A
C135   O187    1.220   .     D
C135   C139    1.483   .     S
C135   O189    1.395   .     S
C136   C140    1.475   .     S
C136   O191    1.399   .     S
C136   O190    1.216   .     D
C137   C141    1.469   .     S
C137   O193    1.399   .     S
C137   O192    1.218   .     D
C138   N175    1.376   .     A
C139   N176    1.381   .     A
C140   C142    1.402   .     A
C140   N175    1.379   .     A
C141   N176    1.376   .     A
C142   H167    1.073   .     S
Cu143  O199    1.975   .     S
Cu143  O195    1.965   .     S
Cu143  Cu144   2.710   .     S
Cu143  O196    1.974   .     S
Cu143  N176    2.036   .     S
Cu143  O177    1.953   .     S
Cu144  O198    1.975   .     S
Cu144  N175    2.036   .     S
Cu144  O197    1.974   .     S
Cu144  O194    1.965   .     S
Cu144  O188    1.953   .     S
H153   O178    1.014   .     S
H154   O180    1.008   .     S
H155   O482    1.014   .     S
H157   O484    1.014   1_545 S
H164   O186    1.013   .     S
H165   O189    1.014   .     S
H166   O191    1.013   .     S
H168   O193    1.013   .     S
H173   C224    1.105   .     S
O181   C429    1.223   .     S
O182   H455    1.014   1_545 S
O183   C430    1.223   1_545 S
O184   H457    1.014   .     S
C201   O277    1.313   .     A
C201   O294    1.307   .     A
C201   C214    1.490   .     S
C202   C241    1.402   .     A
C202   H269    1.075   .     S
C202   C204    1.401   .     A
C203   C242    1.399   .     A
C203   C223    1.429   .     A
C203   C804    1.548   1_554 S
C204   C234    1.430   .     A
C204   C803    1.548   .     S
C205   C207    1.448   .     S
C205   O298    1.310   .     A
C205   O296    1.287   .     A
C206   O297    1.292   .     A
C206   C208    1.444   .     S
C206   O299    1.302   .     A
C208   C7      1.365   1_655 S
C208   C24     1.521   1_655 S
C209   H245    1.084   .     S
C209   C220    1.394   .     A
C209   C211    1.393   .     A
C210   H256    1.085   .     S
C210   C221    1.397   .     A
C210   C213    1.393   .     A
C211   C214    1.420   .     A
C211   C225    1.513   .     S
C212   O295    1.305   .     A
C212   O288    1.300   .     A
C212   C215    1.466   .     S
C213   C215    1.409   .     A
C213   C226    1.505   .     S
C214   C216    1.429   .     A
C215   C217    1.418   .     A
C216   C227    1.488   .     S
C216   C218    1.412   .     A
C217   C228    1.483   .     S
C217   C219    1.411   .     A
C218   C229    1.484   .     S
C218   C220    1.408   .     A
C219   C221    1.410   .     A
C219   C230    1.484   .     S
C220   C521    1.473   1_545 S
C221   C520    1.473   .     S
C222   H272    1.109   .     S
C222   H271    1.111   .     S
C222   C7      1.518   1_655 S
C222   H70     1.104   1_655 S
C223   C238    1.425   .     A
C223   C231    1.516   .     S
C224   H246    1.105   .     S
C224   H274    1.105   .     S
C225   H247    1.111   .     S
C225   H248    1.103   .     S
C225   H249    1.111   .     S
C226   H250    1.103   .     S
C226   H252    1.110   .     S
C226   H251    1.111   .     S
C227   O278    1.398   .     S
C227   O300    1.223   .     D
C228   O279    1.222   .     D
C228   O280    1.392   .     S
C229   O282    1.397   .     S
C229   O581    1.223   1_545 S
C230   O284    1.397   .     S
C230   O583    1.223   .     S
C231   H258    1.109   .     S
C231   H259    1.110   .     S
C231   H260    1.110   .     S
C232   H261    1.110   .     S
C232   C234    1.516   .     S
C232   H263    1.110   .     S
C232   H262    1.109   .     S
C233   O286    1.398   .     S
C233   O285    1.222   .     D
C233   C238    1.472   .     S
C234   C239    1.425   .     A
C235   O287    1.220   .     D
C235   C239    1.483   .     S
C235   O289    1.395   .     S
C236   C240    1.475   .     S
C236   O291    1.399   .     S
C236   O290    1.216   .     D
C237   C241    1.469   .     S
C237   O293    1.399   .     S
C237   O292    1.218   .     D
C238   N275    1.376   .     A
C239   N276    1.381   .     A
C240   C242    1.402   .     A
C240   N275    1.379   .     A
C241   N276    1.376   .     A
C242   H267    1.073   .     S
Cu243  O299    1.975   .     S
Cu243  O295    1.965   .     S
Cu243  Cu244   2.710   .     S
Cu243  O296    1.974   .     S
Cu243  N276    2.036   .     S
Cu243  O277    1.953   .     S
Cu244  O298    1.975   .     S
Cu244  N275    2.036   .     S
Cu244  O297    1.974   .     S
Cu244  O294    1.965   .     S
Cu244  O288    1.953   .     S
H253   O278    1.014   .     S
H254   O280    1.008   .     S
H255   O582    1.014   .     S
H257   O584    1.014   1_545 S
H264   O286    1.013   .     S
H265   O289    1.014   .     S
H266   O291    1.013   .     S
H268   O293    1.013   .     S
H273   C24     1.105   1_655 S
O281   C529    1.223   .     S
O282   H555    1.014   1_545 S
O283   C530    1.223   1_545 S
O284   H557    1.014   .     S
C301   O377    1.313   .     A
C301   O394    1.307   .     A
C301   C314    1.490   .     S
C302   C341    1.402   .     A
C302   H369    1.075   .     S
C302   C304    1.401   .     A
C303   C342    1.399   .     A
C303   C323    1.429   .     A
C303   C904    1.548   1_554 S
C304   C334    1.430   .     A
C304   C903    1.548   .     S
C305   C307    1.448   .     S
C305   O398    1.310   .     A
C305   O396    1.287   .     A
C306   O397    1.292   .     A
C306   C308    1.444   .     S
C306   O399    1.302   .     A
C307   C508    1.365   1_455 S
C307   C522    1.518   1_455 S
C308   C407    1.365   .     S
C308   C424    1.521   .     S
C309   H345    1.084   .     S
C309   C320    1.394   .     A
C309   C311    1.393   .     A
C310   H356    1.085   .     S
C310   C321    1.397   .     A
C310   C313    1.393   .     A
C311   C314    1.420   .     A
C311   C325    1.513   .     S
C312   O395    1.305   .     A
C312   O388    1.300   .     A
C312   C315    1.466   .     S
C313   C315    1.409   .     A
C313   C326    1.505   .     S
C314   C316    1.429   .     A
C315   C317    1.418   .     A
C316   C327    1.488   .     S
C316   C318    1.412   .     A
C317   C328    1.483   .     S
C317   C319    1.411   .     A
C318   C329    1.484   .     S
C318   C320    1.408   .     A
C319   C321    1.410   .     A
C319   C330    1.484   .     S
C321   C20     1.473   1_565 S
C322   H372    1.109   .     S
C322   H371    1.111   .     S
C322   C407    1.518   .     S
C322   H470    1.104   .     S
C323   C338    1.425   .     A
C323   C331    1.516   .     S
C324   H346    1.105   .     S
C324   H374    1.105   .     S
C324   C508    1.521   1_455 S
C324   H573    1.105   1_455 S
C325   H347    1.111   .     S
C325   H348    1.103   .     S
C325   H349    1.111   .     S
C326   H350    1.103   .     S
C326   H352    1.110   .     S
C326   H351    1.111   .     S
C327   O378    1.398   .     S
C327   O400    1.223   .     D
C328   O379    1.222   .     D
C328   O380    1.392   .     S
C329   O382    1.397   .     S
C330   O384    1.397   .     S
C330   O83     1.223   1_565 S
C331   H358    1.109   .     S
C331   H359    1.110   .     S
C331   H360    1.110   .     S
C332   H361    1.110   .     S
C332   C334    1.516   .     S
C332   H363    1.110   .     S
C332   H362    1.109   .     S
C333   O386    1.398   .     S
C333   O385    1.222   .     D
C333   C338    1.472   .     S
C334   C339    1.425   .     A
C335   O387    1.220   .     D
C335   C339    1.483   .     S
C335   O389    1.395   .     S
C336   C340    1.475   .     S
C336   O391    1.399   .     S
C336   O390    1.216   .     D
C337   C341    1.469   .     S
C337   O393    1.399   .     S
C337   O392    1.218   .     D
C338   N375    1.376   .     A
C339   N376    1.381   .     A
C340   C342    1.402   .     A
C340   N375    1.379   .     A
C341   N376    1.376   .     A
C342   H367    1.073   .     S
Cu343  O399    1.975   .     S
Cu343  O395    1.965   .     S
Cu343  Cu344   2.710   .     S
Cu343  O396    1.974   .     S
Cu343  N376    2.036   .     S
Cu343  O377    1.953   .     S
Cu344  O398    1.975   .     S
Cu344  N375    2.036   .     S
Cu344  O397    1.974   .     S
Cu344  O394    1.965   .     S
Cu344  O388    1.953   .     S
H353   O378    1.014   .     S
H354   O380    1.008   .     S
H355   O82     1.014   1_565 S
H364   O386    1.013   .     S
H365   O389    1.014   .     S
H366   O391    1.013   .     S
H368   O393    1.013   .     S
H370   C522    1.104   1_455 S
H373   C424    1.105   .     S
O381   C29     1.223   1_565 S
O384   H57     1.014   1_565 S
C401   O477    1.313   .     A
C401   O494    1.307   .     A
C401   C414    1.490   .     S
C402   C441    1.402   .     A
C402   H469    1.075   .     S
C402   C404    1.401   .     A
C403   C442    1.399   .     A
C403   C423    1.429   .     A
C403   C1004   1.548   1_554 S
C404   C434    1.430   .     A
C404   C1003   1.548   .     S
C405   C407    1.448   .     S
C405   O498    1.310   .     A
C405   O496    1.287   .     A
C406   O497    1.292   .     A
C406   C408    1.444   .     S
C406   O499    1.302   .     A
C408   C507    1.365   .     S
C408   C524    1.521   .     S
C409   H445    1.084   .     S
C409   C420    1.394   .     A
C409   C411    1.393   .     A
C410   H456    1.085   .     S
C410   C421    1.397   .     A
C410   C413    1.393   .     A
C411   C414    1.420   .     A
C411   C425    1.513   .     S
C412   O495    1.305   .     A
C412   O488    1.300   .     A
C412   C415    1.466   .     S
C413   C415    1.409   .     A
C413   C426    1.505   .     S
C414   C416    1.429   .     A
C415   C417    1.418   .     A
C416   C427    1.488   .     S
C416   C418    1.412   .     A
C417   C428    1.483   .     S
C417   C419    1.411   .     A
C418   C429    1.484   .     S
C418   C420    1.408   .     A
C419   C421    1.410   .     A
C419   C430    1.484   .     S
C421   C120    1.473   1_565 S
C422   H472    1.109   .     S
C422   H471    1.111   .     S
C422   C507    1.518   .     S
C422   H570    1.104   .     S
C423   C438    1.425   .     A
C423   C431    1.516   .     S
C424   H446    1.105   .     S
C424   H474    1.105   .     S
C425   H447    1.111   .     S
C425   H448    1.103   .     S
C425   H449    1.111   .     S
C426   H450    1.103   .     S
C426   H452    1.110   .     S
C426   H451    1.111   .     S
C427   O478    1.398   .     S
C427   O500    1.223   .     D
C428   O479    1.222   .     D
C428   O480    1.392   .     S
C429   O482    1.397   .     S
C430   O484    1.397   .     S
C430   O183    1.223   1_565 S
C431   H458    1.109   .     S
C431   H459    1.110   .     S
C431   H460    1.110   .     S
C432   H461    1.110   .     S
C432   C434    1.516   .     S
C432   H463    1.110   .     S
C432   H462    1.109   .     S
C433   O486    1.398   .     S
C433   O485    1.222   .     D
C433   C438    1.472   .     S
C434   C439    1.425   .     A
C435   O487    1.220   .     D
C435   C439    1.483   .     S
C435   O489    1.395   .     S
C436   C440    1.475   .     S
C436   O491    1.399   .     S
C436   O490    1.216   .     D
C437   C441    1.469   .     S
C437   O493    1.399   .     S
C437   O492    1.218   .     D
C438   N475    1.376   .     A
C439   N476    1.381   .     A
C440   C442    1.402   .     A
C440   N475    1.379   .     A
C441   N476    1.376   .     A
C442   H467    1.073   .     S
Cu443  O499    1.975   .     S
Cu443  O495    1.965   .     S
Cu443  Cu444   2.710   .     S
Cu443  O496    1.974   .     S
Cu443  N476    2.036   .     S
Cu443  O477    1.953   .     S
Cu444  O498    1.975   .     S
Cu444  N475    2.036   .     S
Cu444  O497    1.974   .     S
Cu444  O494    1.965   .     S
Cu444  O488    1.953   .     S
H453   O478    1.014   .     S
H454   O480    1.008   .     S
H455   O182    1.014   1_565 S
H464   O486    1.013   .     S
H465   O489    1.014   .     S
H466   O491    1.013   .     S
H468   O493    1.013   .     S
H473   C524    1.105   .     S
O481   C129    1.223   1_565 S
O484   H157    1.014   1_565 S
C501   O577    1.313   .     A
C501   O594    1.307   .     A
C501   C514    1.490   .     S
C502   C541    1.402   .     A
C502   H569    1.075   .     S
C502   C504    1.401   .     A
C503   C542    1.399   .     A
C503   C523    1.429   .     A
C503   C1104   1.548   1_554 S
C504   C534    1.430   .     A
C504   C1103   1.548   .     S
C505   C507    1.448   .     S
C505   O598    1.310   .     A
C505   O596    1.287   .     A
C506   O597    1.292   .     A
C506   C508    1.444   .     S
C506   O599    1.302   .     A
C508   C307    1.365   1_655 S
C508   C324    1.521   1_655 S
C509   H545    1.084   .     S
C509   C520    1.394   .     A
C509   C511    1.393   .     A
C510   H556    1.085   .     S
C510   C521    1.397   .     A
C510   C513    1.393   .     A
C511   C514    1.420   .     A
C511   C525    1.513   .     S
C512   O595    1.305   .     A
C512   O588    1.300   .     A
C512   C515    1.466   .     S
C513   C515    1.409   .     A
C513   C526    1.505   .     S
C514   C516    1.429   .     A
C515   C517    1.418   .     A
C516   C527    1.488   .     S
C516   C518    1.412   .     A
C517   C528    1.483   .     S
C517   C519    1.411   .     A
C518   C529    1.484   .     S
C518   C520    1.408   .     A
C519   C521    1.410   .     A
C519   C530    1.484   .     S
C521   C220    1.473   1_565 S
C522   H572    1.109   .     S
C522   H571    1.111   .     S
C522   C307    1.518   1_655 S
C522   H370    1.104   1_655 S
C523   C538    1.425   .     A
C523   C531    1.516   .     S
C524   H546    1.105   .     S
C524   H574    1.105   .     S
C525   H547    1.111   .     S
C525   H548    1.103   .     S
C525   H549    1.111   .     S
C526   H550    1.103   .     S
C526   H552    1.110   .     S
C526   H551    1.111   .     S
C527   O578    1.398   .     S
C527   O600    1.223   .     D
C528   O579    1.222   .     D
C528   O580    1.392   .     S
C529   O582    1.397   .     S
C530   O584    1.397   .     S
C530   O283    1.223   1_565 S
C531   H558    1.109   .     S
C531   H559    1.110   .     S
C531   H560    1.110   .     S
C532   H561    1.110   .     S
C532   C534    1.516   .     S
C532   H563    1.110   .     S
C532   H562    1.109   .     S
C533   O586    1.398   .     S
C533   O585    1.222   .     D
C533   C538    1.472   .     S
C534   C539    1.425   .     A
C535   O587    1.220   .     D
C535   C539    1.483   .     S
C535   O589    1.395   .     S
C536   C540    1.475   .     S
C536   O591    1.399   .     S
C536   O590    1.216   .     D
C537   C541    1.469   .     S
C537   O593    1.399   .     S
C537   O592    1.218   .     D
C538   N575    1.376   .     A
C539   N576    1.381   .     A
C540   C542    1.402   .     A
C540   N575    1.379   .     A
C541   N576    1.376   .     A
C542   H567    1.073   .     S
Cu543  O599    1.975   .     S
Cu543  O595    1.965   .     S
Cu543  Cu544   2.710   .     S
Cu543  O596    1.974   .     S
Cu543  N576    2.036   .     S
Cu543  O577    1.953   .     S
Cu544  O598    1.975   .     S
Cu544  N575    2.036   .     S
Cu544  O597    1.974   .     S
Cu544  O594    1.965   .     S
Cu544  O588    1.953   .     S
H553   O578    1.014   .     S
H554   O580    1.008   .     S
H555   O282    1.014   1_565 S
H564   O586    1.013   .     S
H565   O589    1.014   .     S
H566   O591    1.013   .     S
H568   O593    1.013   .     S
H573   C324    1.105   1_655 S
O581   C229    1.223   1_565 S
O584   H257    1.014   1_565 S
C601   O677    1.313   .     A
C601   O694    1.307   .     A
C601   C614    1.490   .     S
C602   C641    1.402   .     A
C602   H669    1.075   .     S
C602   C604    1.401   .     A
C603   C642    1.399   .     A
C603   C623    1.429   .     A
C604   C634    1.430   .     A
C604   C3      1.548   1_556 S
C605   C607    1.448   .     S
C605   O698    1.310   .     A
C605   O696    1.287   .     A
C606   O697    1.292   .     A
C606   C608    1.444   .     S
C606   O699    1.302   .     A
C607   C808    1.365   1_455 S
C607   C822    1.518   1_455 S
C608   C707    1.365   .     S
C608   C724    1.521   .     S
C609   H645    1.084   .     S
C609   C620    1.394   .     A
C609   C611    1.393   .     A
C610   H656    1.085   .     S
C610   C621    1.397   .     A
C610   C613    1.393   .     A
C611   C614    1.420   .     A
C611   C625    1.513   .     S
C612   O695    1.305   .     A
C612   O688    1.300   .     A
C612   C615    1.466   .     S
C613   C615    1.409   .     A
C613   C626    1.505   .     S
C614   C616    1.429   .     A
C615   C617    1.418   .     A
C616   C627    1.488   .     S
C616   C618    1.412   .     A
C617   C628    1.483   .     S
C617   C619    1.411   .     A
C618   C629    1.484   .     S
C618   C620    1.408   .     A
C619   C621    1.410   .     A
C619   C630    1.484   .     S
C620   C921    1.473   1_545 S
C621   C920    1.473   .     S
C622   H672    1.109   .     S
C622   H671    1.111   .     S
C622   C707    1.518   .     S
C622   H770    1.104   .     S
C623   C638    1.425   .     A
C623   C631    1.516   .     S
C624   H646    1.105   .     S
C624   H674    1.105   .     S
C624   C808    1.521   1_455 S
C624   H873    1.105   1_455 S
C625   H647    1.111   .     S
C625   H648    1.103   .     S
C625   H649    1.111   .     S
C626   H650    1.103   .     S
C626   H652    1.110   .     S
C626   H651    1.111   .     S
C627   O678    1.398   .     S
C627   O700    1.223   .     D
C628   O679    1.222   .     D
C628   O680    1.392   .     S
C629   O682    1.397   .     S
C629   O981    1.223   1_545 S
C630   O684    1.397   .     S
C630   O983    1.223   .     S
C631   H658    1.109   .     S
C631   H659    1.110   .     S
C631   H660    1.110   .     S
C632   H661    1.110   .     S
C632   C634    1.516   .     S
C632   H663    1.110   .     S
C632   H662    1.109   .     S
C633   O686    1.398   .     S
C633   O685    1.222   .     D
C633   C638    1.472   .     S
C634   C639    1.425   .     A
C635   O687    1.220   .     D
C635   C639    1.483   .     S
C635   O689    1.395   .     S
C636   C640    1.475   .     S
C636   O691    1.399   .     S
C636   O690    1.216   .     D
C637   C641    1.469   .     S
C637   O693    1.399   .     S
C637   O692    1.218   .     D
C638   N675    1.376   .     A
C639   N676    1.381   .     A
C640   C642    1.402   .     A
C640   N675    1.379   .     A
C641   N676    1.376   .     A
C642   H667    1.073   .     S
Cu643  O699    1.975   .     S
Cu643  O695    1.965   .     S
Cu643  Cu644   2.710   .     S
Cu643  O696    1.974   .     S
Cu643  N676    2.036   .     S
Cu643  O677    1.953   .     S
Cu644  O698    1.975   .     S
Cu644  N675    2.036   .     S
Cu644  O697    1.974   .     S
Cu644  O694    1.965   .     S
Cu644  O688    1.953   .     S
H653   O678    1.014   .     S
H654   O680    1.008   .     S
H655   O982    1.014   .     S
H657   O984    1.014   1_545 S
H664   O686    1.013   .     S
H665   O689    1.014   .     S
H666   O691    1.013   .     S
H668   O693    1.013   .     S
H670   C822    1.104   1_455 S
H673   C724    1.105   .     S
O681   C929    1.223   .     S
O682   H955    1.014   1_545 S
O683   C930    1.223   1_545 S
O684   H957    1.014   .     S
C701   O777    1.313   .     A
C701   O794    1.307   .     A
C701   C714    1.490   .     S
C702   C741    1.402   .     A
C702   H769    1.075   .     S
C702   C704    1.401   .     A
C703   C742    1.399   .     A
C703   C723    1.429   .     A
C704   C734    1.430   .     A
C704   C103    1.548   1_556 S
C705   C707    1.448   .     S
C705   O798    1.310   .     A
C705   O796    1.287   .     A
C706   O797    1.292   .     A
C706   C708    1.444   .     S
C706   O799    1.302   .     A
C708   C807    1.365   .     S
C708   C824    1.521   .     S
C709   H745    1.084   .     S
C709   C720    1.394   .     A
C709   C711    1.393   .     A
C710   H756    1.085   .     S
C710   C721    1.397   .     A
C710   C713    1.393   .     A
C711   C714    1.420   .     A
C711   C725    1.513   .     S
C712   O795    1.305   .     A
C712   O788    1.300   .     A
C712   C715    1.466   .     S
C713   C715    1.409   .     A
C713   C726    1.505   .     S
C714   C716    1.429   .     A
C715   C717    1.418   .     A
C716   C727    1.488   .     S
C716   C718    1.412   .     A
C717   C728    1.483   .     S
C717   C719    1.411   .     A
C718   C729    1.484   .     S
C718   C720    1.408   .     A
C719   C721    1.410   .     A
C719   C730    1.484   .     S
C720   C1021   1.473   1_545 S
C721   C1020   1.473   .     S
C722   H772    1.109   .     S
C722   H771    1.111   .     S
C722   C807    1.518   .     S
C722   H870    1.104   .     S
C723   C738    1.425   .     A
C723   C731    1.516   .     S
C724   H746    1.105   .     S
C724   H774    1.105   .     S
C725   H747    1.111   .     S
C725   H748    1.103   .     S
C725   H749    1.111   .     S
C726   H750    1.103   .     S
C726   H752    1.110   .     S
C726   H751    1.111   .     S
C727   O778    1.398   .     S
C727   O800    1.223   .     D
C728   O779    1.222   .     D
C728   O780    1.392   .     S
C729   O782    1.397   .     S
C729   O1081   1.223   1_545 S
C730   O784    1.397   .     S
C730   O1083   1.223   .     S
C731   H758    1.109   .     S
C731   H759    1.110   .     S
C731   H760    1.110   .     S
C732   H761    1.110   .     S
C732   C734    1.516   .     S
C732   H763    1.110   .     S
C732   H762    1.109   .     S
C733   O786    1.398   .     S
C733   O785    1.222   .     D
C733   C738    1.472   .     S
C734   C739    1.425   .     A
C735   O787    1.220   .     D
C735   C739    1.483   .     S
C735   O789    1.395   .     S
C736   C740    1.475   .     S
C736   O791    1.399   .     S
C736   O790    1.216   .     D
C737   C741    1.469   .     S
C737   O793    1.399   .     S
C737   O792    1.218   .     D
C738   N775    1.376   .     A
C739   N776    1.381   .     A
C740   C742    1.402   .     A
C740   N775    1.379   .     A
C741   N776    1.376   .     A
C742   H767    1.073   .     S
Cu743  O799    1.975   .     S
Cu743  O795    1.965   .     S
Cu743  Cu744   2.710   .     S
Cu743  O796    1.974   .     S
Cu743  N776    2.036   .     S
Cu743  O777    1.953   .     S
Cu744  O798    1.975   .     S
Cu744  N775    2.036   .     S
Cu744  O797    1.974   .     S
Cu744  O794    1.965   .     S
Cu744  O788    1.953   .     S
H753   O778    1.014   .     S
H754   O780    1.008   .     S
H755   O1082   1.014   .     S
H757   O1084   1.014   1_545 S
H764   O786    1.013   .     S
H765   O789    1.014   .     S
H766   O791    1.013   .     S
H768   O793    1.013   .     S
H773   C824    1.105   .     S
O781   C1029   1.223   .     S
O782   H1055   1.014   1_545 S
O783   C1030   1.223   1_545 S
O784   H1057   1.014   .     S
C801   O877    1.313   .     A
C801   O894    1.307   .     A
C801   C814    1.490   .     S
C802   C841    1.402   .     A
C802   H869    1.075   .     S
C802   C804    1.401   .     A
C803   C842    1.399   .     A
C803   C823    1.429   .     A
C804   C834    1.430   .     A
C804   C203    1.548   1_556 S
C805   C807    1.448   .     S
C805   O898    1.310   .     A
C805   O896    1.287   .     A
C806   O897    1.292   .     A
C806   C808    1.444   .     S
C806   O899    1.302   .     A
C808   C607    1.365   1_655 S
C808   C624    1.521   1_655 S
C809   H845    1.084   .     S
C809   C820    1.394   .     A
C809   C811    1.393   .     A
C810   H856    1.085   .     S
C810   C821    1.397   .     A
C810   C813    1.393   .     A
C811   C814    1.420   .     A
C811   C825    1.513   .     S
C812   O895    1.305   .     A
C812   O888    1.300   .     A
C812   C815    1.466   .     S
C813   C815    1.409   .     A
C813   C826    1.505   .     S
C814   C816    1.429   .     A
C815   C817    1.418   .     A
C816   C827    1.488   .     S
C816   C818    1.412   .     A
C817   C828    1.483   .     S
C817   C819    1.411   .     A
C818   C829    1.484   .     S
C818   C820    1.408   .     A
C819   C821    1.410   .     A
C819   C830    1.484   .     S
C820   C1121   1.473   1_545 S
C821   C1120   1.473   .     S
C822   H872    1.109   .     S
C822   H871    1.111   .     S
C822   C607    1.518   1_655 S
C822   H670    1.104   1_655 S
C823   C838    1.425   .     A
C823   C831    1.516   .     S
C824   H846    1.105   .     S
C824   H874    1.105   .     S
C825   H847    1.111   .     S
C825   H848    1.103   .     S
C825   H849    1.111   .     S
C826   H850    1.103   .     S
C826   H852    1.110   .     S
C826   H851    1.111   .     S
C827   O878    1.398   .     S
C827   O900    1.223   .     D
C828   O879    1.222   .     D
C828   O880    1.392   .     S
C829   O882    1.397   .     S
C829   O1181   1.223   1_545 S
C830   O884    1.397   .     S
C830   O1183   1.223   .     S
C831   H858    1.109   .     S
C831   H859    1.110   .     S
C831   H860    1.110   .     S
C832   H861    1.110   .     S
C832   C834    1.516   .     S
C832   H863    1.110   .     S
C832   H862    1.109   .     S
C833   O886    1.398   .     S
C833   O885    1.222   .     D
C833   C838    1.472   .     S
C834   C839    1.425   .     A
C835   O887    1.220   .     D
C835   C839    1.483   .     S
C835   O889    1.395   .     S
C836   C840    1.475   .     S
C836   O891    1.399   .     S
C836   O890    1.216   .     D
C837   C841    1.469   .     S
C837   O893    1.399   .     S
C837   O892    1.218   .     D
C838   N875    1.376   .     A
C839   N876    1.381   .     A
C840   C842    1.402   .     A
C840   N875    1.379   .     A
C841   N876    1.376   .     A
C842   H867    1.073   .     S
Cu843  O899    1.975   .     S
Cu843  O895    1.965   .     S
Cu843  Cu844   2.710   .     S
Cu843  O896    1.974   .     S
Cu843  N876    2.036   .     S
Cu843  O877    1.953   .     S
Cu844  O898    1.975   .     S
Cu844  N875    2.036   .     S
Cu844  O897    1.974   .     S
Cu844  O894    1.965   .     S
Cu844  O888    1.953   .     S
H853   O878    1.014   .     S
H854   O880    1.008   .     S
H855   O1182   1.014   .     S
H857   O1184   1.014   1_545 S
H864   O886    1.013   .     S
H865   O889    1.014   .     S
H866   O891    1.013   .     S
H868   O893    1.013   .     S
H873   C624    1.105   1_655 S
O881   C1129   1.223   .     S
O882   H1155   1.014   1_545 S
O883   C1130   1.223   1_545 S
O884   H1157   1.014   .     S
C901   O977    1.313   .     A
C901   O994    1.307   .     A
C901   C914    1.490   .     S
C902   C941    1.402   .     A
C902   H969    1.075   .     S
C902   C904    1.401   .     A
C903   C942    1.399   .     A
C903   C923    1.429   .     A
C904   C934    1.430   .     A
C904   C303    1.548   1_556 S
C905   C907    1.448   .     S
C905   O998    1.310   .     A
C905   O996    1.287   .     A
C906   O997    1.292   .     A
C906   C908    1.444   .     S
C906   O999    1.302   .     A
C907   C1108   1.365   1_455 S
C907   C1122   1.518   1_455 S
C908   C1007   1.365   .     S
C908   C1024   1.521   .     S
C909   H945    1.084   .     S
C909   C920    1.394   .     A
C909   C911    1.393   .     A
C910   H956    1.085   .     S
C910   C921    1.397   .     A
C910   C913    1.393   .     A
C911   C914    1.420   .     A
C911   C925    1.513   .     S
C912   O995    1.305   .     A
C912   O988    1.300   .     A
C912   C915    1.466   .     S
C913   C915    1.409   .     A
C913   C926    1.505   .     S
C914   C916    1.429   .     A
C915   C917    1.418   .     A
C916   C927    1.488   .     S
C916   C918    1.412   .     A
C917   C928    1.483   .     S
C917   C919    1.411   .     A
C918   C929    1.484   .     S
C918   C920    1.408   .     A
C919   C921    1.410   .     A
C919   C930    1.484   .     S
C921   C620    1.473   1_565 S
C922   H972    1.109   .     S
C922   H971    1.111   .     S
C922   C1007   1.518   .     S
C922   H1070   1.104   .     S
C923   C938    1.425   .     A
C923   C931    1.516   .     S
C924   H946    1.105   .     S
C924   H974    1.105   .     S
C924   C1108   1.521   1_455 S
C924   H1173   1.105   1_455 S
C925   H947    1.111   .     S
C925   H948    1.103   .     S
C925   H949    1.111   .     S
C926   H950    1.103   .     S
C926   H952    1.110   .     S
C926   H951    1.111   .     S
C927   O978    1.398   .     S
C927   O1000   1.223   .     D
C928   O979    1.222   .     D
C928   O980    1.392   .     S
C929   O982    1.397   .     S
C930   O984    1.397   .     S
C930   O683    1.223   1_565 S
C931   H958    1.109   .     S
C931   H959    1.110   .     S
C931   H960    1.110   .     S
C932   H961    1.110   .     S
C932   C934    1.516   .     S
C932   H963    1.110   .     S
C932   H962    1.109   .     S
C933   O986    1.398   .     S
C933   O985    1.222   .     D
C933   C938    1.472   .     S
C934   C939    1.425   .     A
C935   O987    1.220   .     D
C935   C939    1.483   .     S
C935   O989    1.395   .     S
C936   C940    1.475   .     S
C936   O991    1.399   .     S
C936   O990    1.216   .     D
C937   C941    1.469   .     S
C937   O993    1.399   .     S
C937   O992    1.218   .     D
C938   N975    1.376   .     A
C939   N976    1.381   .     A
C940   C942    1.402   .     A
C940   N975    1.379   .     A
C941   N976    1.376   .     A
C942   H967    1.073   .     S
Cu943  O999    1.975   .     S
Cu943  O995    1.965   .     S
Cu943  Cu944   2.710   .     S
Cu943  O996    1.974   .     S
Cu943  N976    2.036   .     S
Cu943  O977    1.953   .     S
Cu944  O998    1.975   .     S
Cu944  N975    2.036   .     S
Cu944  O997    1.974   .     S
Cu944  O994    1.965   .     S
Cu944  O988    1.953   .     S
H953   O978    1.014   .     S
H954   O980    1.008   .     S
H955   O682    1.014   1_565 S
H964   O986    1.013   .     S
H965   O989    1.014   .     S
H966   O991    1.013   .     S
H968   O993    1.013   .     S
H970   C1122   1.104   1_455 S
H973   C1024   1.105   .     S
O981   C629    1.223   1_565 S
O984   H657    1.014   1_565 S
C1001  O1077   1.313   .     A
C1001  O1094   1.307   .     A
C1001  C1014   1.490   .     S
C1002  C1041   1.402   .     A
C1002  H1069   1.075   .     S
C1002  C1004   1.401   .     A
C1003  C1042   1.399   .     A
C1003  C1023   1.429   .     A
C1004  C1034   1.430   .     A
C1004  C403    1.548   1_556 S
C1005  C1007   1.448   .     S
C1005  O1098   1.310   .     A
C1005  O1096   1.287   .     A
C1006  O1097   1.292   .     A
C1006  C1008   1.444   .     S
C1006  O1099   1.302   .     A
C1008  C1107   1.365   .     S
C1008  C1124   1.521   .     S
C1009  H1045   1.084   .     S
C1009  C1020   1.394   .     A
C1009  C1011   1.393   .     A
C1010  H1056   1.085   .     S
C1010  C1021   1.397   .     A
C1010  C1013   1.393   .     A
C1011  C1014   1.420   .     A
C1011  C1025   1.513   .     S
C1012  O1095   1.305   .     A
C1012  O1088   1.300   .     A
C1012  C1015   1.466   .     S
C1013  C1015   1.409   .     A
C1013  C1026   1.505   .     S
C1014  C1016   1.429   .     A
C1015  C1017   1.418   .     A
C1016  C1027   1.488   .     S
C1016  C1018   1.412   .     A
C1017  C1028   1.483   .     S
C1017  C1019   1.411   .     A
C1018  C1029   1.484   .     S
C1018  C1020   1.408   .     A
C1019  C1021   1.410   .     A
C1019  C1030   1.484   .     S
C1021  C720    1.473   1_565 S
C1022  H1072   1.109   .     S
C1022  H1071   1.111   .     S
C1022  C1107   1.518   .     S
C1022  H1170   1.104   .     S
C1023  C1038   1.425   .     A
C1023  C1031   1.516   .     S
C1024  H1046   1.105   .     S
C1024  H1074   1.105   .     S
C1025  H1047   1.111   .     S
C1025  H1048   1.103   .     S
C1025  H1049   1.111   .     S
C1026  H1050   1.103   .     S
C1026  H1052   1.110   .     S
C1026  H1051   1.111   .     S
C1027  O1078   1.398   .     S
C1027  O1100   1.223   .     D
C1028  O1079   1.222   .     D
C1028  O1080   1.392   .     S
C1029  O1082   1.397   .     S
C1030  O1084   1.397   .     S
C1030  O783    1.223   1_565 S
C1031  H1058   1.109   .     S
C1031  H1059   1.110   .     S
C1031  H1060   1.110   .     S
C1032  H1061   1.110   .     S
C1032  C1034   1.516   .     S
C1032  H1063   1.110   .     S
C1032  H1062   1.109   .     S
C1033  O1086   1.398   .     S
C1033  O1085   1.222   .     D
C1033  C1038   1.472   .     S
C1034  C1039   1.425   .     A
C1035  O1087   1.220   .     D
C1035  C1039   1.483   .     S
C1035  O1089   1.395   .     S
C1036  C1040   1.475   .     S
C1036  O1091   1.399   .     S
C1036  O1090   1.216   .     D
C1037  C1041   1.469   .     S
C1037  O1093   1.399   .     S
C1037  O1092   1.218   .     D
C1038  N1075   1.376   .     A
C1039  N1076   1.381   .     A
C1040  C1042   1.402   .     A
C1040  N1075   1.379   .     A
C1041  N1076   1.376   .     A
C1042  H1067   1.073   .     S
Cu1043 O1099   1.975   .     S
Cu1043 O1095   1.965   .     S
Cu1043 Cu1044  2.710   .     S
Cu1043 O1096   1.974   .     S
Cu1043 N1076   2.036   .     S
Cu1043 O1077   1.953   .     S
Cu1044 O1098   1.975   .     S
Cu1044 N1075   2.036   .     S
Cu1044 O1097   1.974   .     S
Cu1044 O1094   1.965   .     S
Cu1044 O1088   1.953   .     S
H1053  O1078   1.014   .     S
H1054  O1080   1.008   .     S
H1055  O782    1.014   1_565 S
H1064  O1086   1.013   .     S
H1065  O1089   1.014   .     S
H1066  O1091   1.013   .     S
H1068  O1093   1.013   .     S
H1073  C1124   1.105   .     S
O1081  C729    1.223   1_565 S
O1084  H757    1.014   1_565 S
C1101  O1177   1.313   .     A
C1101  O1194   1.307   .     A
C1101  C1114   1.490   .     S
C1102  C1141   1.402   .     A
C1102  H1169   1.075   .     S
C1102  C1104   1.401   .     A
C1103  C1142   1.399   .     A
C1103  C1123   1.429   .     A
C1104  C1134   1.430   .     A
C1104  C503    1.548   1_556 S
C1105  C1107   1.448   .     S
C1105  O1198   1.310   .     A
C1105  O1196   1.287   .     A
C1106  O1197   1.292   .     A
C1106  C1108   1.444   .     S
C1106  O1199   1.302   .     A
C1108  C907    1.365   1_655 S
C1108  C924    1.521   1_655 S
C1109  H1145   1.084   .     S
C1109  C1120   1.394   .     A
C1109  C1111   1.393   .     A
C1110  H1156   1.085   .     S
C1110  C1121   1.397   .     A
C1110  C1113   1.393   .     A
C1111  C1114   1.420   .     A
C1111  C1125   1.513   .     S
C1112  O1195   1.305   .     A
C1112  O1188   1.300   .     A
C1112  C1115   1.466   .     S
C1113  C1115   1.409   .     A
C1113  C1126   1.505   .     S
C1114  C1116   1.429   .     A
C1115  C1117   1.418   .     A
C1116  C1127   1.488   .     S
C1116  C1118   1.412   .     A
C1117  C1128   1.483   .     S
C1117  C1119   1.411   .     A
C1118  C1129   1.484   .     S
C1118  C1120   1.408   .     A
C1119  C1121   1.410   .     A
C1119  C1130   1.484   .     S
C1121  C820    1.473   1_565 S
C1122  H1172   1.109   .     S
C1122  H1171   1.111   .     S
C1122  C907    1.518   1_655 S
C1122  H970    1.104   1_655 S
C1123  C1138   1.425   .     A
C1123  C1131   1.516   .     S
C1124  H1146   1.105   .     S
C1124  H1174   1.105   .     S
C1125  H1147   1.111   .     S
C1125  H1148   1.103   .     S
C1125  H1149   1.111   .     S
C1126  H1150   1.103   .     S
C1126  H1152   1.110   .     S
C1126  H1151   1.111   .     S
C1127  O1178   1.398   .     S
C1127  O1200   1.223   .     D
C1128  O1179   1.222   .     D
C1128  O1180   1.392   .     S
C1129  O1182   1.397   .     S
C1130  O1184   1.397   .     S
C1130  O883    1.223   1_565 S
C1131  H1158   1.109   .     S
C1131  H1159   1.110   .     S
C1131  H1160   1.110   .     S
C1132  H1161   1.110   .     S
C1132  C1134   1.516   .     S
C1132  H1163   1.110   .     S
C1132  H1162   1.109   .     S
C1133  O1186   1.398   .     S
C1133  O1185   1.222   .     D
C1133  C1138   1.472   .     S
C1134  C1139   1.425   .     A
C1135  O1187   1.220   .     D
C1135  C1139   1.483   .     S
C1135  O1189   1.395   .     S
C1136  C1140   1.475   .     S
C1136  O1191   1.399   .     S
C1136  O1190   1.216   .     D
C1137  C1141   1.469   .     S
C1137  O1193   1.399   .     S
C1137  O1192   1.218   .     D
C1138  N1175   1.376   .     A
C1139  N1176   1.381   .     A
C1140  C1142   1.402   .     A
C1140  N1175   1.379   .     A
C1141  N1176   1.376   .     A
C1142  H1167   1.073   .     S
Cu1143 O1199   1.975   .     S
Cu1143 O1195   1.965   .     S
Cu1143 Cu1144  2.710   .     S
Cu1143 O1196   1.974   .     S
Cu1143 N1176   2.036   .     S
Cu1143 O1177   1.953   .     S
Cu1144 O1198   1.975   .     S
Cu1144 N1175   2.036   .     S
Cu1144 O1197   1.974   .     S
Cu1144 O1194   1.965   .     S
Cu1144 O1188   1.953   .     S
H1153  O1178   1.014   .     S
H1154  O1180   1.008   .     S
H1155  O882    1.014   1_565 S
H1164  O1186   1.013   .     S
H1165  O1189   1.014   .     S
H1166  O1191   1.013   .     S
H1168  O1193   1.013   .     S
H1173  C924    1.105   1_655 S
O1181  C829    1.223   1_565 S
O1184  H857    1.014   1_565 S
