data_str_m2_o1_o18_pcu_sym.5
_audit_creation_date              2020-01-03
_audit_creation_method            'Materials Studio'
_symmetry_space_group_name_H-M    'P1'
_symmetry_Int_Tables_number       1
_symmetry_cell_setting            triclinic
loop_
_symmetry_equiv_pos_as_xyz
  x,y,z
_cell_length_a                    28.7799
_cell_length_b                    32.3825
_cell_length_c                    31.6768
_cell_angle_alpha                 89.6528
_cell_angle_beta                  72.7576
_cell_angle_gamma                 89.6405
loop_
_atom_site_label
_atom_site_type_symbol
_atom_site_fract_x
_atom_site_fract_y
_atom_site_fract_z
_atom_site_U_iso_or_equiv
_atom_site_adp_type
_atom_site_occupancy
C1     C     0.00048   0.08753   0.24914   0.00000  Uiso   1.00
C2     C     0.04130   0.02045   0.22243   0.00000  Uiso   1.00
C3     C     0.33226   0.29050   0.25121   0.00000  Uiso   1.00
C4     C     0.00105   0.04287   0.24884   0.00000  Uiso   1.00
C5     C     0.18575   0.13452   0.26792   0.00000  Uiso   1.00
C6     C     0.14772   0.19866   0.23173   0.00000  Uiso   1.00
C7     C     0.13652   0.13438   0.26754   0.00000  Uiso   1.00
C8     C     0.19713   0.19862   0.23169   0.00000  Uiso   1.00
C9     C     0.30553   0.16510   0.33562   0.00000  Uiso   1.00
C10    C     0.02774   0.16494   0.16444   0.00000  Uiso   1.00
C11    C     0.28928   0.16221   0.38403   0.00000  Uiso   1.00
C12    C     0.33284   0.24582   0.25091   0.00000  Uiso   1.00
C13    C     0.04373   0.16150   0.11616   0.00000  Uiso   1.00
C14    C     0.30254   0.14697   0.45405   0.00000  Uiso   1.00
C15    C     0.03105   0.14418   0.04656   0.00000  Uiso   1.00
C16    C     0.31832   0.14431   0.40827   0.00000  Uiso   1.00
C17    C     0.01470   0.14316   0.09246   0.00000  Uiso   1.00
C18    C     0.24206   0.17587   0.40661   0.00000  Uiso   1.00
C19    C     0.09073   0.17512   0.09329   0.00000  Uiso   1.00
C20    C     0.22403   0.17310   0.45294   0.00000  Uiso   1.00
C21    C     0.10890   0.17187   0.04708   0.00000  Uiso   1.00
C22    C     0.25705   0.16317   0.47650   0.00000  Uiso   1.00
C23    C     0.19489   0.17423   0.04569   0.00000  Uiso   1.00
C24    C     0.07634   0.16052   0.02371   0.00000  Uiso   1.00
C25    C     0.17383   0.17600   0.47639   0.00000  Uiso   1.00
C26    C     0.15896   0.17611   0.02360   0.00000  Uiso   1.00
C27    C     0.24815   0.29213   0.30864   0.00000  Uiso   1.00
C28    C     0.08503   0.04128   0.19124   0.00000  Uiso   1.00
C29    C     0.13814   0.17232   0.45434   0.00000  Uiso   1.00
C30    C     0.24297   0.16630   0.02240   0.00000  Uiso   1.00
C31    C     0.09055   0.16306   0.47773   0.00000  Uiso   1.00
C32    C     0.29356   0.02250   0.27585   0.00000  Uiso   1.00
C33    C     0.03975   0.31088   0.22420   0.00000  Uiso   1.00
C34    C     0.29197   0.31294   0.27758   0.00000  Uiso   1.00
Cu35   Cu    0.04689   0.16667   0.25000   0.00000  Uiso   1.00
Cu36   Cu    0.28645   0.16666   0.25000   0.00000  Uiso   1.00
H37    H     0.26877   0.16115   0.04062   0.00000  Uiso   1.00
H38    H     0.07019   0.29312   0.20387   0.00000  Uiso   1.00
H39    H     0.19941   0.10873   0.28262   0.00000  Uiso   1.00
H40    H     0.13411   0.22433   0.21681   0.00000  Uiso   1.00
H41    H     0.11389   0.10831   0.28155   0.00000  Uiso   1.00
H42    H     0.22018   0.22426   0.21675   0.00000  Uiso   1.00
H43    H     0.26819   0.07450   0.17372   0.00000  Uiso   1.00
H44    H     0.05569   0.06413   0.33762   0.00000  Uiso   1.00
H45    H     0.22734   0.27572   0.28951   0.00000  Uiso   1.00
H46    H     0.25988   0.26987   0.33033   0.00000  Uiso   1.00
H47    H     0.22310   0.31478   0.33028   0.00000  Uiso   1.00
H48    H     0.06533   0.15677   0.45942   0.00000  Uiso   1.00
H49    H     0.10591   0.05772   0.21028   0.00000  Uiso   1.00
H50    H     0.11004   0.01863   0.16956   0.00000  Uiso   1.00
H51    H     0.07315   0.06350   0.16961   0.00000  Uiso   1.00
H52    H     0.11258   0.18867   0.11198   0.00000  Uiso   1.00
H53    H     0.21981   0.18877   0.38765   0.00000  Uiso   1.00
H54    H     0.32409   0.13282   0.47215   0.00000  Uiso   1.00
H55    H     0.00975   0.12915   0.02895   0.00000  Uiso   1.00
H56    H     0.18628   0.17388   0.08122   0.00000  Uiso   1.00
H57    H     0.14686   0.17163   0.41880   0.00000  Uiso   1.00
H58    H     0.26312   0.04027   0.29617   0.00000  Uiso   1.00
N59    N     0.11736   0.16668   0.24999   0.00000  Uiso   1.00
N60    N     0.21597   0.16666   0.25001   0.00000  Uiso   1.00
O61    O     0.03958   0.10655   0.25000   0.00000  Uiso   1.00
O62    O     0.27977   0.08913   0.08482   0.00000  Uiso   1.00
O63    O     0.30093   0.08566   0.15870   0.00000  Uiso   1.00
O64    O     0.08029   0.14372   0.36546   0.00000  Uiso   1.00
O65    O     0.04975   0.08723   0.41780   0.00000  Uiso   1.00
O66    O     0.02988   0.08554   0.34317   0.00000  Uiso   1.00
O67    O     0.29375   0.22678   0.25000   0.00000  Uiso   1.00
O68    O     0.29372   0.10654   0.25000   0.00000  Uiso   1.00
O69    O     0.03961   0.22679   0.25000   0.00000  Uiso   1.00
O70    O     0.01852   0.16668   0.31492   0.00000  Uiso   1.00
O71    O     0.31481   0.16666   0.18508   0.00000  Uiso   1.00
O72    O     0.27267   0.16667   0.31492   0.00000  Uiso   1.00
O73    O     0.06067   0.16667   0.18508   0.00000  Uiso   1.00
O74    O     0.25288   0.14632   0.13660   0.00000  Uiso   1.00
S75    S     0.29333   0.11591   0.11791   0.00000  Uiso   1.00
S76    S     0.03834   0.11493   0.38385   0.00000  Uiso   1.00
C77    C     0.33382   0.08753   0.24914   0.00000  Uiso   1.00
C78    C     0.37464   0.02045   0.22243   0.00000  Uiso   1.00
C79    C     0.66559   0.29050   0.25121   0.00000  Uiso   1.00
C80    C     0.33438   0.04287   0.24884   0.00000  Uiso   1.00
C81    C     0.51908   0.13452   0.26792   0.00000  Uiso   1.00
C82    C     0.48105   0.19866   0.23173   0.00000  Uiso   1.00
C83    C     0.46985   0.13438   0.26754   0.00000  Uiso   1.00
C84    C     0.53046   0.19862   0.23169   0.00000  Uiso   1.00
C85    C     0.63886   0.16510   0.33562   0.00000  Uiso   1.00
C86    C     0.36107   0.16494   0.16444   0.00000  Uiso   1.00
C87    C     0.62262   0.16221   0.38403   0.00000  Uiso   1.00
C88    C     0.66617   0.24582   0.25091   0.00000  Uiso   1.00
C89    C     0.37706   0.16150   0.11616   0.00000  Uiso   1.00
C90    C     0.63587   0.14697   0.45405   0.00000  Uiso   1.00
C91    C     0.36438   0.14418   0.04656   0.00000  Uiso   1.00
C92    C     0.65166   0.14431   0.40827   0.00000  Uiso   1.00
C93    C     0.34803   0.14316   0.09246   0.00000  Uiso   1.00
C94    C     0.57539   0.17587   0.40661   0.00000  Uiso   1.00
C95    C     0.42407   0.17512   0.09329   0.00000  Uiso   1.00
C96    C     0.55737   0.17310   0.45294   0.00000  Uiso   1.00
C97    C     0.44223   0.17187   0.04708   0.00000  Uiso   1.00
C98    C     0.59038   0.16317   0.47650   0.00000  Uiso   1.00
C99    C     0.52822   0.17423   0.04569   0.00000  Uiso   1.00
C100   C     0.40968   0.16052   0.02371   0.00000  Uiso   1.00
C101   C     0.50717   0.17600   0.47639   0.00000  Uiso   1.00
C102   C     0.49229   0.17611   0.02360   0.00000  Uiso   1.00
C103   C     0.58148   0.29213   0.30864   0.00000  Uiso   1.00
C104   C     0.41836   0.04128   0.19124   0.00000  Uiso   1.00
C105   C     0.47147   0.17232   0.45434   0.00000  Uiso   1.00
C106   C     0.57630   0.16630   0.02240   0.00000  Uiso   1.00
C107   C     0.42388   0.16306   0.47773   0.00000  Uiso   1.00
C108   C     0.62689   0.02250   0.27585   0.00000  Uiso   1.00
C109   C     0.37308   0.31088   0.22420   0.00000  Uiso   1.00
C110   C     0.62531   0.31294   0.27758   0.00000  Uiso   1.00
Cu111  Cu    0.38022   0.16667   0.25000   0.00000  Uiso   1.00
Cu112  Cu    0.61978   0.16666   0.25000   0.00000  Uiso   1.00
H113   H     0.60210   0.16115   0.04062   0.00000  Uiso   1.00
H114   H     0.40353   0.29312   0.20387   0.00000  Uiso   1.00
H115   H     0.53275   0.10873   0.28262   0.00000  Uiso   1.00
H116   H     0.46744   0.22433   0.21681   0.00000  Uiso   1.00
H117   H     0.44722   0.10831   0.28155   0.00000  Uiso   1.00
H118   H     0.55351   0.22426   0.21675   0.00000  Uiso   1.00
H119   H     0.60152   0.07450   0.17372   0.00000  Uiso   1.00
H120   H     0.38903   0.06413   0.33762   0.00000  Uiso   1.00
H121   H     0.56068   0.27572   0.28951   0.00000  Uiso   1.00
H122   H     0.59322   0.26987   0.33033   0.00000  Uiso   1.00
H123   H     0.55643   0.31478   0.33028   0.00000  Uiso   1.00
H124   H     0.39867   0.15677   0.45942   0.00000  Uiso   1.00
H125   H     0.43925   0.05772   0.21028   0.00000  Uiso   1.00
H126   H     0.44337   0.01863   0.16956   0.00000  Uiso   1.00
H127   H     0.40648   0.06350   0.16961   0.00000  Uiso   1.00
H128   H     0.44591   0.18867   0.11198   0.00000  Uiso   1.00
H129   H     0.55315   0.18877   0.38765   0.00000  Uiso   1.00
H130   H     0.65742   0.13282   0.47215   0.00000  Uiso   1.00
H131   H     0.34308   0.12915   0.02895   0.00000  Uiso   1.00
H132   H     0.51961   0.17388   0.08122   0.00000  Uiso   1.00
H133   H     0.48019   0.17163   0.41880   0.00000  Uiso   1.00
H134   H     0.59646   0.04027   0.29617   0.00000  Uiso   1.00
N135   N     0.45069   0.16668   0.24999   0.00000  Uiso   1.00
N136   N     0.54931   0.16666   0.25001   0.00000  Uiso   1.00
O137   O     0.37291   0.10655   0.25000   0.00000  Uiso   1.00
O138   O     0.61311   0.08913   0.08482   0.00000  Uiso   1.00
O139   O     0.63427   0.08566   0.15870   0.00000  Uiso   1.00
O140   O     0.41363   0.14372   0.36546   0.00000  Uiso   1.00
O141   O     0.38308   0.08723   0.41780   0.00000  Uiso   1.00
O142   O     0.36321   0.08554   0.34317   0.00000  Uiso   1.00
O143   O     0.62709   0.22678   0.25000   0.00000  Uiso   1.00
O144   O     0.62706   0.10654   0.25000   0.00000  Uiso   1.00
O145   O     0.37294   0.22679   0.25000   0.00000  Uiso   1.00
O146   O     0.35186   0.16668   0.31492   0.00000  Uiso   1.00
O147   O     0.64814   0.16666   0.18508   0.00000  Uiso   1.00
O148   O     0.60600   0.16667   0.31492   0.00000  Uiso   1.00
O149   O     0.39400   0.16667   0.18508   0.00000  Uiso   1.00
O150   O     0.58621   0.14632   0.13660   0.00000  Uiso   1.00
S151   S     0.62666   0.11591   0.11791   0.00000  Uiso   1.00
S152   S     0.37167   0.11493   0.38385   0.00000  Uiso   1.00
C153   C     0.66715   0.08753   0.24914   0.00000  Uiso   1.00
C154   C     0.70797   0.02045   0.22243   0.00000  Uiso   1.00
C155   C     0.99892   0.29050   0.25121   0.00000  Uiso   1.00
C156   C     0.66772   0.04287   0.24884   0.00000  Uiso   1.00
C157   C     0.85241   0.13452   0.26792   0.00000  Uiso   1.00
C158   C     0.81439   0.19866   0.23173   0.00000  Uiso   1.00
C159   C     0.80318   0.13438   0.26754   0.00000  Uiso   1.00
C160   C     0.86380   0.19862   0.23169   0.00000  Uiso   1.00
C161   C     0.97220   0.16510   0.33562   0.00000  Uiso   1.00
C162   C     0.69441   0.16494   0.16444   0.00000  Uiso   1.00
C163   C     0.95595   0.16221   0.38403   0.00000  Uiso   1.00
C164   C     0.99950   0.24582   0.25091   0.00000  Uiso   1.00
C165   C     0.71039   0.16150   0.11616   0.00000  Uiso   1.00
C166   C     0.96921   0.14697   0.45405   0.00000  Uiso   1.00
C167   C     0.69772   0.14418   0.04656   0.00000  Uiso   1.00
C168   C     0.98499   0.14431   0.40827   0.00000  Uiso   1.00
C169   C     0.68136   0.14316   0.09246   0.00000  Uiso   1.00
C170   C     0.90872   0.17587   0.40661   0.00000  Uiso   1.00
C171   C     0.75740   0.17512   0.09329   0.00000  Uiso   1.00
C172   C     0.89070   0.17310   0.45294   0.00000  Uiso   1.00
C173   C     0.77556   0.17187   0.04708   0.00000  Uiso   1.00
C174   C     0.92371   0.16317   0.47650   0.00000  Uiso   1.00
C175   C     0.86155   0.17423   0.04569   0.00000  Uiso   1.00
C176   C     0.74301   0.16052   0.02371   0.00000  Uiso   1.00
C177   C     0.84050   0.17600   0.47639   0.00000  Uiso   1.00
C178   C     0.82563   0.17611   0.02360   0.00000  Uiso   1.00
C179   C     0.91481   0.29213   0.30864   0.00000  Uiso   1.00
C180   C     0.75170   0.04128   0.19124   0.00000  Uiso   1.00
C181   C     0.80480   0.17232   0.45434   0.00000  Uiso   1.00
C182   C     0.90963   0.16630   0.02240   0.00000  Uiso   1.00
C183   C     0.75722   0.16306   0.47773   0.00000  Uiso   1.00
C184   C     0.96022   0.02250   0.27585   0.00000  Uiso   1.00
C185   C     0.70642   0.31088   0.22420   0.00000  Uiso   1.00
C186   C     0.95864   0.31294   0.27758   0.00000  Uiso   1.00
Cu187  Cu    0.71355   0.16667   0.25000   0.00000  Uiso   1.00
Cu188  Cu    0.95311   0.16666   0.25000   0.00000  Uiso   1.00
H189   H     0.93544   0.16115   0.04062   0.00000  Uiso   1.00
H190   H     0.73686   0.29312   0.20387   0.00000  Uiso   1.00
H191   H     0.86608   0.10873   0.28262   0.00000  Uiso   1.00
H192   H     0.80077   0.22433   0.21681   0.00000  Uiso   1.00
H193   H     0.78056   0.10831   0.28155   0.00000  Uiso   1.00
H194   H     0.88685   0.22426   0.21675   0.00000  Uiso   1.00
H195   H     0.93485   0.07450   0.17372   0.00000  Uiso   1.00
H196   H     0.72236   0.06413   0.33762   0.00000  Uiso   1.00
H197   H     0.89401   0.27572   0.28951   0.00000  Uiso   1.00
H198   H     0.92655   0.26987   0.33033   0.00000  Uiso   1.00
H199   H     0.88976   0.31478   0.33028   0.00000  Uiso   1.00
H200   H     0.73200   0.15677   0.45942   0.00000  Uiso   1.00
H201   H     0.77258   0.05772   0.21028   0.00000  Uiso   1.00
H202   H     0.77671   0.01863   0.16956   0.00000  Uiso   1.00
H203   H     0.73982   0.06350   0.16961   0.00000  Uiso   1.00
H204   H     0.77925   0.18867   0.11198   0.00000  Uiso   1.00
H205   H     0.88648   0.18877   0.38765   0.00000  Uiso   1.00
H206   H     0.99076   0.13282   0.47215   0.00000  Uiso   1.00
H207   H     0.67642   0.12915   0.02895   0.00000  Uiso   1.00
H208   H     0.85294   0.17388   0.08122   0.00000  Uiso   1.00
H209   H     0.81352   0.17163   0.41880   0.00000  Uiso   1.00
H210   H     0.92979   0.04027   0.29617   0.00000  Uiso   1.00
N211   N     0.78403   0.16668   0.24999   0.00000  Uiso   1.00
N212   N     0.88264   0.16666   0.25001   0.00000  Uiso   1.00
O213   O     0.70625   0.10655   0.25000   0.00000  Uiso   1.00
O214   O     0.94644   0.08913   0.08482   0.00000  Uiso   1.00
O215   O     0.96760   0.08566   0.15870   0.00000  Uiso   1.00
O216   O     0.74696   0.14372   0.36546   0.00000  Uiso   1.00
O217   O     0.71642   0.08723   0.41780   0.00000  Uiso   1.00
O218   O     0.69655   0.08554   0.34317   0.00000  Uiso   1.00
O219   O     0.96042   0.22678   0.25000   0.00000  Uiso   1.00
O220   O     0.96039   0.10654   0.25000   0.00000  Uiso   1.00
O221   O     0.70628   0.22679   0.25000   0.00000  Uiso   1.00
O222   O     0.68519   0.16668   0.31492   0.00000  Uiso   1.00
O223   O     0.98148   0.16666   0.18508   0.00000  Uiso   1.00
O224   O     0.93933   0.16667   0.31492   0.00000  Uiso   1.00
O225   O     0.72733   0.16667   0.18508   0.00000  Uiso   1.00
O226   O     0.91954   0.14632   0.13660   0.00000  Uiso   1.00
S227   S     0.96000   0.11591   0.11791   0.00000  Uiso   1.00
S228   S     0.70501   0.11493   0.38385   0.00000  Uiso   1.00
C229   C     0.00048   0.42086   0.24914   0.00000  Uiso   1.00
C230   C     0.04130   0.35378   0.22243   0.00000  Uiso   1.00
C231   C     0.33226   0.62383   0.25121   0.00000  Uiso   1.00
C232   C     0.00105   0.37620   0.24884   0.00000  Uiso   1.00
C233   C     0.18575   0.46786   0.26792   0.00000  Uiso   1.00
C234   C     0.14772   0.53199   0.23173   0.00000  Uiso   1.00
C235   C     0.13652   0.46772   0.26754   0.00000  Uiso   1.00
C236   C     0.19713   0.53196   0.23169   0.00000  Uiso   1.00
C237   C     0.30553   0.49843   0.33562   0.00000  Uiso   1.00
C238   C     0.02774   0.49828   0.16444   0.00000  Uiso   1.00
C239   C     0.28928   0.49554   0.38403   0.00000  Uiso   1.00
C240   C     0.33284   0.57915   0.25091   0.00000  Uiso   1.00
C241   C     0.04373   0.49484   0.11616   0.00000  Uiso   1.00
C242   C     0.30254   0.48031   0.45405   0.00000  Uiso   1.00
C243   C     0.03105   0.47752   0.04656   0.00000  Uiso   1.00
C244   C     0.31832   0.47765   0.40827   0.00000  Uiso   1.00
C245   C     0.01470   0.47649   0.09246   0.00000  Uiso   1.00
C246   C     0.24206   0.50920   0.40661   0.00000  Uiso   1.00
C247   C     0.09073   0.50845   0.09329   0.00000  Uiso   1.00
C248   C     0.22403   0.50643   0.45294   0.00000  Uiso   1.00
C249   C     0.10890   0.50520   0.04708   0.00000  Uiso   1.00
C250   C     0.25705   0.49651   0.47650   0.00000  Uiso   1.00
C251   C     0.19489   0.50756   0.04569   0.00000  Uiso   1.00
C252   C     0.07634   0.49385   0.02371   0.00000  Uiso   1.00
C253   C     0.17383   0.50933   0.47639   0.00000  Uiso   1.00
C254   C     0.15896   0.50944   0.02360   0.00000  Uiso   1.00
C255   C     0.24815   0.62546   0.30864   0.00000  Uiso   1.00
C256   C     0.08503   0.37461   0.19124   0.00000  Uiso   1.00
C257   C     0.13814   0.50565   0.45434   0.00000  Uiso   1.00
C258   C     0.24297   0.49964   0.02240   0.00000  Uiso   1.00
C259   C     0.09055   0.49640   0.47773   0.00000  Uiso   1.00
C260   C     0.29356   0.35583   0.27585   0.00000  Uiso   1.00
C261   C     0.03975   0.64422   0.22420   0.00000  Uiso   1.00
C262   C     0.29197   0.64627   0.27758   0.00000  Uiso   1.00
Cu263  Cu    0.04689   0.50001   0.25000   0.00000  Uiso   1.00
Cu264  Cu    0.28645   0.49999   0.25000   0.00000  Uiso   1.00
H265   H     0.26877   0.49448   0.04062   0.00000  Uiso   1.00
H266   H     0.07019   0.62646   0.20387   0.00000  Uiso   1.00
H267   H     0.19941   0.44207   0.28262   0.00000  Uiso   1.00
H268   H     0.13411   0.55767   0.21681   0.00000  Uiso   1.00
H269   H     0.11389   0.44165   0.28155   0.00000  Uiso   1.00
H270   H     0.22018   0.55759   0.21675   0.00000  Uiso   1.00
H271   H     0.26819   0.40784   0.17372   0.00000  Uiso   1.00
H272   H     0.05569   0.39746   0.33762   0.00000  Uiso   1.00
H273   H     0.22734   0.60906   0.28951   0.00000  Uiso   1.00
H274   H     0.25988   0.60320   0.33033   0.00000  Uiso   1.00
H275   H     0.22310   0.64812   0.33028   0.00000  Uiso   1.00
H276   H     0.06533   0.49010   0.45942   0.00000  Uiso   1.00
H277   H     0.10591   0.39105   0.21028   0.00000  Uiso   1.00
H278   H     0.11004   0.35196   0.16956   0.00000  Uiso   1.00
H279   H     0.07315   0.39683   0.16961   0.00000  Uiso   1.00
H280   H     0.11258   0.52200   0.11198   0.00000  Uiso   1.00
H281   H     0.21981   0.52210   0.38765   0.00000  Uiso   1.00
H282   H     0.32409   0.46616   0.47215   0.00000  Uiso   1.00
H283   H     0.00975   0.46249   0.02895   0.00000  Uiso   1.00
H284   H     0.18628   0.50722   0.08122   0.00000  Uiso   1.00
H285   H     0.14686   0.50497   0.41880   0.00000  Uiso   1.00
H286   H     0.26312   0.37361   0.29617   0.00000  Uiso   1.00
N287   N     0.11736   0.50001   0.24999   0.00000  Uiso   1.00
N288   N     0.21597   0.49999   0.25001   0.00000  Uiso   1.00
O289   O     0.03958   0.43989   0.25000   0.00000  Uiso   1.00
O290   O     0.27977   0.42246   0.08482   0.00000  Uiso   1.00
O291   O     0.30093   0.41899   0.15870   0.00000  Uiso   1.00
O292   O     0.08029   0.47705   0.36546   0.00000  Uiso   1.00
O293   O     0.04975   0.42056   0.41780   0.00000  Uiso   1.00
O294   O     0.02988   0.41887   0.34317   0.00000  Uiso   1.00
O295   O     0.29375   0.56011   0.25000   0.00000  Uiso   1.00
O296   O     0.29372   0.43988   0.25000   0.00000  Uiso   1.00
O297   O     0.03961   0.56012   0.25000   0.00000  Uiso   1.00
O298   O     0.01852   0.50001   0.31492   0.00000  Uiso   1.00
O299   O     0.31481   0.49999   0.18508   0.00000  Uiso   1.00
O300   O     0.27267   0.50000   0.31492   0.00000  Uiso   1.00
O301   O     0.06067   0.50000   0.18508   0.00000  Uiso   1.00
O302   O     0.25288   0.47965   0.13660   0.00000  Uiso   1.00
S303   S     0.29333   0.44924   0.11791   0.00000  Uiso   1.00
S304   S     0.03834   0.44826   0.38385   0.00000  Uiso   1.00
C305   C     0.33382   0.42086   0.24914   0.00000  Uiso   1.00
C306   C     0.37464   0.35378   0.22243   0.00000  Uiso   1.00
C307   C     0.66559   0.62383   0.25121   0.00000  Uiso   1.00
C308   C     0.33438   0.37620   0.24884   0.00000  Uiso   1.00
C309   C     0.51908   0.46786   0.26792   0.00000  Uiso   1.00
C310   C     0.48105   0.53199   0.23173   0.00000  Uiso   1.00
C311   C     0.46985   0.46772   0.26754   0.00000  Uiso   1.00
C312   C     0.53046   0.53196   0.23169   0.00000  Uiso   1.00
C313   C     0.63886   0.49843   0.33562   0.00000  Uiso   1.00
C314   C     0.36107   0.49828   0.16444   0.00000  Uiso   1.00
C315   C     0.62262   0.49554   0.38403   0.00000  Uiso   1.00
C316   C     0.66617   0.57915   0.25091   0.00000  Uiso   1.00
C317   C     0.37706   0.49484   0.11616   0.00000  Uiso   1.00
C318   C     0.63587   0.48031   0.45405   0.00000  Uiso   1.00
C319   C     0.36438   0.47752   0.04656   0.00000  Uiso   1.00
C320   C     0.65166   0.47765   0.40827   0.00000  Uiso   1.00
C321   C     0.34803   0.47649   0.09246   0.00000  Uiso   1.00
C322   C     0.57539   0.50920   0.40661   0.00000  Uiso   1.00
C323   C     0.42407   0.50845   0.09329   0.00000  Uiso   1.00
C324   C     0.55737   0.50643   0.45294   0.00000  Uiso   1.00
C325   C     0.44223   0.50520   0.04708   0.00000  Uiso   1.00
C326   C     0.59038   0.49651   0.47650   0.00000  Uiso   1.00
C327   C     0.52822   0.50756   0.04569   0.00000  Uiso   1.00
C328   C     0.40968   0.49385   0.02371   0.00000  Uiso   1.00
C329   C     0.50717   0.50933   0.47639   0.00000  Uiso   1.00
C330   C     0.49229   0.50944   0.02360   0.00000  Uiso   1.00
C331   C     0.58148   0.62546   0.30864   0.00000  Uiso   1.00
C332   C     0.41836   0.37461   0.19124   0.00000  Uiso   1.00
C333   C     0.47147   0.50565   0.45434   0.00000  Uiso   1.00
C334   C     0.57630   0.49964   0.02240   0.00000  Uiso   1.00
C335   C     0.42388   0.49640   0.47773   0.00000  Uiso   1.00
C336   C     0.62689   0.35583   0.27585   0.00000  Uiso   1.00
C337   C     0.37308   0.64422   0.22420   0.00000  Uiso   1.00
C338   C     0.62531   0.64627   0.27758   0.00000  Uiso   1.00
Cu339  Cu    0.38022   0.50001   0.25000   0.00000  Uiso   1.00
Cu340  Cu    0.61978   0.49999   0.25000   0.00000  Uiso   1.00
H341   H     0.60210   0.49448   0.04062   0.00000  Uiso   1.00
H342   H     0.40353   0.62646   0.20387   0.00000  Uiso   1.00
H343   H     0.53275   0.44207   0.28262   0.00000  Uiso   1.00
H344   H     0.46744   0.55767   0.21681   0.00000  Uiso   1.00
H345   H     0.44722   0.44165   0.28155   0.00000  Uiso   1.00
H346   H     0.55351   0.55759   0.21675   0.00000  Uiso   1.00
H347   H     0.60152   0.40784   0.17372   0.00000  Uiso   1.00
H348   H     0.38903   0.39746   0.33762   0.00000  Uiso   1.00
H349   H     0.56068   0.60906   0.28951   0.00000  Uiso   1.00
H350   H     0.59322   0.60320   0.33033   0.00000  Uiso   1.00
H351   H     0.55643   0.64812   0.33028   0.00000  Uiso   1.00
H352   H     0.39867   0.49010   0.45942   0.00000  Uiso   1.00
H353   H     0.43925   0.39105   0.21028   0.00000  Uiso   1.00
H354   H     0.44337   0.35196   0.16956   0.00000  Uiso   1.00
H355   H     0.40648   0.39683   0.16961   0.00000  Uiso   1.00
H356   H     0.44591   0.52200   0.11198   0.00000  Uiso   1.00
H357   H     0.55315   0.52210   0.38765   0.00000  Uiso   1.00
H358   H     0.65742   0.46616   0.47215   0.00000  Uiso   1.00
H359   H     0.34308   0.46249   0.02895   0.00000  Uiso   1.00
H360   H     0.51961   0.50722   0.08122   0.00000  Uiso   1.00
H361   H     0.48019   0.50497   0.41880   0.00000  Uiso   1.00
H362   H     0.59646   0.37361   0.29617   0.00000  Uiso   1.00
N363   N     0.45069   0.50001   0.24999   0.00000  Uiso   1.00
N364   N     0.54931   0.49999   0.25001   0.00000  Uiso   1.00
O365   O     0.37291   0.43989   0.25000   0.00000  Uiso   1.00
O366   O     0.61311   0.42246   0.08482   0.00000  Uiso   1.00
O367   O     0.63427   0.41899   0.15870   0.00000  Uiso   1.00
O368   O     0.41363   0.47705   0.36546   0.00000  Uiso   1.00
O369   O     0.38308   0.42056   0.41780   0.00000  Uiso   1.00
O370   O     0.36321   0.41887   0.34317   0.00000  Uiso   1.00
O371   O     0.62709   0.56011   0.25000   0.00000  Uiso   1.00
O372   O     0.62706   0.43988   0.25000   0.00000  Uiso   1.00
O373   O     0.37294   0.56012   0.25000   0.00000  Uiso   1.00
O374   O     0.35186   0.50001   0.31492   0.00000  Uiso   1.00
O375   O     0.64814   0.49999   0.18508   0.00000  Uiso   1.00
O376   O     0.60600   0.50000   0.31492   0.00000  Uiso   1.00
O377   O     0.39400   0.50000   0.18508   0.00000  Uiso   1.00
O378   O     0.58621   0.47965   0.13660   0.00000  Uiso   1.00
S379   S     0.62666   0.44924   0.11791   0.00000  Uiso   1.00
S380   S     0.37167   0.44826   0.38385   0.00000  Uiso   1.00
C381   C     0.66715   0.42086   0.24914   0.00000  Uiso   1.00
C382   C     0.70797   0.35378   0.22243   0.00000  Uiso   1.00
C383   C     0.99892   0.62383   0.25121   0.00000  Uiso   1.00
C384   C     0.66772   0.37620   0.24884   0.00000  Uiso   1.00
C385   C     0.85241   0.46786   0.26792   0.00000  Uiso   1.00
C386   C     0.81439   0.53199   0.23173   0.00000  Uiso   1.00
C387   C     0.80318   0.46772   0.26754   0.00000  Uiso   1.00
C388   C     0.86380   0.53196   0.23169   0.00000  Uiso   1.00
C389   C     0.97220   0.49843   0.33562   0.00000  Uiso   1.00
C390   C     0.69441   0.49828   0.16444   0.00000  Uiso   1.00
C391   C     0.95595   0.49554   0.38403   0.00000  Uiso   1.00
C392   C     0.99950   0.57915   0.25091   0.00000  Uiso   1.00
C393   C     0.71039   0.49484   0.11616   0.00000  Uiso   1.00
C394   C     0.96921   0.48031   0.45405   0.00000  Uiso   1.00
C395   C     0.69772   0.47752   0.04656   0.00000  Uiso   1.00
C396   C     0.98499   0.47765   0.40827   0.00000  Uiso   1.00
C397   C     0.68136   0.47649   0.09246   0.00000  Uiso   1.00
C398   C     0.90872   0.50920   0.40661   0.00000  Uiso   1.00
C399   C     0.75740   0.50845   0.09329   0.00000  Uiso   1.00
C400   C     0.89070   0.50643   0.45294   0.00000  Uiso   1.00
C401   C     0.77556   0.50520   0.04708   0.00000  Uiso   1.00
C402   C     0.92371   0.49651   0.47650   0.00000  Uiso   1.00
C403   C     0.86155   0.50756   0.04569   0.00000  Uiso   1.00
C404   C     0.74301   0.49385   0.02371   0.00000  Uiso   1.00
C405   C     0.84050   0.50933   0.47639   0.00000  Uiso   1.00
C406   C     0.82563   0.50944   0.02360   0.00000  Uiso   1.00
C407   C     0.91481   0.62546   0.30864   0.00000  Uiso   1.00
C408   C     0.75170   0.37461   0.19124   0.00000  Uiso   1.00
C409   C     0.80480   0.50565   0.45434   0.00000  Uiso   1.00
C410   C     0.90963   0.49964   0.02240   0.00000  Uiso   1.00
C411   C     0.75722   0.49640   0.47773   0.00000  Uiso   1.00
C412   C     0.96022   0.35583   0.27585   0.00000  Uiso   1.00
C413   C     0.70642   0.64422   0.22420   0.00000  Uiso   1.00
C414   C     0.95864   0.64627   0.27758   0.00000  Uiso   1.00
Cu415  Cu    0.71355   0.50001   0.25000   0.00000  Uiso   1.00
Cu416  Cu    0.95311   0.49999   0.25000   0.00000  Uiso   1.00
H417   H     0.93544   0.49448   0.04062   0.00000  Uiso   1.00
H418   H     0.73686   0.62646   0.20387   0.00000  Uiso   1.00
H419   H     0.86608   0.44207   0.28262   0.00000  Uiso   1.00
H420   H     0.80077   0.55767   0.21681   0.00000  Uiso   1.00
H421   H     0.78056   0.44165   0.28155   0.00000  Uiso   1.00
H422   H     0.88685   0.55759   0.21675   0.00000  Uiso   1.00
H423   H     0.93485   0.40784   0.17372   0.00000  Uiso   1.00
H424   H     0.72236   0.39746   0.33762   0.00000  Uiso   1.00
H425   H     0.89401   0.60906   0.28951   0.00000  Uiso   1.00
H426   H     0.92655   0.60320   0.33033   0.00000  Uiso   1.00
H427   H     0.88976   0.64812   0.33028   0.00000  Uiso   1.00
H428   H     0.73200   0.49010   0.45942   0.00000  Uiso   1.00
H429   H     0.77258   0.39105   0.21028   0.00000  Uiso   1.00
H430   H     0.77671   0.35196   0.16956   0.00000  Uiso   1.00
H431   H     0.73982   0.39683   0.16961   0.00000  Uiso   1.00
H432   H     0.77925   0.52200   0.11198   0.00000  Uiso   1.00
H433   H     0.88648   0.52210   0.38765   0.00000  Uiso   1.00
H434   H     0.99076   0.46616   0.47215   0.00000  Uiso   1.00
H435   H     0.67642   0.46249   0.02895   0.00000  Uiso   1.00
H436   H     0.85294   0.50722   0.08122   0.00000  Uiso   1.00
H437   H     0.81352   0.50497   0.41880   0.00000  Uiso   1.00
H438   H     0.92979   0.37361   0.29617   0.00000  Uiso   1.00
N439   N     0.78403   0.50001   0.24999   0.00000  Uiso   1.00
N440   N     0.88264   0.49999   0.25001   0.00000  Uiso   1.00
O441   O     0.70625   0.43989   0.25000   0.00000  Uiso   1.00
O442   O     0.94644   0.42246   0.08482   0.00000  Uiso   1.00
O443   O     0.96760   0.41899   0.15870   0.00000  Uiso   1.00
O444   O     0.74696   0.47705   0.36546   0.00000  Uiso   1.00
O445   O     0.71642   0.42056   0.41780   0.00000  Uiso   1.00
O446   O     0.69655   0.41887   0.34317   0.00000  Uiso   1.00
O447   O     0.96042   0.56011   0.25000   0.00000  Uiso   1.00
O448   O     0.96039   0.43988   0.25000   0.00000  Uiso   1.00
O449   O     0.70628   0.56012   0.25000   0.00000  Uiso   1.00
O450   O     0.68519   0.50001   0.31492   0.00000  Uiso   1.00
O451   O     0.98148   0.49999   0.18508   0.00000  Uiso   1.00
O452   O     0.93933   0.50000   0.31492   0.00000  Uiso   1.00
O453   O     0.72733   0.50000   0.18508   0.00000  Uiso   1.00
O454   O     0.91954   0.47965   0.13660   0.00000  Uiso   1.00
S455   S     0.96000   0.44924   0.11791   0.00000  Uiso   1.00
S456   S     0.70501   0.44826   0.38385   0.00000  Uiso   1.00
C457   C     0.00048   0.75419   0.24914   0.00000  Uiso   1.00
C458   C     0.04130   0.68711   0.22243   0.00000  Uiso   1.00
C459   C     0.33226   0.95716   0.25121   0.00000  Uiso   1.00
C460   C     0.00105   0.70954   0.24884   0.00000  Uiso   1.00
C461   C     0.18575   0.80119   0.26792   0.00000  Uiso   1.00
C462   C     0.14772   0.86533   0.23173   0.00000  Uiso   1.00
C463   C     0.13652   0.80105   0.26754   0.00000  Uiso   1.00
C464   C     0.19713   0.86529   0.23169   0.00000  Uiso   1.00
C465   C     0.30553   0.83176   0.33562   0.00000  Uiso   1.00
C466   C     0.02774   0.83161   0.16444   0.00000  Uiso   1.00
C467   C     0.28928   0.82888   0.38403   0.00000  Uiso   1.00
C468   C     0.33284   0.91248   0.25091   0.00000  Uiso   1.00
C469   C     0.04373   0.82817   0.11616   0.00000  Uiso   1.00
C470   C     0.30254   0.81364   0.45405   0.00000  Uiso   1.00
C471   C     0.03105   0.81085   0.04656   0.00000  Uiso   1.00
C472   C     0.31832   0.81098   0.40827   0.00000  Uiso   1.00
C473   C     0.01470   0.80982   0.09246   0.00000  Uiso   1.00
C474   C     0.24206   0.84254   0.40661   0.00000  Uiso   1.00
C475   C     0.09073   0.84179   0.09329   0.00000  Uiso   1.00
C476   C     0.22403   0.83976   0.45294   0.00000  Uiso   1.00
C477   C     0.10890   0.83854   0.04708   0.00000  Uiso   1.00
C478   C     0.25705   0.82984   0.47650   0.00000  Uiso   1.00
C479   C     0.19489   0.84090   0.04569   0.00000  Uiso   1.00
C480   C     0.07634   0.82718   0.02371   0.00000  Uiso   1.00
C481   C     0.17383   0.84267   0.47639   0.00000  Uiso   1.00
C482   C     0.15896   0.84278   0.02360   0.00000  Uiso   1.00
C483   C     0.24815   0.95879   0.30864   0.00000  Uiso   1.00
C484   C     0.08503   0.70794   0.19124   0.00000  Uiso   1.00
C485   C     0.13814   0.83899   0.45434   0.00000  Uiso   1.00
C486   C     0.24297   0.83297   0.02240   0.00000  Uiso   1.00
C487   C     0.09055   0.82973   0.47773   0.00000  Uiso   1.00
C488   C     0.29356   0.68917   0.27585   0.00000  Uiso   1.00
C489   C     0.03975   0.97755   0.22420   0.00000  Uiso   1.00
C490   C     0.29197   0.97960   0.27758   0.00000  Uiso   1.00
Cu491  Cu    0.04689   0.83334   0.25000   0.00000  Uiso   1.00
Cu492  Cu    0.28645   0.83333   0.25000   0.00000  Uiso   1.00
H493   H     0.26877   0.82781   0.04062   0.00000  Uiso   1.00
H494   H     0.07019   0.95979   0.20387   0.00000  Uiso   1.00
H495   H     0.19941   0.77540   0.28262   0.00000  Uiso   1.00
H496   H     0.13411   0.89100   0.21681   0.00000  Uiso   1.00
H497   H     0.11389   0.77498   0.28155   0.00000  Uiso   1.00
H498   H     0.22018   0.89092   0.21675   0.00000  Uiso   1.00
H499   H     0.26819   0.74117   0.17372   0.00000  Uiso   1.00
H500   H     0.05569   0.73079   0.33762   0.00000  Uiso   1.00
H501   H     0.22734   0.94239   0.28951   0.00000  Uiso   1.00
H502   H     0.25988   0.93654   0.33033   0.00000  Uiso   1.00
H503   H     0.22310   0.98145   0.33028   0.00000  Uiso   1.00
H504   H     0.06533   0.82344   0.45942   0.00000  Uiso   1.00
H505   H     0.10591   0.72439   0.21028   0.00000  Uiso   1.00
H506   H     0.11004   0.68530   0.16956   0.00000  Uiso   1.00
H507   H     0.07315   0.73017   0.16961   0.00000  Uiso   1.00
H508   H     0.11258   0.85533   0.11198   0.00000  Uiso   1.00
H509   H     0.21981   0.85544   0.38765   0.00000  Uiso   1.00
H510   H     0.32409   0.79949   0.47215   0.00000  Uiso   1.00
H511   H     0.00975   0.79582   0.02895   0.00000  Uiso   1.00
H512   H     0.18628   0.84055   0.08122   0.00000  Uiso   1.00
H513   H     0.14686   0.83830   0.41880   0.00000  Uiso   1.00
H514   H     0.26312   0.70694   0.29617   0.00000  Uiso   1.00
N515   N     0.11736   0.83334   0.24999   0.00000  Uiso   1.00
N516   N     0.21597   0.83332   0.25001   0.00000  Uiso   1.00
O517   O     0.03958   0.77322   0.25000   0.00000  Uiso   1.00
O518   O     0.27977   0.75579   0.08482   0.00000  Uiso   1.00
O519   O     0.30093   0.75232   0.15870   0.00000  Uiso   1.00
O520   O     0.08029   0.81038   0.36546   0.00000  Uiso   1.00
O521   O     0.04975   0.75390   0.41780   0.00000  Uiso   1.00
O522   O     0.02988   0.75220   0.34317   0.00000  Uiso   1.00
O523   O     0.29375   0.89345   0.25000   0.00000  Uiso   1.00
O524   O     0.29372   0.77321   0.25000   0.00000  Uiso   1.00
O525   O     0.03961   0.89346   0.25000   0.00000  Uiso   1.00
O526   O     0.01852   0.83334   0.31492   0.00000  Uiso   1.00
O527   O     0.31481   0.83332   0.18508   0.00000  Uiso   1.00
O528   O     0.27267   0.83333   0.31492   0.00000  Uiso   1.00
O529   O     0.06067   0.83333   0.18508   0.00000  Uiso   1.00
O530   O     0.25288   0.81299   0.13660   0.00000  Uiso   1.00
S531   S     0.29333   0.78257   0.11791   0.00000  Uiso   1.00
S532   S     0.03834   0.78160   0.38385   0.00000  Uiso   1.00
C533   C     0.33382   0.75419   0.24914   0.00000  Uiso   1.00
C534   C     0.37464   0.68711   0.22243   0.00000  Uiso   1.00
C535   C     0.66559   0.95716   0.25121   0.00000  Uiso   1.00
C536   C     0.33438   0.70954   0.24884   0.00000  Uiso   1.00
C537   C     0.51908   0.80119   0.26792   0.00000  Uiso   1.00
C538   C     0.48105   0.86533   0.23173   0.00000  Uiso   1.00
C539   C     0.46985   0.80105   0.26754   0.00000  Uiso   1.00
C540   C     0.53046   0.86529   0.23169   0.00000  Uiso   1.00
C541   C     0.63886   0.83176   0.33562   0.00000  Uiso   1.00
C542   C     0.36107   0.83161   0.16444   0.00000  Uiso   1.00
C543   C     0.62262   0.82888   0.38403   0.00000  Uiso   1.00
C544   C     0.66617   0.91248   0.25091   0.00000  Uiso   1.00
C545   C     0.37706   0.82817   0.11616   0.00000  Uiso   1.00
C546   C     0.63587   0.81364   0.45405   0.00000  Uiso   1.00
C547   C     0.36438   0.81085   0.04656   0.00000  Uiso   1.00
C548   C     0.65166   0.81098   0.40827   0.00000  Uiso   1.00
C549   C     0.34803   0.80982   0.09246   0.00000  Uiso   1.00
C550   C     0.57539   0.84254   0.40661   0.00000  Uiso   1.00
C551   C     0.42407   0.84179   0.09329   0.00000  Uiso   1.00
C552   C     0.55737   0.83976   0.45294   0.00000  Uiso   1.00
C553   C     0.44223   0.83854   0.04708   0.00000  Uiso   1.00
C554   C     0.59038   0.82984   0.47650   0.00000  Uiso   1.00
C555   C     0.52822   0.84090   0.04569   0.00000  Uiso   1.00
C556   C     0.40968   0.82718   0.02371   0.00000  Uiso   1.00
C557   C     0.50717   0.84267   0.47639   0.00000  Uiso   1.00
C558   C     0.49229   0.84278   0.02360   0.00000  Uiso   1.00
C559   C     0.58148   0.95879   0.30864   0.00000  Uiso   1.00
C560   C     0.41836   0.70794   0.19124   0.00000  Uiso   1.00
C561   C     0.47147   0.83899   0.45434   0.00000  Uiso   1.00
C562   C     0.57630   0.83297   0.02240   0.00000  Uiso   1.00
C563   C     0.42388   0.82973   0.47773   0.00000  Uiso   1.00
C564   C     0.62689   0.68917   0.27585   0.00000  Uiso   1.00
C565   C     0.37308   0.97755   0.22420   0.00000  Uiso   1.00
C566   C     0.62531   0.97960   0.27758   0.00000  Uiso   1.00
Cu567  Cu    0.38022   0.83334   0.25000   0.00000  Uiso   1.00
Cu568  Cu    0.61978   0.83333   0.25000   0.00000  Uiso   1.00
H569   H     0.60210   0.82781   0.04062   0.00000  Uiso   1.00
H570   H     0.40353   0.95979   0.20387   0.00000  Uiso   1.00
H571   H     0.53275   0.77540   0.28262   0.00000  Uiso   1.00
H572   H     0.46744   0.89100   0.21681   0.00000  Uiso   1.00
H573   H     0.44722   0.77498   0.28155   0.00000  Uiso   1.00
H574   H     0.55351   0.89092   0.21675   0.00000  Uiso   1.00
H575   H     0.60152   0.74117   0.17372   0.00000  Uiso   1.00
H576   H     0.38903   0.73079   0.33762   0.00000  Uiso   1.00
H577   H     0.56068   0.94239   0.28951   0.00000  Uiso   1.00
H578   H     0.59322   0.93654   0.33033   0.00000  Uiso   1.00
H579   H     0.55643   0.98145   0.33028   0.00000  Uiso   1.00
H580   H     0.39867   0.82344   0.45942   0.00000  Uiso   1.00
H581   H     0.43925   0.72439   0.21028   0.00000  Uiso   1.00
H582   H     0.44337   0.68530   0.16956   0.00000  Uiso   1.00
H583   H     0.40648   0.73017   0.16961   0.00000  Uiso   1.00
H584   H     0.44591   0.85533   0.11198   0.00000  Uiso   1.00
H585   H     0.55315   0.85544   0.38765   0.00000  Uiso   1.00
H586   H     0.65742   0.79949   0.47215   0.00000  Uiso   1.00
H587   H     0.34308   0.79582   0.02895   0.00000  Uiso   1.00
H588   H     0.51961   0.84055   0.08122   0.00000  Uiso   1.00
H589   H     0.48019   0.83830   0.41880   0.00000  Uiso   1.00
H590   H     0.59646   0.70694   0.29617   0.00000  Uiso   1.00
N591   N     0.45069   0.83334   0.24999   0.00000  Uiso   1.00
N592   N     0.54931   0.83332   0.25001   0.00000  Uiso   1.00
O593   O     0.37291   0.77322   0.25000   0.00000  Uiso   1.00
O594   O     0.61311   0.75579   0.08482   0.00000  Uiso   1.00
O595   O     0.63427   0.75232   0.15870   0.00000  Uiso   1.00
O596   O     0.41363   0.81038   0.36546   0.00000  Uiso   1.00
O597   O     0.38308   0.75390   0.41780   0.00000  Uiso   1.00
O598   O     0.36321   0.75220   0.34317   0.00000  Uiso   1.00
O599   O     0.62709   0.89345   0.25000   0.00000  Uiso   1.00
O600   O     0.62706   0.77321   0.25000   0.00000  Uiso   1.00
O601   O     0.37294   0.89346   0.25000   0.00000  Uiso   1.00
O602   O     0.35186   0.83334   0.31492   0.00000  Uiso   1.00
O603   O     0.64814   0.83332   0.18508   0.00000  Uiso   1.00
O604   O     0.60600   0.83333   0.31492   0.00000  Uiso   1.00
O605   O     0.39400   0.83333   0.18508   0.00000  Uiso   1.00
O606   O     0.58621   0.81299   0.13660   0.00000  Uiso   1.00
S607   S     0.62666   0.78257   0.11791   0.00000  Uiso   1.00
S608   S     0.37167   0.78160   0.38385   0.00000  Uiso   1.00
C609   C     0.66715   0.75419   0.24914   0.00000  Uiso   1.00
C610   C     0.70797   0.68711   0.22243   0.00000  Uiso   1.00
C611   C     0.99892   0.95716   0.25121   0.00000  Uiso   1.00
C612   C     0.66772   0.70954   0.24884   0.00000  Uiso   1.00
C613   C     0.85241   0.80119   0.26792   0.00000  Uiso   1.00
C614   C     0.81439   0.86533   0.23173   0.00000  Uiso   1.00
C615   C     0.80318   0.80105   0.26754   0.00000  Uiso   1.00
C616   C     0.86380   0.86529   0.23169   0.00000  Uiso   1.00
C617   C     0.97220   0.83176   0.33562   0.00000  Uiso   1.00
C618   C     0.69441   0.83161   0.16444   0.00000  Uiso   1.00
C619   C     0.95595   0.82888   0.38403   0.00000  Uiso   1.00
C620   C     0.99950   0.91248   0.25091   0.00000  Uiso   1.00
C621   C     0.71039   0.82817   0.11616   0.00000  Uiso   1.00
C622   C     0.96921   0.81364   0.45405   0.00000  Uiso   1.00
C623   C     0.69772   0.81085   0.04656   0.00000  Uiso   1.00
C624   C     0.98499   0.81098   0.40827   0.00000  Uiso   1.00
C625   C     0.68136   0.80982   0.09246   0.00000  Uiso   1.00
C626   C     0.90872   0.84254   0.40661   0.00000  Uiso   1.00
C627   C     0.75740   0.84179   0.09329   0.00000  Uiso   1.00
C628   C     0.89070   0.83976   0.45294   0.00000  Uiso   1.00
C629   C     0.77556   0.83854   0.04708   0.00000  Uiso   1.00
C630   C     0.92371   0.82984   0.47650   0.00000  Uiso   1.00
C631   C     0.86155   0.84090   0.04569   0.00000  Uiso   1.00
C632   C     0.74301   0.82718   0.02371   0.00000  Uiso   1.00
C633   C     0.84050   0.84267   0.47639   0.00000  Uiso   1.00
C634   C     0.82563   0.84278   0.02360   0.00000  Uiso   1.00
C635   C     0.91481   0.95879   0.30864   0.00000  Uiso   1.00
C636   C     0.75170   0.70794   0.19124   0.00000  Uiso   1.00
C637   C     0.80480   0.83899   0.45434   0.00000  Uiso   1.00
C638   C     0.90963   0.83297   0.02240   0.00000  Uiso   1.00
C639   C     0.75722   0.82973   0.47773   0.00000  Uiso   1.00
C640   C     0.96022   0.68917   0.27585   0.00000  Uiso   1.00
C641   C     0.70642   0.97755   0.22420   0.00000  Uiso   1.00
C642   C     0.95864   0.97960   0.27758   0.00000  Uiso   1.00
Cu643  Cu    0.71355   0.83334   0.25000   0.00000  Uiso   1.00
Cu644  Cu    0.95311   0.83333   0.25000   0.00000  Uiso   1.00
H645   H     0.93544   0.82781   0.04062   0.00000  Uiso   1.00
H646   H     0.73686   0.95979   0.20387   0.00000  Uiso   1.00
H647   H     0.86608   0.77540   0.28262   0.00000  Uiso   1.00
H648   H     0.80077   0.89100   0.21681   0.00000  Uiso   1.00
H649   H     0.78056   0.77498   0.28155   0.00000  Uiso   1.00
H650   H     0.88685   0.89092   0.21675   0.00000  Uiso   1.00
H651   H     0.93485   0.74117   0.17372   0.00000  Uiso   1.00
H652   H     0.72236   0.73079   0.33762   0.00000  Uiso   1.00
H653   H     0.89401   0.94239   0.28951   0.00000  Uiso   1.00
H654   H     0.92655   0.93654   0.33033   0.00000  Uiso   1.00
H655   H     0.88976   0.98145   0.33028   0.00000  Uiso   1.00
H656   H     0.73200   0.82344   0.45942   0.00000  Uiso   1.00
H657   H     0.77258   0.72439   0.21028   0.00000  Uiso   1.00
H658   H     0.77671   0.68530   0.16956   0.00000  Uiso   1.00
H659   H     0.73982   0.73017   0.16961   0.00000  Uiso   1.00
H660   H     0.77925   0.85533   0.11198   0.00000  Uiso   1.00
H661   H     0.88648   0.85544   0.38765   0.00000  Uiso   1.00
H662   H     0.99076   0.79949   0.47215   0.00000  Uiso   1.00
H663   H     0.67642   0.79582   0.02895   0.00000  Uiso   1.00
H664   H     0.85294   0.84055   0.08122   0.00000  Uiso   1.00
H665   H     0.81352   0.83830   0.41880   0.00000  Uiso   1.00
H666   H     0.92979   0.70694   0.29617   0.00000  Uiso   1.00
N667   N     0.78403   0.83334   0.24999   0.00000  Uiso   1.00
N668   N     0.88264   0.83332   0.25001   0.00000  Uiso   1.00
O669   O     0.70625   0.77322   0.25000   0.00000  Uiso   1.00
O670   O     0.94644   0.75579   0.08482   0.00000  Uiso   1.00
O671   O     0.96760   0.75232   0.15870   0.00000  Uiso   1.00
O672   O     0.74696   0.81038   0.36546   0.00000  Uiso   1.00
O673   O     0.71642   0.75390   0.41780   0.00000  Uiso   1.00
O674   O     0.69655   0.75220   0.34317   0.00000  Uiso   1.00
O675   O     0.96042   0.89345   0.25000   0.00000  Uiso   1.00
O676   O     0.96039   0.77321   0.25000   0.00000  Uiso   1.00
O677   O     0.70628   0.89346   0.25000   0.00000  Uiso   1.00
O678   O     0.68519   0.83334   0.31492   0.00000  Uiso   1.00
O679   O     0.98148   0.83332   0.18508   0.00000  Uiso   1.00
O680   O     0.93933   0.83333   0.31492   0.00000  Uiso   1.00
O681   O     0.72733   0.83333   0.18508   0.00000  Uiso   1.00
O682   O     0.91954   0.81299   0.13660   0.00000  Uiso   1.00
S683   S     0.96000   0.78257   0.11791   0.00000  Uiso   1.00
S684   S     0.70501   0.78160   0.38385   0.00000  Uiso   1.00
C685   C     0.00048   0.08753   0.74914   0.00000  Uiso   1.00
C686   C     0.04130   0.02045   0.72243   0.00000  Uiso   1.00
C687   C     0.33226   0.29050   0.75121   0.00000  Uiso   1.00
C688   C     0.00105   0.04287   0.74884   0.00000  Uiso   1.00
C689   C     0.18575   0.13452   0.76792   0.00000  Uiso   1.00
C690   C     0.14772   0.19866   0.73173   0.00000  Uiso   1.00
C691   C     0.13652   0.13438   0.76754   0.00000  Uiso   1.00
C692   C     0.19713   0.19862   0.73169   0.00000  Uiso   1.00
C693   C     0.30553   0.16510   0.83562   0.00000  Uiso   1.00
C694   C     0.02774   0.16494   0.66444   0.00000  Uiso   1.00
C695   C     0.28928   0.16221   0.88403   0.00000  Uiso   1.00
C696   C     0.33284   0.24582   0.75091   0.00000  Uiso   1.00
C697   C     0.04373   0.16150   0.61616   0.00000  Uiso   1.00
C698   C     0.30254   0.14697   0.95405   0.00000  Uiso   1.00
C699   C     0.03105   0.14418   0.54656   0.00000  Uiso   1.00
C700   C     0.31832   0.14431   0.90827   0.00000  Uiso   1.00
C701   C     0.01470   0.14316   0.59246   0.00000  Uiso   1.00
C702   C     0.24206   0.17587   0.90661   0.00000  Uiso   1.00
C703   C     0.09073   0.17512   0.59329   0.00000  Uiso   1.00
C704   C     0.22403   0.17310   0.95294   0.00000  Uiso   1.00
C705   C     0.10890   0.17187   0.54708   0.00000  Uiso   1.00
C706   C     0.25705   0.16317   0.97650   0.00000  Uiso   1.00
C707   C     0.19489   0.17423   0.54569   0.00000  Uiso   1.00
C708   C     0.07634   0.16052   0.52371   0.00000  Uiso   1.00
C709   C     0.17383   0.17600   0.97639   0.00000  Uiso   1.00
C710   C     0.15896   0.17611   0.52360   0.00000  Uiso   1.00
C711   C     0.24815   0.29213   0.80864   0.00000  Uiso   1.00
C712   C     0.08503   0.04128   0.69124   0.00000  Uiso   1.00
C713   C     0.13814   0.17232   0.95434   0.00000  Uiso   1.00
C714   C     0.24297   0.16630   0.52240   0.00000  Uiso   1.00
C715   C     0.09055   0.16306   0.97773   0.00000  Uiso   1.00
C716   C     0.29356   0.02250   0.77585   0.00000  Uiso   1.00
C717   C     0.03975   0.31088   0.72420   0.00000  Uiso   1.00
C718   C     0.29197   0.31294   0.77758   0.00000  Uiso   1.00
Cu719  Cu    0.04689   0.16667   0.75000   0.00000  Uiso   1.00
Cu720  Cu    0.28645   0.16666   0.75000   0.00000  Uiso   1.00
H721   H     0.26877   0.16115   0.54062   0.00000  Uiso   1.00
H722   H     0.07019   0.29312   0.70387   0.00000  Uiso   1.00
H723   H     0.19941   0.10873   0.78262   0.00000  Uiso   1.00
H724   H     0.13411   0.22433   0.71681   0.00000  Uiso   1.00
H725   H     0.11389   0.10831   0.78155   0.00000  Uiso   1.00
H726   H     0.22018   0.22426   0.71675   0.00000  Uiso   1.00
H727   H     0.26819   0.07450   0.67372   0.00000  Uiso   1.00
H728   H     0.05569   0.06413   0.83762   0.00000  Uiso   1.00
H729   H     0.22734   0.27572   0.78951   0.00000  Uiso   1.00
H730   H     0.25988   0.26987   0.83033   0.00000  Uiso   1.00
H731   H     0.22310   0.31478   0.83028   0.00000  Uiso   1.00
H732   H     0.06533   0.15677   0.95942   0.00000  Uiso   1.00
H733   H     0.10591   0.05772   0.71028   0.00000  Uiso   1.00
H734   H     0.11004   0.01863   0.66956   0.00000  Uiso   1.00
H735   H     0.07315   0.06350   0.66961   0.00000  Uiso   1.00
H736   H     0.11258   0.18867   0.61198   0.00000  Uiso   1.00
H737   H     0.21981   0.18877   0.88765   0.00000  Uiso   1.00
H738   H     0.32409   0.13282   0.97215   0.00000  Uiso   1.00
H739   H     0.00975   0.12915   0.52895   0.00000  Uiso   1.00
H740   H     0.18628   0.17388   0.58122   0.00000  Uiso   1.00
H741   H     0.14686   0.17163   0.91880   0.00000  Uiso   1.00
H742   H     0.26312   0.04027   0.79617   0.00000  Uiso   1.00
N743   N     0.11736   0.16668   0.74999   0.00000  Uiso   1.00
N744   N     0.21597   0.16666   0.75001   0.00000  Uiso   1.00
O745   O     0.03958   0.10655   0.75000   0.00000  Uiso   1.00
O746   O     0.27977   0.08913   0.58482   0.00000  Uiso   1.00
O747   O     0.30093   0.08566   0.65870   0.00000  Uiso   1.00
O748   O     0.08029   0.14372   0.86546   0.00000  Uiso   1.00
O749   O     0.04975   0.08723   0.91780   0.00000  Uiso   1.00
O750   O     0.02988   0.08554   0.84317   0.00000  Uiso   1.00
O751   O     0.29375   0.22678   0.75000   0.00000  Uiso   1.00
O752   O     0.29372   0.10654   0.75000   0.00000  Uiso   1.00
O753   O     0.03961   0.22679   0.75000   0.00000  Uiso   1.00
O754   O     0.01852   0.16668   0.81492   0.00000  Uiso   1.00
O755   O     0.31481   0.16666   0.68508   0.00000  Uiso   1.00
O756   O     0.27267   0.16667   0.81492   0.00000  Uiso   1.00
O757   O     0.06067   0.16667   0.68508   0.00000  Uiso   1.00
O758   O     0.25288   0.14632   0.63660   0.00000  Uiso   1.00
S759   S     0.29333   0.11591   0.61791   0.00000  Uiso   1.00
S760   S     0.03834   0.11493   0.88385   0.00000  Uiso   1.00
C761   C     0.33382   0.08753   0.74914   0.00000  Uiso   1.00
C762   C     0.37464   0.02045   0.72243   0.00000  Uiso   1.00
C763   C     0.66559   0.29050   0.75121   0.00000  Uiso   1.00
C764   C     0.33438   0.04287   0.74884   0.00000  Uiso   1.00
C765   C     0.51908   0.13452   0.76792   0.00000  Uiso   1.00
C766   C     0.48105   0.19866   0.73173   0.00000  Uiso   1.00
C767   C     0.46985   0.13438   0.76754   0.00000  Uiso   1.00
C768   C     0.53046   0.19862   0.73169   0.00000  Uiso   1.00
C769   C     0.63886   0.16510   0.83562   0.00000  Uiso   1.00
C770   C     0.36107   0.16494   0.66444   0.00000  Uiso   1.00
C771   C     0.62262   0.16221   0.88403   0.00000  Uiso   1.00
C772   C     0.66617   0.24582   0.75091   0.00000  Uiso   1.00
C773   C     0.37706   0.16150   0.61616   0.00000  Uiso   1.00
C774   C     0.63587   0.14697   0.95405   0.00000  Uiso   1.00
C775   C     0.36438   0.14418   0.54656   0.00000  Uiso   1.00
C776   C     0.65166   0.14431   0.90827   0.00000  Uiso   1.00
C777   C     0.34803   0.14316   0.59246   0.00000  Uiso   1.00
C778   C     0.57539   0.17587   0.90661   0.00000  Uiso   1.00
C779   C     0.42407   0.17512   0.59329   0.00000  Uiso   1.00
C780   C     0.55737   0.17310   0.95294   0.00000  Uiso   1.00
C781   C     0.44223   0.17187   0.54708   0.00000  Uiso   1.00
C782   C     0.59038   0.16317   0.97650   0.00000  Uiso   1.00
C783   C     0.52822   0.17423   0.54569   0.00000  Uiso   1.00
C784   C     0.40968   0.16052   0.52371   0.00000  Uiso   1.00
C785   C     0.50717   0.17600   0.97639   0.00000  Uiso   1.00
C786   C     0.49229   0.17611   0.52360   0.00000  Uiso   1.00
C787   C     0.58148   0.29213   0.80864   0.00000  Uiso   1.00
C788   C     0.41836   0.04128   0.69124   0.00000  Uiso   1.00
C789   C     0.47147   0.17232   0.95434   0.00000  Uiso   1.00
C790   C     0.57630   0.16630   0.52240   0.00000  Uiso   1.00
C791   C     0.42388   0.16306   0.97773   0.00000  Uiso   1.00
C792   C     0.62689   0.02250   0.77585   0.00000  Uiso   1.00
C793   C     0.37308   0.31088   0.72420   0.00000  Uiso   1.00
C794   C     0.62531   0.31294   0.77758   0.00000  Uiso   1.00
Cu795  Cu    0.38022   0.16667   0.75000   0.00000  Uiso   1.00
Cu796  Cu    0.61978   0.16666   0.75000   0.00000  Uiso   1.00
H797   H     0.60210   0.16115   0.54062   0.00000  Uiso   1.00
H798   H     0.40353   0.29312   0.70387   0.00000  Uiso   1.00
H799   H     0.53275   0.10873   0.78262   0.00000  Uiso   1.00
H800   H     0.46744   0.22433   0.71681   0.00000  Uiso   1.00
H801   H     0.44722   0.10831   0.78155   0.00000  Uiso   1.00
H802   H     0.55351   0.22426   0.71675   0.00000  Uiso   1.00
H803   H     0.60152   0.07450   0.67372   0.00000  Uiso   1.00
H804   H     0.38903   0.06413   0.83762   0.00000  Uiso   1.00
H805   H     0.56068   0.27572   0.78951   0.00000  Uiso   1.00
H806   H     0.59322   0.26987   0.83033   0.00000  Uiso   1.00
H807   H     0.55643   0.31478   0.83028   0.00000  Uiso   1.00
H808   H     0.39867   0.15677   0.95942   0.00000  Uiso   1.00
H809   H     0.43925   0.05772   0.71028   0.00000  Uiso   1.00
H810   H     0.44337   0.01863   0.66956   0.00000  Uiso   1.00
H811   H     0.40648   0.06350   0.66961   0.00000  Uiso   1.00
H812   H     0.44591   0.18867   0.61198   0.00000  Uiso   1.00
H813   H     0.55315   0.18877   0.88765   0.00000  Uiso   1.00
H814   H     0.65742   0.13282   0.97215   0.00000  Uiso   1.00
H815   H     0.34308   0.12915   0.52895   0.00000  Uiso   1.00
H816   H     0.51961   0.17388   0.58122   0.00000  Uiso   1.00
H817   H     0.48019   0.17163   0.91880   0.00000  Uiso   1.00
H818   H     0.59646   0.04027   0.79617   0.00000  Uiso   1.00
N819   N     0.45069   0.16668   0.74999   0.00000  Uiso   1.00
N820   N     0.54931   0.16666   0.75001   0.00000  Uiso   1.00
O821   O     0.37291   0.10655   0.75000   0.00000  Uiso   1.00
O822   O     0.61311   0.08913   0.58482   0.00000  Uiso   1.00
O823   O     0.63427   0.08566   0.65870   0.00000  Uiso   1.00
O824   O     0.41363   0.14372   0.86546   0.00000  Uiso   1.00
O825   O     0.38308   0.08723   0.91780   0.00000  Uiso   1.00
O826   O     0.36321   0.08554   0.84317   0.00000  Uiso   1.00
O827   O     0.62709   0.22678   0.75000   0.00000  Uiso   1.00
O828   O     0.62706   0.10654   0.75000   0.00000  Uiso   1.00
O829   O     0.37294   0.22679   0.75000   0.00000  Uiso   1.00
O830   O     0.35186   0.16668   0.81492   0.00000  Uiso   1.00
O831   O     0.64814   0.16666   0.68508   0.00000  Uiso   1.00
O832   O     0.60600   0.16667   0.81492   0.00000  Uiso   1.00
O833   O     0.39400   0.16667   0.68508   0.00000  Uiso   1.00
O834   O     0.58621   0.14632   0.63660   0.00000  Uiso   1.00
S835   S     0.62666   0.11591   0.61791   0.00000  Uiso   1.00
S836   S     0.37167   0.11493   0.88385   0.00000  Uiso   1.00
C837   C     0.66715   0.08753   0.74914   0.00000  Uiso   1.00
C838   C     0.70797   0.02045   0.72243   0.00000  Uiso   1.00
C839   C     0.99892   0.29050   0.75121   0.00000  Uiso   1.00
C840   C     0.66772   0.04287   0.74884   0.00000  Uiso   1.00
C841   C     0.85241   0.13452   0.76792   0.00000  Uiso   1.00
C842   C     0.81439   0.19866   0.73173   0.00000  Uiso   1.00
C843   C     0.80318   0.13438   0.76754   0.00000  Uiso   1.00
C844   C     0.86380   0.19862   0.73169   0.00000  Uiso   1.00
C845   C     0.97220   0.16510   0.83562   0.00000  Uiso   1.00
C846   C     0.69441   0.16494   0.66444   0.00000  Uiso   1.00
C847   C     0.95595   0.16221   0.88403   0.00000  Uiso   1.00
C848   C     0.99950   0.24582   0.75091   0.00000  Uiso   1.00
C849   C     0.71039   0.16150   0.61616   0.00000  Uiso   1.00
C850   C     0.96921   0.14697   0.95405   0.00000  Uiso   1.00
C851   C     0.69772   0.14418   0.54656   0.00000  Uiso   1.00
C852   C     0.98499   0.14431   0.90827   0.00000  Uiso   1.00
C853   C     0.68136   0.14316   0.59246   0.00000  Uiso   1.00
C854   C     0.90872   0.17587   0.90661   0.00000  Uiso   1.00
C855   C     0.75740   0.17512   0.59329   0.00000  Uiso   1.00
C856   C     0.89070   0.17310   0.95294   0.00000  Uiso   1.00
C857   C     0.77556   0.17187   0.54708   0.00000  Uiso   1.00
C858   C     0.92371   0.16317   0.97650   0.00000  Uiso   1.00
C859   C     0.86155   0.17423   0.54569   0.00000  Uiso   1.00
C860   C     0.74301   0.16052   0.52371   0.00000  Uiso   1.00
C861   C     0.84050   0.17600   0.97639   0.00000  Uiso   1.00
C862   C     0.82563   0.17611   0.52360   0.00000  Uiso   1.00
C863   C     0.91481   0.29213   0.80864   0.00000  Uiso   1.00
C864   C     0.75170   0.04128   0.69124   0.00000  Uiso   1.00
C865   C     0.80480   0.17232   0.95434   0.00000  Uiso   1.00
C866   C     0.90963   0.16630   0.52240   0.00000  Uiso   1.00
C867   C     0.75722   0.16306   0.97773   0.00000  Uiso   1.00
C868   C     0.96022   0.02250   0.77585   0.00000  Uiso   1.00
C869   C     0.70642   0.31088   0.72420   0.00000  Uiso   1.00
C870   C     0.95864   0.31294   0.77758   0.00000  Uiso   1.00
Cu871  Cu    0.71355   0.16667   0.75000   0.00000  Uiso   1.00
Cu872  Cu    0.95311   0.16666   0.75000   0.00000  Uiso   1.00
H873   H     0.93544   0.16115   0.54062   0.00000  Uiso   1.00
H874   H     0.73686   0.29312   0.70387   0.00000  Uiso   1.00
H875   H     0.86608   0.10873   0.78262   0.00000  Uiso   1.00
H876   H     0.80077   0.22433   0.71681   0.00000  Uiso   1.00
H877   H     0.78056   0.10831   0.78155   0.00000  Uiso   1.00
H878   H     0.88685   0.22426   0.71675   0.00000  Uiso   1.00
H879   H     0.93485   0.07450   0.67372   0.00000  Uiso   1.00
H880   H     0.72236   0.06413   0.83762   0.00000  Uiso   1.00
H881   H     0.89401   0.27572   0.78951   0.00000  Uiso   1.00
H882   H     0.92655   0.26987   0.83033   0.00000  Uiso   1.00
H883   H     0.88976   0.31478   0.83028   0.00000  Uiso   1.00
H884   H     0.73200   0.15677   0.95942   0.00000  Uiso   1.00
H885   H     0.77258   0.05772   0.71028   0.00000  Uiso   1.00
H886   H     0.77671   0.01863   0.66956   0.00000  Uiso   1.00
H887   H     0.73982   0.06350   0.66961   0.00000  Uiso   1.00
H888   H     0.77925   0.18867   0.61198   0.00000  Uiso   1.00
H889   H     0.88648   0.18877   0.88765   0.00000  Uiso   1.00
H890   H     0.99076   0.13282   0.97215   0.00000  Uiso   1.00
H891   H     0.67642   0.12915   0.52895   0.00000  Uiso   1.00
H892   H     0.85294   0.17388   0.58122   0.00000  Uiso   1.00
H893   H     0.81352   0.17163   0.91880   0.00000  Uiso   1.00
H894   H     0.92979   0.04027   0.79617   0.00000  Uiso   1.00
N895   N     0.78403   0.16668   0.74999   0.00000  Uiso   1.00
N896   N     0.88264   0.16666   0.75001   0.00000  Uiso   1.00
O897   O     0.70625   0.10655   0.75000   0.00000  Uiso   1.00
O898   O     0.94644   0.08913   0.58482   0.00000  Uiso   1.00
O899   O     0.96760   0.08566   0.65870   0.00000  Uiso   1.00
O900   O     0.74696   0.14372   0.86546   0.00000  Uiso   1.00
O901   O     0.71642   0.08723   0.91780   0.00000  Uiso   1.00
O902   O     0.69655   0.08554   0.84317   0.00000  Uiso   1.00
O903   O     0.96042   0.22678   0.75000   0.00000  Uiso   1.00
O904   O     0.96039   0.10654   0.75000   0.00000  Uiso   1.00
O905   O     0.70628   0.22679   0.75000   0.00000  Uiso   1.00
O906   O     0.68519   0.16668   0.81492   0.00000  Uiso   1.00
O907   O     0.98148   0.16666   0.68508   0.00000  Uiso   1.00
O908   O     0.93933   0.16667   0.81492   0.00000  Uiso   1.00
O909   O     0.72733   0.16667   0.68508   0.00000  Uiso   1.00
O910   O     0.91954   0.14632   0.63660   0.00000  Uiso   1.00
S911   S     0.96000   0.11591   0.61791   0.00000  Uiso   1.00
S912   S     0.70501   0.11493   0.88385   0.00000  Uiso   1.00
C913   C     0.00048   0.42086   0.74914   0.00000  Uiso   1.00
C914   C     0.04130   0.35378   0.72243   0.00000  Uiso   1.00
C915   C     0.33226   0.62383   0.75121   0.00000  Uiso   1.00
C916   C     0.00105   0.37620   0.74884   0.00000  Uiso   1.00
C917   C     0.18575   0.46786   0.76792   0.00000  Uiso   1.00
C918   C     0.14772   0.53199   0.73173   0.00000  Uiso   1.00
C919   C     0.13652   0.46772   0.76754   0.00000  Uiso   1.00
C920   C     0.19713   0.53196   0.73169   0.00000  Uiso   1.00
C921   C     0.30553   0.49843   0.83562   0.00000  Uiso   1.00
C922   C     0.02774   0.49828   0.66444   0.00000  Uiso   1.00
C923   C     0.28928   0.49554   0.88403   0.00000  Uiso   1.00
C924   C     0.33284   0.57915   0.75091   0.00000  Uiso   1.00
C925   C     0.04373   0.49484   0.61616   0.00000  Uiso   1.00
C926   C     0.30254   0.48031   0.95405   0.00000  Uiso   1.00
C927   C     0.03105   0.47752   0.54656   0.00000  Uiso   1.00
C928   C     0.31832   0.47765   0.90827   0.00000  Uiso   1.00
C929   C     0.01470   0.47649   0.59246   0.00000  Uiso   1.00
C930   C     0.24206   0.50920   0.90661   0.00000  Uiso   1.00
C931   C     0.09073   0.50845   0.59329   0.00000  Uiso   1.00
C932   C     0.22403   0.50643   0.95294   0.00000  Uiso   1.00
C933   C     0.10890   0.50520   0.54708   0.00000  Uiso   1.00
C934   C     0.25705   0.49651   0.97650   0.00000  Uiso   1.00
C935   C     0.19489   0.50756   0.54569   0.00000  Uiso   1.00
C936   C     0.07634   0.49385   0.52371   0.00000  Uiso   1.00
C937   C     0.17383   0.50933   0.97639   0.00000  Uiso   1.00
C938   C     0.15896   0.50944   0.52360   0.00000  Uiso   1.00
C939   C     0.24815   0.62546   0.80864   0.00000  Uiso   1.00
C940   C     0.08503   0.37461   0.69124   0.00000  Uiso   1.00
C941   C     0.13814   0.50565   0.95434   0.00000  Uiso   1.00
C942   C     0.24297   0.49964   0.52240   0.00000  Uiso   1.00
C943   C     0.09055   0.49640   0.97773   0.00000  Uiso   1.00
C944   C     0.29356   0.35583   0.77585   0.00000  Uiso   1.00
C945   C     0.03975   0.64422   0.72420   0.00000  Uiso   1.00
C946   C     0.29197   0.64627   0.77758   0.00000  Uiso   1.00
Cu947  Cu    0.04689   0.50001   0.75000   0.00000  Uiso   1.00
Cu948  Cu    0.28645   0.49999   0.75000   0.00000  Uiso   1.00
H949   H     0.26877   0.49448   0.54062   0.00000  Uiso   1.00
H950   H     0.07019   0.62646   0.70387   0.00000  Uiso   1.00
H951   H     0.19941   0.44207   0.78262   0.00000  Uiso   1.00
H952   H     0.13411   0.55767   0.71681   0.00000  Uiso   1.00
H953   H     0.11389   0.44165   0.78155   0.00000  Uiso   1.00
H954   H     0.22018   0.55759   0.71675   0.00000  Uiso   1.00
H955   H     0.26819   0.40784   0.67372   0.00000  Uiso   1.00
H956   H     0.05569   0.39746   0.83762   0.00000  Uiso   1.00
H957   H     0.22734   0.60906   0.78951   0.00000  Uiso   1.00
H958   H     0.25988   0.60320   0.83033   0.00000  Uiso   1.00
H959   H     0.22310   0.64812   0.83028   0.00000  Uiso   1.00
H960   H     0.06533   0.49010   0.95942   0.00000  Uiso   1.00
H961   H     0.10591   0.39105   0.71028   0.00000  Uiso   1.00
H962   H     0.11004   0.35196   0.66956   0.00000  Uiso   1.00
H963   H     0.07315   0.39683   0.66961   0.00000  Uiso   1.00
H964   H     0.11258   0.52200   0.61198   0.00000  Uiso   1.00
H965   H     0.21981   0.52210   0.88765   0.00000  Uiso   1.00
H966   H     0.32409   0.46616   0.97215   0.00000  Uiso   1.00
H967   H     0.00975   0.46249   0.52895   0.00000  Uiso   1.00
H968   H     0.18628   0.50722   0.58122   0.00000  Uiso   1.00
H969   H     0.14686   0.50497   0.91880   0.00000  Uiso   1.00
H970   H     0.26312   0.37361   0.79617   0.00000  Uiso   1.00
N971   N     0.11736   0.50001   0.74999   0.00000  Uiso   1.00
N972   N     0.21597   0.49999   0.75001   0.00000  Uiso   1.00
O973   O     0.03958   0.43989   0.75000   0.00000  Uiso   1.00
O974   O     0.27977   0.42246   0.58482   0.00000  Uiso   1.00
O975   O     0.30093   0.41899   0.65870   0.00000  Uiso   1.00
O976   O     0.08029   0.47705   0.86546   0.00000  Uiso   1.00
O977   O     0.04975   0.42056   0.91780   0.00000  Uiso   1.00
O978   O     0.02988   0.41887   0.84317   0.00000  Uiso   1.00
O979   O     0.29375   0.56011   0.75000   0.00000  Uiso   1.00
O980   O     0.29372   0.43988   0.75000   0.00000  Uiso   1.00
O981   O     0.03961   0.56012   0.75000   0.00000  Uiso   1.00
O982   O     0.01852   0.50001   0.81492   0.00000  Uiso   1.00
O983   O     0.31481   0.49999   0.68508   0.00000  Uiso   1.00
O984   O     0.27267   0.50000   0.81492   0.00000  Uiso   1.00
O985   O     0.06067   0.50000   0.68508   0.00000  Uiso   1.00
O986   O     0.25288   0.47965   0.63660   0.00000  Uiso   1.00
S987   S     0.29333   0.44924   0.61791   0.00000  Uiso   1.00
S988   S     0.03834   0.44826   0.88385   0.00000  Uiso   1.00
C989   C     0.33382   0.42086   0.74914   0.00000  Uiso   1.00
C990   C     0.37464   0.35378   0.72243   0.00000  Uiso   1.00
C991   C     0.66559   0.62383   0.75121   0.00000  Uiso   1.00
C992   C     0.33438   0.37620   0.74884   0.00000  Uiso   1.00
C993   C     0.51908   0.46786   0.76792   0.00000  Uiso   1.00
C994   C     0.48105   0.53199   0.73173   0.00000  Uiso   1.00
C995   C     0.46985   0.46772   0.76754   0.00000  Uiso   1.00
C996   C     0.53046   0.53196   0.73169   0.00000  Uiso   1.00
C997   C     0.63886   0.49843   0.83562   0.00000  Uiso   1.00
C998   C     0.36107   0.49828   0.66444   0.00000  Uiso   1.00
C999   C     0.62262   0.49554   0.88403   0.00000  Uiso   1.00
C1000  C     0.66617   0.57915   0.75091   0.00000  Uiso   1.00
C1001  C     0.37706   0.49484   0.61616   0.00000  Uiso   1.00
C1002  C     0.63587   0.48031   0.95405   0.00000  Uiso   1.00
C1003  C     0.36438   0.47752   0.54656   0.00000  Uiso   1.00
C1004  C     0.65166   0.47765   0.90827   0.00000  Uiso   1.00
C1005  C     0.34803   0.47649   0.59246   0.00000  Uiso   1.00
C1006  C     0.57539   0.50920   0.90661   0.00000  Uiso   1.00
C1007  C     0.42407   0.50845   0.59329   0.00000  Uiso   1.00
C1008  C     0.55737   0.50643   0.95294   0.00000  Uiso   1.00
C1009  C     0.44223   0.50520   0.54708   0.00000  Uiso   1.00
C1010  C     0.59038   0.49651   0.97650   0.00000  Uiso   1.00
C1011  C     0.52822   0.50756   0.54569   0.00000  Uiso   1.00
C1012  C     0.40968   0.49385   0.52371   0.00000  Uiso   1.00
C1013  C     0.50717   0.50933   0.97639   0.00000  Uiso   1.00
C1014  C     0.49229   0.50944   0.52360   0.00000  Uiso   1.00
C1015  C     0.58148   0.62546   0.80864   0.00000  Uiso   1.00
C1016  C     0.41836   0.37461   0.69124   0.00000  Uiso   1.00
C1017  C     0.47147   0.50565   0.95434   0.00000  Uiso   1.00
C1018  C     0.57630   0.49964   0.52240   0.00000  Uiso   1.00
C1019  C     0.42388   0.49640   0.97773   0.00000  Uiso   1.00
C1020  C     0.62689   0.35583   0.77585   0.00000  Uiso   1.00
C1021  C     0.37308   0.64422   0.72420   0.00000  Uiso   1.00
C1022  C     0.62531   0.64627   0.77758   0.00000  Uiso   1.00
Cu1023 Cu    0.38022   0.50001   0.75000   0.00000  Uiso   1.00
Cu1024 Cu    0.61978   0.49999   0.75000   0.00000  Uiso   1.00
H1025  H     0.60210   0.49448   0.54062   0.00000  Uiso   1.00
H1026  H     0.40353   0.62646   0.70387   0.00000  Uiso   1.00
H1027  H     0.53275   0.44207   0.78262   0.00000  Uiso   1.00
H1028  H     0.46744   0.55767   0.71681   0.00000  Uiso   1.00
H1029  H     0.44722   0.44165   0.78155   0.00000  Uiso   1.00
H1030  H     0.55351   0.55759   0.71675   0.00000  Uiso   1.00
H1031  H     0.60152   0.40784   0.67372   0.00000  Uiso   1.00
H1032  H     0.38903   0.39746   0.83762   0.00000  Uiso   1.00
H1033  H     0.56068   0.60906   0.78951   0.00000  Uiso   1.00
H1034  H     0.59322   0.60320   0.83033   0.00000  Uiso   1.00
H1035  H     0.55643   0.64812   0.83028   0.00000  Uiso   1.00
H1036  H     0.39867   0.49010   0.95942   0.00000  Uiso   1.00
H1037  H     0.43925   0.39105   0.71028   0.00000  Uiso   1.00
H1038  H     0.44337   0.35196   0.66956   0.00000  Uiso   1.00
H1039  H     0.40648   0.39683   0.66961   0.00000  Uiso   1.00
H1040  H     0.44591   0.52200   0.61198   0.00000  Uiso   1.00
H1041  H     0.55315   0.52210   0.88765   0.00000  Uiso   1.00
H1042  H     0.65742   0.46616   0.97215   0.00000  Uiso   1.00
H1043  H     0.34308   0.46249   0.52895   0.00000  Uiso   1.00
H1044  H     0.51961   0.50722   0.58122   0.00000  Uiso   1.00
H1045  H     0.48019   0.50497   0.91880   0.00000  Uiso   1.00
H1046  H     0.59646   0.37361   0.79617   0.00000  Uiso   1.00
N1047  N     0.45069   0.50001   0.74999   0.00000  Uiso   1.00
N1048  N     0.54931   0.49999   0.75001   0.00000  Uiso   1.00
O1049  O     0.37291   0.43989   0.75000   0.00000  Uiso   1.00
O1050  O     0.61311   0.42246   0.58482   0.00000  Uiso   1.00
O1051  O     0.63427   0.41899   0.65870   0.00000  Uiso   1.00
O1052  O     0.41363   0.47705   0.86546   0.00000  Uiso   1.00
O1053  O     0.38308   0.42056   0.91780   0.00000  Uiso   1.00
O1054  O     0.36321   0.41887   0.84317   0.00000  Uiso   1.00
O1055  O     0.62709   0.56011   0.75000   0.00000  Uiso   1.00
O1056  O     0.62706   0.43988   0.75000   0.00000  Uiso   1.00
O1057  O     0.37294   0.56012   0.75000   0.00000  Uiso   1.00
O1058  O     0.35186   0.50001   0.81492   0.00000  Uiso   1.00
O1059  O     0.64814   0.49999   0.68508   0.00000  Uiso   1.00
O1060  O     0.60600   0.50000   0.81492   0.00000  Uiso   1.00
O1061  O     0.39400   0.50000   0.68508   0.00000  Uiso   1.00
O1062  O     0.58621   0.47965   0.63660   0.00000  Uiso   1.00
S1063  S     0.62666   0.44924   0.61791   0.00000  Uiso   1.00
S1064  S     0.37167   0.44826   0.88385   0.00000  Uiso   1.00
C1065  C     0.66715   0.42086   0.74914   0.00000  Uiso   1.00
C1066  C     0.70797   0.35378   0.72243   0.00000  Uiso   1.00
C1067  C     0.99892   0.62383   0.75121   0.00000  Uiso   1.00
C1068  C     0.66772   0.37620   0.74884   0.00000  Uiso   1.00
C1069  C     0.85241   0.46786   0.76792   0.00000  Uiso   1.00
C1070  C     0.81439   0.53199   0.73173   0.00000  Uiso   1.00
C1071  C     0.80318   0.46772   0.76754   0.00000  Uiso   1.00
C1072  C     0.86380   0.53196   0.73169   0.00000  Uiso   1.00
C1073  C     0.97220   0.49843   0.83562   0.00000  Uiso   1.00
C1074  C     0.69441   0.49828   0.66444   0.00000  Uiso   1.00
C1075  C     0.95595   0.49554   0.88403   0.00000  Uiso   1.00
C1076  C     0.99950   0.57915   0.75091   0.00000  Uiso   1.00
C1077  C     0.71039   0.49484   0.61616   0.00000  Uiso   1.00
C1078  C     0.96921   0.48031   0.95405   0.00000  Uiso   1.00
C1079  C     0.69772   0.47752   0.54656   0.00000  Uiso   1.00
C1080  C     0.98499   0.47765   0.90827   0.00000  Uiso   1.00
C1081  C     0.68136   0.47649   0.59246   0.00000  Uiso   1.00
C1082  C     0.90872   0.50920   0.90661   0.00000  Uiso   1.00
C1083  C     0.75740   0.50845   0.59329   0.00000  Uiso   1.00
C1084  C     0.89070   0.50643   0.95294   0.00000  Uiso   1.00
C1085  C     0.77556   0.50520   0.54708   0.00000  Uiso   1.00
C1086  C     0.92371   0.49651   0.97650   0.00000  Uiso   1.00
C1087  C     0.86155   0.50756   0.54569   0.00000  Uiso   1.00
C1088  C     0.74301   0.49385   0.52371   0.00000  Uiso   1.00
C1089  C     0.84050   0.50933   0.97639   0.00000  Uiso   1.00
C1090  C     0.82563   0.50944   0.52360   0.00000  Uiso   1.00
C1091  C     0.91481   0.62546   0.80864   0.00000  Uiso   1.00
C1092  C     0.75170   0.37461   0.69124   0.00000  Uiso   1.00
C1093  C     0.80480   0.50565   0.95434   0.00000  Uiso   1.00
C1094  C     0.90963   0.49964   0.52240   0.00000  Uiso   1.00
C1095  C     0.75722   0.49640   0.97773   0.00000  Uiso   1.00
C1096  C     0.96022   0.35583   0.77585   0.00000  Uiso   1.00
C1097  C     0.70642   0.64422   0.72420   0.00000  Uiso   1.00
C1098  C     0.95864   0.64627   0.77758   0.00000  Uiso   1.00
Cu1099 Cu    0.71355   0.50001   0.75000   0.00000  Uiso   1.00
Cu1100 Cu    0.95311   0.49999   0.75000   0.00000  Uiso   1.00
H1101  H     0.93544   0.49448   0.54062   0.00000  Uiso   1.00
H1102  H     0.73686   0.62646   0.70387   0.00000  Uiso   1.00
H1103  H     0.86608   0.44207   0.78262   0.00000  Uiso   1.00
H1104  H     0.80077   0.55767   0.71681   0.00000  Uiso   1.00
H1105  H     0.78056   0.44165   0.78155   0.00000  Uiso   1.00
H1106  H     0.88685   0.55759   0.71675   0.00000  Uiso   1.00
H1107  H     0.93485   0.40784   0.67372   0.00000  Uiso   1.00
H1108  H     0.72236   0.39746   0.83762   0.00000  Uiso   1.00
H1109  H     0.89401   0.60906   0.78951   0.00000  Uiso   1.00
H1110  H     0.92655   0.60320   0.83033   0.00000  Uiso   1.00
H1111  H     0.88976   0.64812   0.83028   0.00000  Uiso   1.00
H1112  H     0.73200   0.49010   0.95942   0.00000  Uiso   1.00
H1113  H     0.77258   0.39105   0.71028   0.00000  Uiso   1.00
H1114  H     0.77671   0.35196   0.66956   0.00000  Uiso   1.00
H1115  H     0.73982   0.39683   0.66961   0.00000  Uiso   1.00
H1116  H     0.77925   0.52200   0.61198   0.00000  Uiso   1.00
H1117  H     0.88648   0.52210   0.88765   0.00000  Uiso   1.00
H1118  H     0.99076   0.46616   0.97215   0.00000  Uiso   1.00
H1119  H     0.67642   0.46249   0.52895   0.00000  Uiso   1.00
H1120  H     0.85294   0.50722   0.58122   0.00000  Uiso   1.00
H1121  H     0.81352   0.50497   0.91880   0.00000  Uiso   1.00
H1122  H     0.92979   0.37361   0.79617   0.00000  Uiso   1.00
N1123  N     0.78403   0.50001   0.74999   0.00000  Uiso   1.00
N1124  N     0.88264   0.49999   0.75001   0.00000  Uiso   1.00
O1125  O     0.70625   0.43989   0.75000   0.00000  Uiso   1.00
O1126  O     0.94644   0.42246   0.58482   0.00000  Uiso   1.00
O1127  O     0.96760   0.41899   0.65870   0.00000  Uiso   1.00
O1128  O     0.74696   0.47705   0.86546   0.00000  Uiso   1.00
O1129  O     0.71642   0.42056   0.91780   0.00000  Uiso   1.00
O1130  O     0.69655   0.41887   0.84317   0.00000  Uiso   1.00
O1131  O     0.96042   0.56011   0.75000   0.00000  Uiso   1.00
O1132  O     0.96039   0.43988   0.75000   0.00000  Uiso   1.00
O1133  O     0.70628   0.56012   0.75000   0.00000  Uiso   1.00
O1134  O     0.68519   0.50001   0.81492   0.00000  Uiso   1.00
O1135  O     0.98148   0.49999   0.68508   0.00000  Uiso   1.00
O1136  O     0.93933   0.50000   0.81492   0.00000  Uiso   1.00
O1137  O     0.72733   0.50000   0.68508   0.00000  Uiso   1.00
O1138  O     0.91954   0.47965   0.63660   0.00000  Uiso   1.00
S1139  S     0.96000   0.44924   0.61791   0.00000  Uiso   1.00
S1140  S     0.70501   0.44826   0.88385   0.00000  Uiso   1.00
C1141  C     0.00048   0.75419   0.74914   0.00000  Uiso   1.00
C1142  C     0.04130   0.68711   0.72243   0.00000  Uiso   1.00
C1143  C     0.33226   0.95716   0.75121   0.00000  Uiso   1.00
C1144  C     0.00105   0.70954   0.74884   0.00000  Uiso   1.00
C1145  C     0.18575   0.80119   0.76792   0.00000  Uiso   1.00
C1146  C     0.14772   0.86533   0.73173   0.00000  Uiso   1.00
C1147  C     0.13652   0.80105   0.76754   0.00000  Uiso   1.00
C1148  C     0.19713   0.86529   0.73169   0.00000  Uiso   1.00
C1149  C     0.30553   0.83176   0.83562   0.00000  Uiso   1.00
C1150  C     0.02774   0.83161   0.66444   0.00000  Uiso   1.00
C1151  C     0.28928   0.82888   0.88403   0.00000  Uiso   1.00
C1152  C     0.33284   0.91248   0.75091   0.00000  Uiso   1.00
C1153  C     0.04373   0.82817   0.61616   0.00000  Uiso   1.00
C1154  C     0.30254   0.81364   0.95405   0.00000  Uiso   1.00
C1155  C     0.03105   0.81085   0.54656   0.00000  Uiso   1.00
C1156  C     0.31832   0.81098   0.90827   0.00000  Uiso   1.00
C1157  C     0.01470   0.80982   0.59246   0.00000  Uiso   1.00
C1158  C     0.24206   0.84254   0.90661   0.00000  Uiso   1.00
C1159  C     0.09073   0.84179   0.59329   0.00000  Uiso   1.00
C1160  C     0.22403   0.83976   0.95294   0.00000  Uiso   1.00
C1161  C     0.10890   0.83854   0.54708   0.00000  Uiso   1.00
C1162  C     0.25705   0.82984   0.97650   0.00000  Uiso   1.00
C1163  C     0.19489   0.84090   0.54569   0.00000  Uiso   1.00
C1164  C     0.07634   0.82718   0.52371   0.00000  Uiso   1.00
C1165  C     0.17383   0.84267   0.97639   0.00000  Uiso   1.00
C1166  C     0.15896   0.84278   0.52360   0.00000  Uiso   1.00
C1167  C     0.24815   0.95879   0.80864   0.00000  Uiso   1.00
C1168  C     0.08503   0.70794   0.69124   0.00000  Uiso   1.00
C1169  C     0.13814   0.83899   0.95434   0.00000  Uiso   1.00
C1170  C     0.24297   0.83297   0.52240   0.00000  Uiso   1.00
C1171  C     0.09055   0.82973   0.97773   0.00000  Uiso   1.00
C1172  C     0.29356   0.68917   0.77585   0.00000  Uiso   1.00
C1173  C     0.03975   0.97755   0.72420   0.00000  Uiso   1.00
C1174  C     0.29197   0.97960   0.77758   0.00000  Uiso   1.00
Cu1175 Cu    0.04689   0.83334   0.75000   0.00000  Uiso   1.00
Cu1176 Cu    0.28645   0.83333   0.75000   0.00000  Uiso   1.00
H1177  H     0.26877   0.82781   0.54062   0.00000  Uiso   1.00
H1178  H     0.07019   0.95979   0.70387   0.00000  Uiso   1.00
H1179  H     0.19941   0.77540   0.78262   0.00000  Uiso   1.00
H1180  H     0.13411   0.89100   0.71681   0.00000  Uiso   1.00
H1181  H     0.11389   0.77498   0.78155   0.00000  Uiso   1.00
H1182  H     0.22018   0.89092   0.71675   0.00000  Uiso   1.00
H1183  H     0.26819   0.74117   0.67372   0.00000  Uiso   1.00
H1184  H     0.05569   0.73079   0.83762   0.00000  Uiso   1.00
H1185  H     0.22734   0.94239   0.78951   0.00000  Uiso   1.00
H1186  H     0.25988   0.93654   0.83033   0.00000  Uiso   1.00
H1187  H     0.22310   0.98145   0.83028   0.00000  Uiso   1.00
H1188  H     0.06533   0.82344   0.95942   0.00000  Uiso   1.00
H1189  H     0.10591   0.72439   0.71028   0.00000  Uiso   1.00
H1190  H     0.11004   0.68530   0.66956   0.00000  Uiso   1.00
H1191  H     0.07315   0.73017   0.66961   0.00000  Uiso   1.00
H1192  H     0.11258   0.85533   0.61198   0.00000  Uiso   1.00
H1193  H     0.21981   0.85544   0.88765   0.00000  Uiso   1.00
H1194  H     0.32409   0.79949   0.97215   0.00000  Uiso   1.00
H1195  H     0.00975   0.79582   0.52895   0.00000  Uiso   1.00
H1196  H     0.18628   0.84055   0.58122   0.00000  Uiso   1.00
H1197  H     0.14686   0.83830   0.91880   0.00000  Uiso   1.00
H1198  H     0.26312   0.70694   0.79617   0.00000  Uiso   1.00
N1199  N     0.11736   0.83334   0.74999   0.00000  Uiso   1.00
N1200  N     0.21597   0.83332   0.75001   0.00000  Uiso   1.00
O1201  O     0.03958   0.77322   0.75000   0.00000  Uiso   1.00
O1202  O     0.27977   0.75579   0.58482   0.00000  Uiso   1.00
O1203  O     0.30093   0.75232   0.65870   0.00000  Uiso   1.00
O1204  O     0.08029   0.81038   0.86546   0.00000  Uiso   1.00
O1205  O     0.04975   0.75390   0.91780   0.00000  Uiso   1.00
O1206  O     0.02988   0.75220   0.84317   0.00000  Uiso   1.00
O1207  O     0.29375   0.89345   0.75000   0.00000  Uiso   1.00
O1208  O     0.29372   0.77321   0.75000   0.00000  Uiso   1.00
O1209  O     0.03961   0.89346   0.75000   0.00000  Uiso   1.00
O1210  O     0.01852   0.83334   0.81492   0.00000  Uiso   1.00
O1211  O     0.31481   0.83332   0.68508   0.00000  Uiso   1.00
O1212  O     0.27267   0.83333   0.81492   0.00000  Uiso   1.00
O1213  O     0.06067   0.83333   0.68508   0.00000  Uiso   1.00
O1214  O     0.25288   0.81299   0.63660   0.00000  Uiso   1.00
S1215  S     0.29333   0.78257   0.61791   0.00000  Uiso   1.00
S1216  S     0.03834   0.78160   0.88385   0.00000  Uiso   1.00
C1217  C     0.33382   0.75419   0.74914   0.00000  Uiso   1.00
C1218  C     0.37464   0.68711   0.72243   0.00000  Uiso   1.00
C1219  C     0.66559   0.95716   0.75121   0.00000  Uiso   1.00
C1220  C     0.33438   0.70954   0.74884   0.00000  Uiso   1.00
C1221  C     0.51908   0.80119   0.76792   0.00000  Uiso   1.00
C1222  C     0.48105   0.86533   0.73173   0.00000  Uiso   1.00
C1223  C     0.46985   0.80105   0.76754   0.00000  Uiso   1.00
C1224  C     0.53046   0.86529   0.73169   0.00000  Uiso   1.00
C1225  C     0.63886   0.83176   0.83562   0.00000  Uiso   1.00
C1226  C     0.36107   0.83161   0.66444   0.00000  Uiso   1.00
C1227  C     0.62262   0.82888   0.88403   0.00000  Uiso   1.00
C1228  C     0.66617   0.91248   0.75091   0.00000  Uiso   1.00
C1229  C     0.37706   0.82817   0.61616   0.00000  Uiso   1.00
C1230  C     0.63587   0.81364   0.95405   0.00000  Uiso   1.00
C1231  C     0.36438   0.81085   0.54656   0.00000  Uiso   1.00
C1232  C     0.65166   0.81098   0.90827   0.00000  Uiso   1.00
C1233  C     0.34803   0.80982   0.59246   0.00000  Uiso   1.00
C1234  C     0.57539   0.84254   0.90661   0.00000  Uiso   1.00
C1235  C     0.42407   0.84179   0.59329   0.00000  Uiso   1.00
C1236  C     0.55737   0.83976   0.95294   0.00000  Uiso   1.00
C1237  C     0.44223   0.83854   0.54708   0.00000  Uiso   1.00
C1238  C     0.59038   0.82984   0.97650   0.00000  Uiso   1.00
C1239  C     0.52822   0.84090   0.54569   0.00000  Uiso   1.00
C1240  C     0.40968   0.82718   0.52371   0.00000  Uiso   1.00
C1241  C     0.50717   0.84267   0.97639   0.00000  Uiso   1.00
C1242  C     0.49229   0.84278   0.52360   0.00000  Uiso   1.00
C1243  C     0.58148   0.95879   0.80864   0.00000  Uiso   1.00
C1244  C     0.41836   0.70794   0.69124   0.00000  Uiso   1.00
C1245  C     0.47147   0.83899   0.95434   0.00000  Uiso   1.00
C1246  C     0.57630   0.83297   0.52240   0.00000  Uiso   1.00
C1247  C     0.42388   0.82973   0.97773   0.00000  Uiso   1.00
C1248  C     0.62689   0.68917   0.77585   0.00000  Uiso   1.00
C1249  C     0.37308   0.97755   0.72420   0.00000  Uiso   1.00
C1250  C     0.62531   0.97960   0.77758   0.00000  Uiso   1.00
Cu1251 Cu    0.38022   0.83334   0.75000   0.00000  Uiso   1.00
Cu1252 Cu    0.61978   0.83333   0.75000   0.00000  Uiso   1.00
H1253  H     0.60210   0.82781   0.54062   0.00000  Uiso   1.00
H1254  H     0.40353   0.95979   0.70387   0.00000  Uiso   1.00
H1255  H     0.53275   0.77540   0.78262   0.00000  Uiso   1.00
H1256  H     0.46744   0.89100   0.71681   0.00000  Uiso   1.00
H1257  H     0.44722   0.77498   0.78155   0.00000  Uiso   1.00
H1258  H     0.55351   0.89092   0.71675   0.00000  Uiso   1.00
H1259  H     0.60152   0.74117   0.67372   0.00000  Uiso   1.00
H1260  H     0.38903   0.73079   0.83762   0.00000  Uiso   1.00
H1261  H     0.56068   0.94239   0.78951   0.00000  Uiso   1.00
H1262  H     0.59322   0.93654   0.83033   0.00000  Uiso   1.00
H1263  H     0.55643   0.98145   0.83028   0.00000  Uiso   1.00
H1264  H     0.39867   0.82344   0.95942   0.00000  Uiso   1.00
H1265  H     0.43925   0.72439   0.71028   0.00000  Uiso   1.00
H1266  H     0.44337   0.68530   0.66956   0.00000  Uiso   1.00
H1267  H     0.40648   0.73017   0.66961   0.00000  Uiso   1.00
H1268  H     0.44591   0.85533   0.61198   0.00000  Uiso   1.00
H1269  H     0.55315   0.85544   0.88765   0.00000  Uiso   1.00
H1270  H     0.65742   0.79949   0.97215   0.00000  Uiso   1.00
H1271  H     0.34308   0.79582   0.52895   0.00000  Uiso   1.00
H1272  H     0.51961   0.84055   0.58122   0.00000  Uiso   1.00
H1273  H     0.48019   0.83830   0.91880   0.00000  Uiso   1.00
H1274  H     0.59646   0.70694   0.79617   0.00000  Uiso   1.00
N1275  N     0.45069   0.83334   0.74999   0.00000  Uiso   1.00
N1276  N     0.54931   0.83332   0.75001   0.00000  Uiso   1.00
O1277  O     0.37291   0.77322   0.75000   0.00000  Uiso   1.00
O1278  O     0.61311   0.75579   0.58482   0.00000  Uiso   1.00
O1279  O     0.63427   0.75232   0.65870   0.00000  Uiso   1.00
O1280  O     0.41363   0.81038   0.86546   0.00000  Uiso   1.00
O1281  O     0.38308   0.75390   0.91780   0.00000  Uiso   1.00
O1282  O     0.36321   0.75220   0.84317   0.00000  Uiso   1.00
O1283  O     0.62709   0.89345   0.75000   0.00000  Uiso   1.00
O1284  O     0.62706   0.77321   0.75000   0.00000  Uiso   1.00
O1285  O     0.37294   0.89346   0.75000   0.00000  Uiso   1.00
O1286  O     0.35186   0.83334   0.81492   0.00000  Uiso   1.00
O1287  O     0.64814   0.83332   0.68508   0.00000  Uiso   1.00
O1288  O     0.60600   0.83333   0.81492   0.00000  Uiso   1.00
O1289  O     0.39400   0.83333   0.68508   0.00000  Uiso   1.00
O1290  O     0.58621   0.81299   0.63660   0.00000  Uiso   1.00
S1291  S     0.62666   0.78257   0.61791   0.00000  Uiso   1.00
S1292  S     0.37167   0.78160   0.88385   0.00000  Uiso   1.00
C1293  C     0.66715   0.75419   0.74914   0.00000  Uiso   1.00
C1294  C     0.70797   0.68711   0.72243   0.00000  Uiso   1.00
C1295  C     0.99892   0.95716   0.75121   0.00000  Uiso   1.00
C1296  C     0.66772   0.70954   0.74884   0.00000  Uiso   1.00
C1297  C     0.85241   0.80119   0.76792   0.00000  Uiso   1.00
C1298  C     0.81439   0.86533   0.73173   0.00000  Uiso   1.00
C1299  C     0.80318   0.80105   0.76754   0.00000  Uiso   1.00
C1300  C     0.86380   0.86529   0.73169   0.00000  Uiso   1.00
C1301  C     0.97220   0.83176   0.83562   0.00000  Uiso   1.00
C1302  C     0.69441   0.83161   0.66444   0.00000  Uiso   1.00
C1303  C     0.95595   0.82888   0.88403   0.00000  Uiso   1.00
C1304  C     0.99950   0.91248   0.75091   0.00000  Uiso   1.00
C1305  C     0.71039   0.82817   0.61616   0.00000  Uiso   1.00
C1306  C     0.96921   0.81364   0.95405   0.00000  Uiso   1.00
C1307  C     0.69772   0.81085   0.54656   0.00000  Uiso   1.00
C1308  C     0.98499   0.81098   0.90827   0.00000  Uiso   1.00
C1309  C     0.68136   0.80982   0.59246   0.00000  Uiso   1.00
C1310  C     0.90872   0.84254   0.90661   0.00000  Uiso   1.00
C1311  C     0.75740   0.84179   0.59329   0.00000  Uiso   1.00
C1312  C     0.89070   0.83976   0.95294   0.00000  Uiso   1.00
C1313  C     0.77556   0.83854   0.54708   0.00000  Uiso   1.00
C1314  C     0.92371   0.82984   0.97650   0.00000  Uiso   1.00
C1315  C     0.86155   0.84090   0.54569   0.00000  Uiso   1.00
C1316  C     0.74301   0.82718   0.52371   0.00000  Uiso   1.00
C1317  C     0.84050   0.84267   0.97639   0.00000  Uiso   1.00
C1318  C     0.82563   0.84278   0.52360   0.00000  Uiso   1.00
C1319  C     0.91481   0.95879   0.80864   0.00000  Uiso   1.00
C1320  C     0.75170   0.70794   0.69124   0.00000  Uiso   1.00
C1321  C     0.80480   0.83899   0.95434   0.00000  Uiso   1.00
C1322  C     0.90963   0.83297   0.52240   0.00000  Uiso   1.00
C1323  C     0.75722   0.82973   0.97773   0.00000  Uiso   1.00
C1324  C     0.96022   0.68917   0.77585   0.00000  Uiso   1.00
C1325  C     0.70642   0.97755   0.72420   0.00000  Uiso   1.00
C1326  C     0.95864   0.97960   0.77758   0.00000  Uiso   1.00
Cu1327 Cu    0.71355   0.83334   0.75000   0.00000  Uiso   1.00
Cu1328 Cu    0.95311   0.83333   0.75000   0.00000  Uiso   1.00
H1329  H     0.93544   0.82781   0.54062   0.00000  Uiso   1.00
H1330  H     0.73686   0.95979   0.70387   0.00000  Uiso   1.00
H1331  H     0.86608   0.77540   0.78262   0.00000  Uiso   1.00
H1332  H     0.80077   0.89100   0.71681   0.00000  Uiso   1.00
H1333  H     0.78056   0.77498   0.78155   0.00000  Uiso   1.00
H1334  H     0.88685   0.89092   0.71675   0.00000  Uiso   1.00
H1335  H     0.93485   0.74117   0.67372   0.00000  Uiso   1.00
H1336  H     0.72236   0.73079   0.83762   0.00000  Uiso   1.00
H1337  H     0.89401   0.94239   0.78951   0.00000  Uiso   1.00
H1338  H     0.92655   0.93654   0.83033   0.00000  Uiso   1.00
H1339  H     0.88976   0.98145   0.83028   0.00000  Uiso   1.00
H1340  H     0.73200   0.82344   0.95942   0.00000  Uiso   1.00
H1341  H     0.77258   0.72439   0.71028   0.00000  Uiso   1.00
H1342  H     0.77671   0.68530   0.66956   0.00000  Uiso   1.00
H1343  H     0.73982   0.73017   0.66961   0.00000  Uiso   1.00
H1344  H     0.77925   0.85533   0.61198   0.00000  Uiso   1.00
H1345  H     0.88648   0.85544   0.88765   0.00000  Uiso   1.00
H1346  H     0.99076   0.79949   0.97215   0.00000  Uiso   1.00
H1347  H     0.67642   0.79582   0.52895   0.00000  Uiso   1.00
H1348  H     0.85294   0.84055   0.58122   0.00000  Uiso   1.00
H1349  H     0.81352   0.83830   0.91880   0.00000  Uiso   1.00
H1350  H     0.92979   0.70694   0.79617   0.00000  Uiso   1.00
N1351  N     0.78403   0.83334   0.74999   0.00000  Uiso   1.00
N1352  N     0.88264   0.83332   0.75001   0.00000  Uiso   1.00
O1353  O     0.70625   0.77322   0.75000   0.00000  Uiso   1.00
O1354  O     0.94644   0.75579   0.58482   0.00000  Uiso   1.00
O1355  O     0.96760   0.75232   0.65870   0.00000  Uiso   1.00
O1356  O     0.74696   0.81038   0.86546   0.00000  Uiso   1.00
O1357  O     0.71642   0.75390   0.91780   0.00000  Uiso   1.00
O1358  O     0.69655   0.75220   0.84317   0.00000  Uiso   1.00
O1359  O     0.96042   0.89345   0.75000   0.00000  Uiso   1.00
O1360  O     0.96039   0.77321   0.75000   0.00000  Uiso   1.00
O1361  O     0.70628   0.89346   0.75000   0.00000  Uiso   1.00
O1362  O     0.68519   0.83334   0.81492   0.00000  Uiso   1.00
O1363  O     0.98148   0.83332   0.68508   0.00000  Uiso   1.00
O1364  O     0.93933   0.83333   0.81492   0.00000  Uiso   1.00
O1365  O     0.72733   0.83333   0.68508   0.00000  Uiso   1.00
O1366  O     0.91954   0.81299   0.63660   0.00000  Uiso   1.00
S1367  S     0.96000   0.78257   0.61791   0.00000  Uiso   1.00
S1368  S     0.70501   0.78160   0.88385   0.00000  Uiso   1.00
loop_
_geom_bond_atom_site_label_1
_geom_bond_atom_site_label_2
_geom_bond_distance
_geom_bond_site_symmetry_2
_ccdc_geom_bond_type
C1     O61     1.294   .     A
C1     C4      1.446   .     S
C1     O220    1.298   1_455 S
C2     C4      1.411   .     A
C2     C28     1.510   .     S
C2     C489    1.390   1_545 S
C3     C12     1.447   .     S
C3     C34     1.412   .     A
C3     C109    1.398   .     S
C4     C184    1.398   1_455 S
C5     C7      1.420   .     A
C5     H39     1.081   .     S
C5     N60     1.369   .     A
C6     C8      1.422   .     A
C6     N59     1.369   .     A
C6     H40     1.081   .     S
C7     N59     1.369   .     A
C7     H41     1.079   .     S
C8     H42     1.081   .     S
C8     N60     1.369   .     A
C9     O72     1.301   .     A
C9     C11     1.467   .     S
C9     O146    1.301   .     S
C10    O73     1.303   .     A
C10    C13     1.465   .     S
C10    O223    1.299   1_455 S
C11    C18     1.405   .     A
C11    C16     1.412   .     A
C12    O67     1.294   .     A
C12    O145    1.298   .     S
C13    C19     1.404   .     A
C13    C17     1.414   .     A
C14    H54     1.062   .     S
C14    C16     1.388   .     A
C14    C22     1.393   .     A
C15    C24     1.396   .     A
C15    C17     1.389   .     A
C15    H55     1.065   .     S
C16    S152    1.774   .     S
C17    S227    1.779   1_455 S
C18    H53     1.080   .     S
C18    C20     1.407   .     A
C19    C21     1.405   .     A
C19    H52     1.080   .     S
C20    C25     1.418   .     A
C20    C22     1.406   .     A
C21    C26     1.419   .     A
C21    C24     1.407   .     A
C22    C714    1.393   .     S
C23    H56     1.079   .     S
C23    C26     1.411   .     A
C23    C30     1.385   .     A
C24    C715    1.393   1_554 S
C25    C29     1.409   .     A
C25    C710    1.428   .     S
C26    C709    1.428   1_554 S
C27    H45     1.110   .     S
C27    C34     1.510   .     S
C27    H46     1.111   .     S
C27    H47     1.111   .     S
C28    H49     1.110   .     S
C28    H50     1.111   .     S
C28    H51     1.111   .     S
C29    H57     1.079   .     S
C29    C31     1.384   .     A
C30    H37     1.079   .     S
C30    C706    1.393   1_554 S
C31    H48     1.076   .     S
C31    C708    1.393   .     S
C32    H58     1.085   .     S
C32    C80     1.398   .     S
C32    C490    1.390   1_545 S
C33    H38     1.085   .     S
C33    C155    1.398   1_455 S
C33    C230    1.390   .     S
C34    C260    1.390   .     S
Cu35   N59     2.028   .     S
Cu35   O70     1.975   .     S
Cu35   O61     1.959   .     S
Cu35   O73     1.976   .     S
Cu35   O69     1.957   .     S
Cu35   Cu188   2.699   1_455 S
Cu36   O67     1.959   .     S
Cu36   O71     1.975   .     S
Cu36   N60     2.028   .     S
Cu36   O68     1.957   .     S
Cu36   O72     1.976   .     S
Cu36   Cu111   2.699   .     S
H43    O63     0.991   .     S
H44    O66     0.990   .     S
O62    S75     1.504   .     D
O63    S75     1.681   .     S
O64    S76     1.502   .     D
O65    S76     1.504   .     D
O66    S76     1.682   .     S
O68    C77     1.298   .     S
O69    C164    1.298   1_455 S
O70    C161    1.301   1_455 S
O71    C86     1.299   .     S
O74    S75     1.503   .     D
S75    C93     1.779   .     S
S76    C168    1.774   1_455 S
C77    O137    1.294   .     A
C77    C80     1.446   .     S
C78    C80     1.411   .     A
C78    C104    1.510   .     S
C78    C565    1.390   1_545 S
C79    C88     1.447   .     S
C79    C110    1.412   .     A
C79    C185    1.398   .     S
C81    C83     1.420   .     A
C81    H115    1.081   .     S
C81    N136    1.369   .     A
C82    C84     1.422   .     A
C82    N135    1.369   .     A
C82    H116    1.081   .     S
C83    N135    1.369   .     A
C83    H117    1.079   .     S
C84    H118    1.081   .     S
C84    N136    1.369   .     A
C85    O148    1.301   .     A
C85    C87     1.467   .     S
C85    O222    1.301   .     S
C86    O149    1.303   .     A
C86    C89     1.465   .     S
C87    C94     1.405   .     A
C87    C92     1.412   .     A
C88    O143    1.294   .     A
C88    O221    1.298   .     S
C89    C95     1.404   .     A
C89    C93     1.414   .     A
C90    H130    1.062   .     S
C90    C92     1.388   .     A
C90    C98     1.393   .     A
C91    C100    1.396   .     A
C91    C93     1.389   .     A
C91    H131    1.065   .     S
C92    S228    1.774   .     S
C94    H129    1.080   .     S
C94    C96     1.407   .     A
C95    C97     1.405   .     A
C95    H128    1.080   .     S
C96    C101    1.418   .     A
C96    C98     1.406   .     A
C97    C102    1.419   .     A
C97    C100    1.407   .     A
C98    C790    1.393   .     S
C99    H132    1.079   .     S
C99    C102    1.411   .     A
C99    C106    1.385   .     A
C100   C791    1.393   1_554 S
C101   C105    1.409   .     A
C101   C786    1.428   .     S
C102   C785    1.428   1_554 S
C103   H121    1.110   .     S
C103   C110    1.510   .     S
C103   H122    1.111   .     S
C103   H123    1.111   .     S
C104   H125    1.110   .     S
C104   H126    1.111   .     S
C104   H127    1.111   .     S
C105   H133    1.079   .     S
C105   C107    1.384   .     A
C106   H113    1.079   .     S
C106   C782    1.393   1_554 S
C107   H124    1.076   .     S
C107   C784    1.393   .     S
C108   H134    1.085   .     S
C108   C156    1.398   .     S
C108   C566    1.390   1_545 S
C109   H114    1.085   .     S
C109   C306    1.390   .     S
C110   C336    1.390   .     S
Cu111  N135    2.028   .     S
Cu111  O146    1.975   .     S
Cu111  O137    1.959   .     S
Cu111  O149    1.976   .     S
Cu111  O145    1.957   .     S
Cu112  O143    1.959   .     S
Cu112  O147    1.975   .     S
Cu112  N136    2.028   .     S
Cu112  O144    1.957   .     S
Cu112  O148    1.976   .     S
Cu112  Cu187   2.699   .     S
H119   O139    0.991   .     S
H120   O142    0.990   .     S
O138   S151    1.504   .     D
O139   S151    1.681   .     S
O140   S152    1.502   .     D
O141   S152    1.504   .     D
O142   S152    1.682   .     S
O144   C153    1.298   .     S
O147   C162    1.299   .     S
O150   S151    1.503   .     D
S151   C169    1.779   .     S
C153   O213    1.294   .     A
C153   C156    1.446   .     S
C154   C156    1.411   .     A
C154   C180    1.510   .     S
C154   C641    1.390   1_545 S
C155   C164    1.447   .     S
C155   C186    1.412   .     A
C155   C33     1.398   1_655 S
C157   C159    1.420   .     A
C157   H191    1.081   .     S
C157   N212    1.369   .     A
C158   C160    1.422   .     A
C158   N211    1.369   .     A
C158   H192    1.081   .     S
C159   N211    1.369   .     A
C159   H193    1.079   .     S
C160   H194    1.081   .     S
C160   N212    1.369   .     A
C161   O224    1.301   .     A
C161   C163    1.467   .     S
C161   O70     1.301   1_655 S
C162   O225    1.303   .     A
C162   C165    1.465   .     S
C163   C170    1.405   .     A
C163   C168    1.412   .     A
C164   O219    1.294   .     A
C164   O69     1.298   1_655 S
C165   C171    1.404   .     A
C165   C169    1.414   .     A
C166   H206    1.062   .     S
C166   C168    1.388   .     A
C166   C174    1.393   .     A
C167   C176    1.396   .     A
C167   C169    1.389   .     A
C167   H207    1.065   .     S
C168   S76     1.774   1_655 S
C170   H205    1.080   .     S
C170   C172    1.407   .     A
C171   C173    1.405   .     A
C171   H204    1.080   .     S
C172   C177    1.418   .     A
C172   C174    1.406   .     A
C173   C178    1.419   .     A
C173   C176    1.407   .     A
C174   C866    1.393   .     S
C175   H208    1.079   .     S
C175   C178    1.411   .     A
C175   C182    1.385   .     A
C176   C867    1.393   1_554 S
C177   C181    1.409   .     A
C177   C862    1.428   .     S
C178   C861    1.428   1_554 S
C179   H197    1.110   .     S
C179   C186    1.510   .     S
C179   H198    1.111   .     S
C179   H199    1.111   .     S
C180   H201    1.110   .     S
C180   H202    1.111   .     S
C180   H203    1.111   .     S
C181   H209    1.079   .     S
C181   C183    1.384   .     A
C182   H189    1.079   .     S
C182   C858    1.393   1_554 S
C183   H200    1.076   .     S
C183   C860    1.393   .     S
C184   H210    1.085   .     S
C184   C4      1.398   1_655 S
C184   C642    1.390   1_545 S
C185   H190    1.085   .     S
C185   C382    1.390   .     S
C186   C412    1.390   .     S
Cu187  N211    2.028   .     S
Cu187  O222    1.975   .     S
Cu187  O213    1.959   .     S
Cu187  O225    1.976   .     S
Cu187  O221    1.957   .     S
Cu188  O219    1.959   .     S
Cu188  O223    1.975   .     S
Cu188  N212    2.028   .     S
Cu188  O220    1.957   .     S
Cu188  O224    1.976   .     S
Cu188  Cu35    2.699   1_655 S
H195   O215    0.991   .     S
H196   O218    0.990   .     S
O214   S227    1.504   .     D
O215   S227    1.681   .     S
O216   S228    1.502   .     D
O217   S228    1.504   .     D
O218   S228    1.682   .     S
O220   C1      1.298   1_655 S
O223   C10     1.299   1_655 S
O226   S227    1.503   .     D
S227   C17     1.779   1_655 S
C229   O289    1.294   .     A
C229   C232    1.446   .     S
C229   O448    1.298   1_455 S
C230   C232    1.411   .     A
C230   C256    1.510   .     S
C231   C240    1.447   .     S
C231   C262    1.412   .     A
C231   C337    1.398   .     S
C232   C412    1.398   1_455 S
C233   C235    1.420   .     A
C233   H267    1.081   .     S
C233   N288    1.369   .     A
C234   C236    1.422   .     A
C234   N287    1.369   .     A
C234   H268    1.081   .     S
C235   N287    1.369   .     A
C235   H269    1.079   .     S
C236   H270    1.081   .     S
C236   N288    1.369   .     A
C237   O300    1.301   .     A
C237   C239    1.467   .     S
C237   O374    1.301   .     S
C238   O301    1.303   .     A
C238   C241    1.465   .     S
C238   O451    1.299   1_455 S
C239   C246    1.405   .     A
C239   C244    1.412   .     A
C240   O295    1.294   .     A
C240   O373    1.298   .     S
C241   C247    1.404   .     A
C241   C245    1.414   .     A
C242   H282    1.062   .     S
C242   C244    1.388   .     A
C242   C250    1.393   .     A
C243   C252    1.396   .     A
C243   C245    1.389   .     A
C243   H283    1.065   .     S
C244   S380    1.774   .     S
C245   S455    1.779   1_455 S
C246   H281    1.080   .     S
C246   C248    1.407   .     A
C247   C249    1.405   .     A
C247   H280    1.080   .     S
C248   C253    1.418   .     A
C248   C250    1.406   .     A
C249   C254    1.419   .     A
C249   C252    1.407   .     A
C250   C942    1.393   .     S
C251   H284    1.079   .     S
C251   C254    1.411   .     A
C251   C258    1.385   .     A
C252   C943    1.393   1_554 S
C253   C257    1.409   .     A
C253   C938    1.428   .     S
C254   C937    1.428   1_554 S
C255   H273    1.110   .     S
C255   C262    1.510   .     S
C255   H274    1.111   .     S
C255   H275    1.111   .     S
C256   H277    1.110   .     S
C256   H278    1.111   .     S
C256   H279    1.111   .     S
C257   H285    1.079   .     S
C257   C259    1.384   .     A
C258   H265    1.079   .     S
C258   C934    1.393   1_554 S
C259   H276    1.076   .     S
C259   C936    1.393   .     S
C260   H286    1.085   .     S
C260   C308    1.398   .     S
C261   H266    1.085   .     S
C261   C383    1.398   1_455 S
C261   C458    1.390   .     S
C262   C488    1.390   .     S
Cu263  N287    2.028   .     S
Cu263  O298    1.975   .     S
Cu263  O289    1.959   .     S
Cu263  O301    1.976   .     S
Cu263  O297    1.957   .     S
Cu263  Cu416   2.699   1_455 S
Cu264  O295    1.959   .     S
Cu264  O299    1.975   .     S
Cu264  N288    2.028   .     S
Cu264  O296    1.957   .     S
Cu264  O300    1.976   .     S
Cu264  Cu339   2.699   .     S
H271   O291    0.991   .     S
H272   O294    0.990   .     S
O290   S303    1.504   .     D
O291   S303    1.681   .     S
O292   S304    1.502   .     D
O293   S304    1.504   .     D
O294   S304    1.682   .     S
O296   C305    1.298   .     S
O297   C392    1.298   1_455 S
O298   C389    1.301   1_455 S
O299   C314    1.299   .     S
O302   S303    1.503   .     D
S303   C321    1.779   .     S
S304   C396    1.774   1_455 S
C305   O365    1.294   .     A
C305   C308    1.446   .     S
C306   C308    1.411   .     A
C306   C332    1.510   .     S
C307   C316    1.447   .     S
C307   C338    1.412   .     A
C307   C413    1.398   .     S
C309   C311    1.420   .     A
C309   H343    1.081   .     S
C309   N364    1.369   .     A
C310   C312    1.422   .     A
C310   N363    1.369   .     A
C310   H344    1.081   .     S
C311   N363    1.369   .     A
C311   H345    1.079   .     S
C312   H346    1.081   .     S
C312   N364    1.369   .     A
C313   O376    1.301   .     A
C313   C315    1.467   .     S
C313   O450    1.301   .     S
C314   O377    1.303   .     A
C314   C317    1.465   .     S
C315   C322    1.405   .     A
C315   C320    1.412   .     A
C316   O371    1.294   .     A
C316   O449    1.298   .     S
C317   C323    1.404   .     A
C317   C321    1.414   .     A
C318   H358    1.062   .     S
C318   C320    1.388   .     A
C318   C326    1.393   .     A
C319   C328    1.396   .     A
C319   C321    1.389   .     A
C319   H359    1.065   .     S
C320   S456    1.774   .     S
C322   H357    1.080   .     S
C322   C324    1.407   .     A
C323   C325    1.405   .     A
C323   H356    1.080   .     S
C324   C329    1.418   .     A
C324   C326    1.406   .     A
C325   C330    1.419   .     A
C325   C328    1.407   .     A
C326   C1018   1.393   .     S
C327   H360    1.079   .     S
C327   C330    1.411   .     A
C327   C334    1.385   .     A
C328   C1019   1.393   1_554 S
C329   C333    1.409   .     A
C329   C1014   1.428   .     S
C330   C1013   1.428   1_554 S
C331   H349    1.110   .     S
C331   C338    1.510   .     S
C331   H350    1.111   .     S
C331   H351    1.111   .     S
C332   H353    1.110   .     S
C332   H354    1.111   .     S
C332   H355    1.111   .     S
C333   H361    1.079   .     S
C333   C335    1.384   .     A
C334   H341    1.079   .     S
C334   C1010   1.393   1_554 S
C335   H352    1.076   .     S
C335   C1012   1.393   .     S
C336   H362    1.085   .     S
C336   C384    1.398   .     S
C337   H342    1.085   .     S
C337   C534    1.390   .     S
C338   C564    1.390   .     S
Cu339  N363    2.028   .     S
Cu339  O374    1.975   .     S
Cu339  O365    1.959   .     S
Cu339  O377    1.976   .     S
Cu339  O373    1.957   .     S
Cu340  O371    1.959   .     S
Cu340  O375    1.975   .     S
Cu340  N364    2.028   .     S
Cu340  O372    1.957   .     S
Cu340  O376    1.976   .     S
Cu340  Cu415   2.699   .     S
H347   O367    0.991   .     S
H348   O370    0.990   .     S
O366   S379    1.504   .     D
O367   S379    1.681   .     S
O368   S380    1.502   .     D
O369   S380    1.504   .     D
O370   S380    1.682   .     S
O372   C381    1.298   .     S
O375   C390    1.299   .     S
O378   S379    1.503   .     D
S379   C397    1.779   .     S
C381   O441    1.294   .     A
C381   C384    1.446   .     S
C382   C384    1.411   .     A
C382   C408    1.510   .     S
C383   C392    1.447   .     S
C383   C414    1.412   .     A
C383   C261    1.398   1_655 S
C385   C387    1.420   .     A
C385   H419    1.081   .     S
C385   N440    1.369   .     A
C386   C388    1.422   .     A
C386   N439    1.369   .     A
C386   H420    1.081   .     S
C387   N439    1.369   .     A
C387   H421    1.079   .     S
C388   H422    1.081   .     S
C388   N440    1.369   .     A
C389   O452    1.301   .     A
C389   C391    1.467   .     S
C389   O298    1.301   1_655 S
C390   O453    1.303   .     A
C390   C393    1.465   .     S
C391   C398    1.405   .     A
C391   C396    1.412   .     A
C392   O447    1.294   .     A
C392   O297    1.298   1_655 S
C393   C399    1.404   .     A
C393   C397    1.414   .     A
C394   H434    1.062   .     S
C394   C396    1.388   .     A
C394   C402    1.393   .     A
C395   C404    1.396   .     A
C395   C397    1.389   .     A
C395   H435    1.065   .     S
C396   S304    1.774   1_655 S
C398   H433    1.080   .     S
C398   C400    1.407   .     A
C399   C401    1.405   .     A
C399   H432    1.080   .     S
C400   C405    1.418   .     A
C400   C402    1.406   .     A
C401   C406    1.419   .     A
C401   C404    1.407   .     A
C402   C1094   1.393   .     S
C403   H436    1.079   .     S
C403   C406    1.411   .     A
C403   C410    1.385   .     A
C404   C1095   1.393   1_554 S
C405   C409    1.409   .     A
C405   C1090   1.428   .     S
C406   C1089   1.428   1_554 S
C407   H425    1.110   .     S
C407   C414    1.510   .     S
C407   H426    1.111   .     S
C407   H427    1.111   .     S
C408   H429    1.110   .     S
C408   H430    1.111   .     S
C408   H431    1.111   .     S
C409   H437    1.079   .     S
C409   C411    1.384   .     A
C410   H417    1.079   .     S
C410   C1086   1.393   1_554 S
C411   H428    1.076   .     S
C411   C1088   1.393   .     S
C412   H438    1.085   .     S
C412   C232    1.398   1_655 S
C413   H418    1.085   .     S
C413   C610    1.390   .     S
C414   C640    1.390   .     S
Cu415  N439    2.028   .     S
Cu415  O450    1.975   .     S
Cu415  O441    1.959   .     S
Cu415  O453    1.976   .     S
Cu415  O449    1.957   .     S
Cu416  O447    1.959   .     S
Cu416  O451    1.975   .     S
Cu416  N440    2.028   .     S
Cu416  O448    1.957   .     S
Cu416  O452    1.976   .     S
Cu416  Cu263   2.699   1_655 S
H423   O443    0.991   .     S
H424   O446    0.990   .     S
O442   S455    1.504   .     D
O443   S455    1.681   .     S
O444   S456    1.502   .     D
O445   S456    1.504   .     D
O446   S456    1.682   .     S
O448   C229    1.298   1_655 S
O451   C238    1.299   1_655 S
O454   S455    1.503   .     D
S455   C245    1.779   1_655 S
C457   O517    1.294   .     A
C457   C460    1.446   .     S
C457   O676    1.298   1_455 S
C458   C460    1.411   .     A
C458   C484    1.510   .     S
C459   C468    1.447   .     S
C459   C490    1.412   .     A
C459   C565    1.398   .     S
C460   C640    1.398   1_455 S
C461   C463    1.420   .     A
C461   H495    1.081   .     S
C461   N516    1.369   .     A
C462   C464    1.422   .     A
C462   N515    1.369   .     A
C462   H496    1.081   .     S
C463   N515    1.369   .     A
C463   H497    1.079   .     S
C464   H498    1.081   .     S
C464   N516    1.369   .     A
C465   O528    1.301   .     A
C465   C467    1.467   .     S
C465   O602    1.301   .     S
C466   O529    1.303   .     A
C466   C469    1.465   .     S
C466   O679    1.299   1_455 S
C467   C474    1.405   .     A
C467   C472    1.412   .     A
C468   O523    1.294   .     A
C468   O601    1.298   .     S
C469   C475    1.404   .     A
C469   C473    1.414   .     A
C470   H510    1.062   .     S
C470   C472    1.388   .     A
C470   C478    1.393   .     A
C471   C480    1.396   .     A
C471   C473    1.389   .     A
C471   H511    1.065   .     S
C472   S608    1.774   .     S
C473   S683    1.779   1_455 S
C474   H509    1.080   .     S
C474   C476    1.407   .     A
C475   C477    1.405   .     A
C475   H508    1.080   .     S
C476   C481    1.418   .     A
C476   C478    1.406   .     A
C477   C482    1.419   .     A
C477   C480    1.407   .     A
C478   C1170   1.393   .     S
C479   H512    1.079   .     S
C479   C482    1.411   .     A
C479   C486    1.385   .     A
C480   C1171   1.393   1_554 S
C481   C485    1.409   .     A
C481   C1166   1.428   .     S
C482   C1165   1.428   1_554 S
C483   H501    1.110   .     S
C483   C490    1.510   .     S
C483   H502    1.111   .     S
C483   H503    1.111   .     S
C484   H505    1.110   .     S
C484   H506    1.111   .     S
C484   H507    1.111   .     S
C485   H513    1.079   .     S
C485   C487    1.384   .     A
C486   H493    1.079   .     S
C486   C1162   1.393   1_554 S
C487   H504    1.076   .     S
C487   C1164   1.393   .     S
C488   H514    1.085   .     S
C488   C536    1.398   .     S
C489   H494    1.085   .     S
C489   C611    1.398   1_455 S
C489   C2      1.390   1_565 S
C490   C32     1.390   1_565 S
Cu491  N515    2.028   .     S
Cu491  O526    1.975   .     S
Cu491  O517    1.959   .     S
Cu491  O529    1.976   .     S
Cu491  O525    1.957   .     S
Cu491  Cu644   2.699   1_455 S
Cu492  O523    1.959   .     S
Cu492  O527    1.975   .     S
Cu492  N516    2.028   .     S
Cu492  O524    1.957   .     S
Cu492  O528    1.976   .     S
Cu492  Cu567   2.699   .     S
H499   O519    0.991   .     S
H500   O522    0.990   .     S
O518   S531    1.504   .     D
O519   S531    1.681   .     S
O520   S532    1.502   .     D
O521   S532    1.504   .     D
O522   S532    1.682   .     S
O524   C533    1.298   .     S
O525   C620    1.298   1_455 S
O526   C617    1.301   1_455 S
O527   C542    1.299   .     S
O530   S531    1.503   .     D
S531   C549    1.779   .     S
S532   C624    1.774   1_455 S
C533   O593    1.294   .     A
C533   C536    1.446   .     S
C534   C536    1.411   .     A
C534   C560    1.510   .     S
C535   C544    1.447   .     S
C535   C566    1.412   .     A
C535   C641    1.398   .     S
C537   C539    1.420   .     A
C537   H571    1.081   .     S
C537   N592    1.369   .     A
C538   C540    1.422   .     A
C538   N591    1.369   .     A
C538   H572    1.081   .     S
C539   N591    1.369   .     A
C539   H573    1.079   .     S
C540   H574    1.081   .     S
C540   N592    1.369   .     A
C541   O604    1.301   .     A
C541   C543    1.467   .     S
C541   O678    1.301   .     S
C542   O605    1.303   .     A
C542   C545    1.465   .     S
C543   C550    1.405   .     A
C543   C548    1.412   .     A
C544   O599    1.294   .     A
C544   O677    1.298   .     S
C545   C551    1.404   .     A
C545   C549    1.414   .     A
C546   H586    1.062   .     S
C546   C548    1.388   .     A
C546   C554    1.393   .     A
C547   C556    1.396   .     A
C547   C549    1.389   .     A
C547   H587    1.065   .     S
C548   S684    1.774   .     S
C550   H585    1.080   .     S
C550   C552    1.407   .     A
C551   C553    1.405   .     A
C551   H584    1.080   .     S
C552   C557    1.418   .     A
C552   C554    1.406   .     A
C553   C558    1.419   .     A
C553   C556    1.407   .     A
C554   C1246   1.393   .     S
C555   H588    1.079   .     S
C555   C558    1.411   .     A
C555   C562    1.385   .     A
C556   C1247   1.393   1_554 S
C557   C561    1.409   .     A
C557   C1242   1.428   .     S
C558   C1241   1.428   1_554 S
C559   H577    1.110   .     S
C559   C566    1.510   .     S
C559   H578    1.111   .     S
C559   H579    1.111   .     S
C560   H581    1.110   .     S
C560   H582    1.111   .     S
C560   H583    1.111   .     S
C561   H589    1.079   .     S
C561   C563    1.384   .     A
C562   H569    1.079   .     S
C562   C1238   1.393   1_554 S
C563   H580    1.076   .     S
C563   C1240   1.393   .     S
C564   H590    1.085   .     S
C564   C612    1.398   .     S
C565   H570    1.085   .     S
C565   C78     1.390   1_565 S
C566   C108    1.390   1_565 S
Cu567  N591    2.028   .     S
Cu567  O602    1.975   .     S
Cu567  O593    1.959   .     S
Cu567  O605    1.976   .     S
Cu567  O601    1.957   .     S
Cu568  O599    1.959   .     S
Cu568  O603    1.975   .     S
Cu568  N592    2.028   .     S
Cu568  O600    1.957   .     S
Cu568  O604    1.976   .     S
Cu568  Cu643   2.699   .     S
H575   O595    0.991   .     S
H576   O598    0.990   .     S
O594   S607    1.504   .     D
O595   S607    1.681   .     S
O596   S608    1.502   .     D
O597   S608    1.504   .     D
O598   S608    1.682   .     S
O600   C609    1.298   .     S
O603   C618    1.299   .     S
O606   S607    1.503   .     D
S607   C625    1.779   .     S
C609   O669    1.294   .     A
C609   C612    1.446   .     S
C610   C612    1.411   .     A
C610   C636    1.510   .     S
C611   C620    1.447   .     S
C611   C642    1.412   .     A
C611   C489    1.398   1_655 S
C613   C615    1.420   .     A
C613   H647    1.081   .     S
C613   N668    1.369   .     A
C614   C616    1.422   .     A
C614   N667    1.369   .     A
C614   H648    1.081   .     S
C615   N667    1.369   .     A
C615   H649    1.079   .     S
C616   H650    1.081   .     S
C616   N668    1.369   .     A
C617   O680    1.301   .     A
C617   C619    1.467   .     S
C617   O526    1.301   1_655 S
C618   O681    1.303   .     A
C618   C621    1.465   .     S
C619   C626    1.405   .     A
C619   C624    1.412   .     A
C620   O675    1.294   .     A
C620   O525    1.298   1_655 S
C621   C627    1.404   .     A
C621   C625    1.414   .     A
C622   H662    1.062   .     S
C622   C624    1.388   .     A
C622   C630    1.393   .     A
C623   C632    1.396   .     A
C623   C625    1.389   .     A
C623   H663    1.065   .     S
C624   S532    1.774   1_655 S
C626   H661    1.080   .     S
C626   C628    1.407   .     A
C627   C629    1.405   .     A
C627   H660    1.080   .     S
C628   C633    1.418   .     A
C628   C630    1.406   .     A
C629   C634    1.419   .     A
C629   C632    1.407   .     A
C630   C1322   1.393   .     S
C631   H664    1.079   .     S
C631   C634    1.411   .     A
C631   C638    1.385   .     A
C632   C1323   1.393   1_554 S
C633   C637    1.409   .     A
C633   C1318   1.428   .     S
C634   C1317   1.428   1_554 S
C635   H653    1.110   .     S
C635   C642    1.510   .     S
C635   H654    1.111   .     S
C635   H655    1.111   .     S
C636   H657    1.110   .     S
C636   H658    1.111   .     S
C636   H659    1.111   .     S
C637   H665    1.079   .     S
C637   C639    1.384   .     A
C638   H645    1.079   .     S
C638   C1314   1.393   1_554 S
C639   H656    1.076   .     S
C639   C1316   1.393   .     S
C640   H666    1.085   .     S
C640   C460    1.398   1_655 S
C641   H646    1.085   .     S
C641   C154    1.390   1_565 S
C642   C184    1.390   1_565 S
Cu643  N667    2.028   .     S
Cu643  O678    1.975   .     S
Cu643  O669    1.959   .     S
Cu643  O681    1.976   .     S
Cu643  O677    1.957   .     S
Cu644  O675    1.959   .     S
Cu644  O679    1.975   .     S
Cu644  N668    2.028   .     S
Cu644  O676    1.957   .     S
Cu644  O680    1.976   .     S
Cu644  Cu491   2.699   1_655 S
H651   O671    0.991   .     S
H652   O674    0.990   .     S
O670   S683    1.504   .     D
O671   S683    1.681   .     S
O672   S684    1.502   .     D
O673   S684    1.504   .     D
O674   S684    1.682   .     S
O676   C457    1.298   1_655 S
O679   C466    1.299   1_655 S
O682   S683    1.503   .     D
S683   C473    1.779   1_655 S
C685   O745    1.294   .     A
C685   C688    1.446   .     S
C685   O904    1.298   1_455 S
C686   C688    1.411   .     A
C686   C712    1.510   .     S
C686   C1173   1.390   1_545 S
C687   C696    1.447   .     S
C687   C718    1.412   .     A
C687   C793    1.398   .     S
C688   C868    1.398   1_455 S
C689   C691    1.420   .     A
C689   H723    1.081   .     S
C689   N744    1.369   .     A
C690   C692    1.422   .     A
C690   N743    1.369   .     A
C690   H724    1.081   .     S
C691   N743    1.369   .     A
C691   H725    1.079   .     S
C692   H726    1.081   .     S
C692   N744    1.369   .     A
C693   O756    1.301   .     A
C693   C695    1.467   .     S
C693   O830    1.301   .     S
C694   O757    1.303   .     A
C694   C697    1.465   .     S
C694   O907    1.299   1_455 S
C695   C702    1.405   .     A
C695   C700    1.412   .     A
C696   O751    1.294   .     A
C696   O829    1.298   .     S
C697   C703    1.404   .     A
C697   C701    1.414   .     A
C698   H738    1.062   .     S
C698   C700    1.388   .     A
C698   C706    1.393   .     A
C699   C708    1.396   .     A
C699   C701    1.389   .     A
C699   H739    1.065   .     S
C700   S836    1.774   .     S
C701   S911    1.779   1_455 S
C702   H737    1.080   .     S
C702   C704    1.407   .     A
C703   C705    1.405   .     A
C703   H736    1.080   .     S
C704   C709    1.418   .     A
C704   C706    1.406   .     A
C705   C710    1.419   .     A
C705   C708    1.407   .     A
C706   C30     1.393   1_556 S
C707   H740    1.079   .     S
C707   C710    1.411   .     A
C707   C714    1.385   .     A
C709   C713    1.409   .     A
C709   C26     1.428   1_556 S
C711   H729    1.110   .     S
C711   C718    1.510   .     S
C711   H730    1.111   .     S
C711   H731    1.111   .     S
C712   H733    1.110   .     S
C712   H734    1.111   .     S
C712   H735    1.111   .     S
C713   H741    1.079   .     S
C713   C715    1.384   .     A
C714   H721    1.079   .     S
C715   H732    1.076   .     S
C715   C24     1.393   1_556 S
C716   H742    1.085   .     S
C716   C764    1.398   .     S
C716   C1174   1.390   1_545 S
C717   H722    1.085   .     S
C717   C839    1.398   1_455 S
C717   C914    1.390   .     S
C718   C944    1.390   .     S
Cu719  N743    2.028   .     S
Cu719  O754    1.975   .     S
Cu719  O745    1.959   .     S
Cu719  O757    1.976   .     S
Cu719  O753    1.957   .     S
Cu719  Cu872   2.699   1_455 S
Cu720  O751    1.959   .     S
Cu720  O755    1.975   .     S
Cu720  N744    2.028   .     S
Cu720  O752    1.957   .     S
Cu720  O756    1.976   .     S
Cu720  Cu795   2.699   .     S
H727   O747    0.991   .     S
H728   O750    0.990   .     S
O746   S759    1.504   .     D
O747   S759    1.681   .     S
O748   S760    1.502   .     D
O749   S760    1.504   .     D
O750   S760    1.682   .     S
O752   C761    1.298   .     S
O753   C848    1.298   1_455 S
O754   C845    1.301   1_455 S
O755   C770    1.299   .     S
O758   S759    1.503   .     D
S759   C777    1.779   .     S
S760   C852    1.774   1_455 S
C761   O821    1.294   .     A
C761   C764    1.446   .     S
C762   C764    1.411   .     A
C762   C788    1.510   .     S
C762   C1249   1.390   1_545 S
C763   C772    1.447   .     S
C763   C794    1.412   .     A
C763   C869    1.398   .     S
C765   C767    1.420   .     A
C765   H799    1.081   .     S
C765   N820    1.369   .     A
C766   C768    1.422   .     A
C766   N819    1.369   .     A
C766   H800    1.081   .     S
C767   N819    1.369   .     A
C767   H801    1.079   .     S
C768   H802    1.081   .     S
C768   N820    1.369   .     A
C769   O832    1.301   .     A
C769   C771    1.467   .     S
C769   O906    1.301   .     S
C770   O833    1.303   .     A
C770   C773    1.465   .     S
C771   C778    1.405   .     A
C771   C776    1.412   .     A
C772   O827    1.294   .     A
C772   O905    1.298   .     S
C773   C779    1.404   .     A
C773   C777    1.414   .     A
C774   H814    1.062   .     S
C774   C776    1.388   .     A
C774   C782    1.393   .     A
C775   C784    1.396   .     A
C775   C777    1.389   .     A
C775   H815    1.065   .     S
C776   S912    1.774   .     S
C778   H813    1.080   .     S
C778   C780    1.407   .     A
C779   C781    1.405   .     A
C779   H812    1.080   .     S
C780   C785    1.418   .     A
C780   C782    1.406   .     A
C781   C786    1.419   .     A
C781   C784    1.407   .     A
C782   C106    1.393   1_556 S
C783   H816    1.079   .     S
C783   C786    1.411   .     A
C783   C790    1.385   .     A
C785   C789    1.409   .     A
C785   C102    1.428   1_556 S
C787   H805    1.110   .     S
C787   C794    1.510   .     S
C787   H806    1.111   .     S
C787   H807    1.111   .     S
C788   H809    1.110   .     S
C788   H810    1.111   .     S
C788   H811    1.111   .     S
C789   H817    1.079   .     S
C789   C791    1.384   .     A
C790   H797    1.079   .     S
C791   H808    1.076   .     S
C791   C100    1.393   1_556 S
C792   H818    1.085   .     S
C792   C840    1.398   .     S
C792   C1250   1.390   1_545 S
C793   H798    1.085   .     S
C793   C990    1.390   .     S
C794   C1020   1.390   .     S
Cu795  N819    2.028   .     S
Cu795  O830    1.975   .     S
Cu795  O821    1.959   .     S
Cu795  O833    1.976   .     S
Cu795  O829    1.957   .     S
Cu796  O827    1.959   .     S
Cu796  O831    1.975   .     S
Cu796  N820    2.028   .     S
Cu796  O828    1.957   .     S
Cu796  O832    1.976   .     S
Cu796  Cu871   2.699   .     S
H803   O823    0.991   .     S
H804   O826    0.990   .     S
O822   S835    1.504   .     D
O823   S835    1.681   .     S
O824   S836    1.502   .     D
O825   S836    1.504   .     D
O826   S836    1.682   .     S
O828   C837    1.298   .     S
O831   C846    1.299   .     S
O834   S835    1.503   .     D
S835   C853    1.779   .     S
C837   O897    1.294   .     A
C837   C840    1.446   .     S
C838   C840    1.411   .     A
C838   C864    1.510   .     S
C838   C1325   1.390   1_545 S
C839   C848    1.447   .     S
C839   C870    1.412   .     A
C839   C717    1.398   1_655 S
C841   C843    1.420   .     A
C841   H875    1.081   .     S
C841   N896    1.369   .     A
C842   C844    1.422   .     A
C842   N895    1.369   .     A
C842   H876    1.081   .     S
C843   N895    1.369   .     A
C843   H877    1.079   .     S
C844   H878    1.081   .     S
C844   N896    1.369   .     A
C845   O908    1.301   .     A
C845   C847    1.467   .     S
C845   O754    1.301   1_655 S
C846   O909    1.303   .     A
C846   C849    1.465   .     S
C847   C854    1.405   .     A
C847   C852    1.412   .     A
C848   O903    1.294   .     A
C848   O753    1.298   1_655 S
C849   C855    1.404   .     A
C849   C853    1.414   .     A
C850   H890    1.062   .     S
C850   C852    1.388   .     A
C850   C858    1.393   .     A
C851   C860    1.396   .     A
C851   C853    1.389   .     A
C851   H891    1.065   .     S
C852   S760    1.774   1_655 S
C854   H889    1.080   .     S
C854   C856    1.407   .     A
C855   C857    1.405   .     A
C855   H888    1.080   .     S
C856   C861    1.418   .     A
C856   C858    1.406   .     A
C857   C862    1.419   .     A
C857   C860    1.407   .     A
C858   C182    1.393   1_556 S
C859   H892    1.079   .     S
C859   C862    1.411   .     A
C859   C866    1.385   .     A
C861   C865    1.409   .     A
C861   C178    1.428   1_556 S
C863   H881    1.110   .     S
C863   C870    1.510   .     S
C863   H882    1.111   .     S
C863   H883    1.111   .     S
C864   H885    1.110   .     S
C864   H886    1.111   .     S
C864   H887    1.111   .     S
C865   H893    1.079   .     S
C865   C867    1.384   .     A
C866   H873    1.079   .     S
C867   H884    1.076   .     S
C867   C176    1.393   1_556 S
C868   H894    1.085   .     S
C868   C688    1.398   1_655 S
C868   C1326   1.390   1_545 S
C869   H874    1.085   .     S
C869   C1066   1.390   .     S
C870   C1096   1.390   .     S
Cu871  N895    2.028   .     S
Cu871  O906    1.975   .     S
Cu871  O897    1.959   .     S
Cu871  O909    1.976   .     S
Cu871  O905    1.957   .     S
Cu872  O903    1.959   .     S
Cu872  O907    1.975   .     S
Cu872  N896    2.028   .     S
Cu872  O904    1.957   .     S
Cu872  O908    1.976   .     S
Cu872  Cu719   2.699   1_655 S
H879   O899    0.991   .     S
H880   O902    0.990   .     S
O898   S911    1.504   .     D
O899   S911    1.681   .     S
O900   S912    1.502   .     D
O901   S912    1.504   .     D
O902   S912    1.682   .     S
O904   C685    1.298   1_655 S
O907   C694    1.299   1_655 S
O910   S911    1.503   .     D
S911   C701    1.779   1_655 S
C913   O973    1.294   .     A
C913   C916    1.446   .     S
C913   O1132   1.298   1_455 S
C914   C916    1.411   .     A
C914   C940    1.510   .     S
C915   C924    1.447   .     S
C915   C946    1.412   .     A
C915   C1021   1.398   .     S
C916   C1096   1.398   1_455 S
C917   C919    1.420   .     A
C917   H951    1.081   .     S
C917   N972    1.369   .     A
C918   C920    1.422   .     A
C918   N971    1.369   .     A
C918   H952    1.081   .     S
C919   N971    1.369   .     A
C919   H953    1.079   .     S
C920   H954    1.081   .     S
C920   N972    1.369   .     A
C921   O984    1.301   .     A
C921   C923    1.467   .     S
C921   O1058   1.301   .     S
C922   O985    1.303   .     A
C922   C925    1.465   .     S
C922   O1135   1.299   1_455 S
C923   C930    1.405   .     A
C923   C928    1.412   .     A
C924   O979    1.294   .     A
C924   O1057   1.298   .     S
C925   C931    1.404   .     A
C925   C929    1.414   .     A
C926   H966    1.062   .     S
C926   C928    1.388   .     A
C926   C934    1.393   .     A
C927   C936    1.396   .     A
C927   C929    1.389   .     A
C927   H967    1.065   .     S
C928   S1064   1.774   .     S
C929   S1139   1.779   1_455 S
C930   H965    1.080   .     S
C930   C932    1.407   .     A
C931   C933    1.405   .     A
C931   H964    1.080   .     S
C932   C937    1.418   .     A
C932   C934    1.406   .     A
C933   C938    1.419   .     A
C933   C936    1.407   .     A
C934   C258    1.393   1_556 S
C935   H968    1.079   .     S
C935   C938    1.411   .     A
C935   C942    1.385   .     A
C937   C941    1.409   .     A
C937   C254    1.428   1_556 S
C939   H957    1.110   .     S
C939   C946    1.510   .     S
C939   H958    1.111   .     S
C939   H959    1.111   .     S
C940   H961    1.110   .     S
C940   H962    1.111   .     S
C940   H963    1.111   .     S
C941   H969    1.079   .     S
C941   C943    1.384   .     A
C942   H949    1.079   .     S
C943   H960    1.076   .     S
C943   C252    1.393   1_556 S
C944   H970    1.085   .     S
C944   C992    1.398   .     S
C945   H950    1.085   .     S
C945   C1067   1.398   1_455 S
C945   C1142   1.390   .     S
C946   C1172   1.390   .     S
Cu947  N971    2.028   .     S
Cu947  O982    1.975   .     S
Cu947  O973    1.959   .     S
Cu947  O985    1.976   .     S
Cu947  O981    1.957   .     S
Cu947  Cu1100  2.699   1_455 S
Cu948  O979    1.959   .     S
Cu948  O983    1.975   .     S
Cu948  N972    2.028   .     S
Cu948  O980    1.957   .     S
Cu948  O984    1.976   .     S
Cu948  Cu1023  2.699   .     S
H955   O975    0.991   .     S
H956   O978    0.990   .     S
O974   S987    1.504   .     D
O975   S987    1.681   .     S
O976   S988    1.502   .     D
O977   S988    1.504   .     D
O978   S988    1.682   .     S
O980   C989    1.298   .     S
O981   C1076   1.298   1_455 S
O982   C1073   1.301   1_455 S
O983   C998    1.299   .     S
O986   S987    1.503   .     D
S987   C1005   1.779   .     S
S988   C1080   1.774   1_455 S
C989   O1049   1.294   .     A
C989   C992    1.446   .     S
C990   C992    1.411   .     A
C990   C1016   1.510   .     S
C991   C1000   1.447   .     S
C991   C1022   1.412   .     A
C991   C1097   1.398   .     S
C993   C995    1.420   .     A
C993   H1027   1.081   .     S
C993   N1048   1.369   .     A
C994   C996    1.422   .     A
C994   N1047   1.369   .     A
C994   H1028   1.081   .     S
C995   N1047   1.369   .     A
C995   H1029   1.079   .     S
C996   H1030   1.081   .     S
C996   N1048   1.369   .     A
C997   O1060   1.301   .     A
C997   C999    1.467   .     S
C997   O1134   1.301   .     S
C998   O1061   1.303   .     A
C998   C1001   1.465   .     S
C999   C1006   1.405   .     A
C999   C1004   1.412   .     A
C1000  O1055   1.294   .     A
C1000  O1133   1.298   .     S
C1001  C1007   1.404   .     A
C1001  C1005   1.414   .     A
C1002  H1042   1.062   .     S
C1002  C1004   1.388   .     A
C1002  C1010   1.393   .     A
C1003  C1012   1.396   .     A
C1003  C1005   1.389   .     A
C1003  H1043   1.065   .     S
C1004  S1140   1.774   .     S
C1006  H1041   1.080   .     S
C1006  C1008   1.407   .     A
C1007  C1009   1.405   .     A
C1007  H1040   1.080   .     S
C1008  C1013   1.418   .     A
C1008  C1010   1.406   .     A
C1009  C1014   1.419   .     A
C1009  C1012   1.407   .     A
C1010  C334    1.393   1_556 S
C1011  H1044   1.079   .     S
C1011  C1014   1.411   .     A
C1011  C1018   1.385   .     A
C1013  C1017   1.409   .     A
C1013  C330    1.428   1_556 S
C1015  H1033   1.110   .     S
C1015  C1022   1.510   .     S
C1015  H1034   1.111   .     S
C1015  H1035   1.111   .     S
C1016  H1037   1.110   .     S
C1016  H1038   1.111   .     S
C1016  H1039   1.111   .     S
C1017  H1045   1.079   .     S
C1017  C1019   1.384   .     A
C1018  H1025   1.079   .     S
C1019  H1036   1.076   .     S
C1019  C328    1.393   1_556 S
C1020  H1046   1.085   .     S
C1020  C1068   1.398   .     S
C1021  H1026   1.085   .     S
C1021  C1218   1.390   .     S
C1022  C1248   1.390   .     S
Cu1023 N1047   2.028   .     S
Cu1023 O1058   1.975   .     S
Cu1023 O1049   1.959   .     S
Cu1023 O1061   1.976   .     S
Cu1023 O1057   1.957   .     S
Cu1024 O1055   1.959   .     S
Cu1024 O1059   1.975   .     S
Cu1024 N1048   2.028   .     S
Cu1024 O1056   1.957   .     S
Cu1024 O1060   1.976   .     S
Cu1024 Cu1099  2.699   .     S
H1031  O1051   0.991   .     S
H1032  O1054   0.990   .     S
O1050  S1063   1.504   .     D
O1051  S1063   1.681   .     S
O1052  S1064   1.502   .     D
O1053  S1064   1.504   .     D
O1054  S1064   1.682   .     S
O1056  C1065   1.298   .     S
O1059  C1074   1.299   .     S
O1062  S1063   1.503   .     D
S1063  C1081   1.779   .     S
C1065  O1125   1.294   .     A
C1065  C1068   1.446   .     S
C1066  C1068   1.411   .     A
C1066  C1092   1.510   .     S
C1067  C1076   1.447   .     S
C1067  C1098   1.412   .     A
C1067  C945    1.398   1_655 S
C1069  C1071   1.420   .     A
C1069  H1103   1.081   .     S
C1069  N1124   1.369   .     A
C1070  C1072   1.422   .     A
C1070  N1123   1.369   .     A
C1070  H1104   1.081   .     S
C1071  N1123   1.369   .     A
C1071  H1105   1.079   .     S
C1072  H1106   1.081   .     S
C1072  N1124   1.369   .     A
C1073  O1136   1.301   .     A
C1073  C1075   1.467   .     S
C1073  O982    1.301   1_655 S
C1074  O1137   1.303   .     A
C1074  C1077   1.465   .     S
C1075  C1082   1.405   .     A
C1075  C1080   1.412   .     A
C1076  O1131   1.294   .     A
C1076  O981    1.298   1_655 S
C1077  C1083   1.404   .     A
C1077  C1081   1.414   .     A
C1078  H1118   1.062   .     S
C1078  C1080   1.388   .     A
C1078  C1086   1.393   .     A
C1079  C1088   1.396   .     A
C1079  C1081   1.389   .     A
C1079  H1119   1.065   .     S
C1080  S988    1.774   1_655 S
C1082  H1117   1.080   .     S
C1082  C1084   1.407   .     A
C1083  C1085   1.405   .     A
C1083  H1116   1.080   .     S
C1084  C1089   1.418   .     A
C1084  C1086   1.406   .     A
C1085  C1090   1.419   .     A
C1085  C1088   1.407   .     A
C1086  C410    1.393   1_556 S
C1087  H1120   1.079   .     S
C1087  C1090   1.411   .     A
C1087  C1094   1.385   .     A
C1089  C1093   1.409   .     A
C1089  C406    1.428   1_556 S
C1091  H1109   1.110   .     S
C1091  C1098   1.510   .     S
C1091  H1110   1.111   .     S
C1091  H1111   1.111   .     S
C1092  H1113   1.110   .     S
C1092  H1114   1.111   .     S
C1092  H1115   1.111   .     S
C1093  H1121   1.079   .     S
C1093  C1095   1.384   .     A
C1094  H1101   1.079   .     S
C1095  H1112   1.076   .     S
C1095  C404    1.393   1_556 S
C1096  H1122   1.085   .     S
C1096  C916    1.398   1_655 S
C1097  H1102   1.085   .     S
C1097  C1294   1.390   .     S
C1098  C1324   1.390   .     S
Cu1099 N1123   2.028   .     S
Cu1099 O1134   1.975   .     S
Cu1099 O1125   1.959   .     S
Cu1099 O1137   1.976   .     S
Cu1099 O1133   1.957   .     S
Cu1100 O1131   1.959   .     S
Cu1100 O1135   1.975   .     S
Cu1100 N1124   2.028   .     S
Cu1100 O1132   1.957   .     S
Cu1100 O1136   1.976   .     S
Cu1100 Cu947   2.699   1_655 S
H1107  O1127   0.991   .     S
H1108  O1130   0.990   .     S
O1126  S1139   1.504   .     D
O1127  S1139   1.681   .     S
O1128  S1140   1.502   .     D
O1129  S1140   1.504   .     D
O1130  S1140   1.682   .     S
O1132  C913    1.298   1_655 S
O1135  C922    1.299   1_655 S
O1138  S1139   1.503   .     D
S1139  C929    1.779   1_655 S
C1141  O1201   1.294   .     A
C1141  C1144   1.446   .     S
C1141  O1360   1.298   1_455 S
C1142  C1144   1.411   .     A
C1142  C1168   1.510   .     S
C1143  C1152   1.447   .     S
C1143  C1174   1.412   .     A
C1143  C1249   1.398   .     S
C1144  C1324   1.398   1_455 S
C1145  C1147   1.420   .     A
C1145  H1179   1.081   .     S
C1145  N1200   1.369   .     A
C1146  C1148   1.422   .     A
C1146  N1199   1.369   .     A
C1146  H1180   1.081   .     S
C1147  N1199   1.369   .     A
C1147  H1181   1.079   .     S
C1148  H1182   1.081   .     S
C1148  N1200   1.369   .     A
C1149  O1212   1.301   .     A
C1149  C1151   1.467   .     S
C1149  O1286   1.301   .     S
C1150  O1213   1.303   .     A
C1150  C1153   1.465   .     S
C1150  O1363   1.299   1_455 S
C1151  C1158   1.405   .     A
C1151  C1156   1.412   .     A
C1152  O1207   1.294   .     A
C1152  O1285   1.298   .     S
C1153  C1159   1.404   .     A
C1153  C1157   1.414   .     A
C1154  H1194   1.062   .     S
C1154  C1156   1.388   .     A
C1154  C1162   1.393   .     A
C1155  C1164   1.396   .     A
C1155  C1157   1.389   .     A
C1155  H1195   1.065   .     S
C1156  S1292   1.774   .     S
C1157  S1367   1.779   1_455 S
C1158  H1193   1.080   .     S
C1158  C1160   1.407   .     A
C1159  C1161   1.405   .     A
C1159  H1192   1.080   .     S
C1160  C1165   1.418   .     A
C1160  C1162   1.406   .     A
C1161  C1166   1.419   .     A
C1161  C1164   1.407   .     A
C1162  C486    1.393   1_556 S
C1163  H1196   1.079   .     S
C1163  C1166   1.411   .     A
C1163  C1170   1.385   .     A
C1165  C1169   1.409   .     A
C1165  C482    1.428   1_556 S
C1167  H1185   1.110   .     S
C1167  C1174   1.510   .     S
C1167  H1186   1.111   .     S
C1167  H1187   1.111   .     S
C1168  H1189   1.110   .     S
C1168  H1190   1.111   .     S
C1168  H1191   1.111   .     S
C1169  H1197   1.079   .     S
C1169  C1171   1.384   .     A
C1170  H1177   1.079   .     S
C1171  H1188   1.076   .     S
C1171  C480    1.393   1_556 S
C1172  H1198   1.085   .     S
C1172  C1220   1.398   .     S
C1173  H1178   1.085   .     S
C1173  C1295   1.398   1_455 S
C1173  C686    1.390   1_565 S
C1174  C716    1.390   1_565 S
Cu1175 N1199   2.028   .     S
Cu1175 O1210   1.975   .     S
Cu1175 O1201   1.959   .     S
Cu1175 O1213   1.976   .     S
Cu1175 O1209   1.957   .     S
Cu1175 Cu1328  2.699   1_455 S
Cu1176 O1207   1.959   .     S
Cu1176 O1211   1.975   .     S
Cu1176 N1200   2.028   .     S
Cu1176 O1208   1.957   .     S
Cu1176 O1212   1.976   .     S
Cu1176 Cu1251  2.699   .     S
H1183  O1203   0.991   .     S
H1184  O1206   0.990   .     S
O1202  S1215   1.504   .     D
O1203  S1215   1.681   .     S
O1204  S1216   1.502   .     D
O1205  S1216   1.504   .     D
O1206  S1216   1.682   .     S
O1208  C1217   1.298   .     S
O1209  C1304   1.298   1_455 S
O1210  C1301   1.301   1_455 S
O1211  C1226   1.299   .     S
O1214  S1215   1.503   .     D
S1215  C1233   1.779   .     S
S1216  C1308   1.774   1_455 S
C1217  O1277   1.294   .     A
C1217  C1220   1.446   .     S
C1218  C1220   1.411   .     A
C1218  C1244   1.510   .     S
C1219  C1228   1.447   .     S
C1219  C1250   1.412   .     A
C1219  C1325   1.398   .     S
C1221  C1223   1.420   .     A
C1221  H1255   1.081   .     S
C1221  N1276   1.369   .     A
C1222  C1224   1.422   .     A
C1222  N1275   1.369   .     A
C1222  H1256   1.081   .     S
C1223  N1275   1.369   .     A
C1223  H1257   1.079   .     S
C1224  H1258   1.081   .     S
C1224  N1276   1.369   .     A
C1225  O1288   1.301   .     A
C1225  C1227   1.467   .     S
C1225  O1362   1.301   .     S
C1226  O1289   1.303   .     A
C1226  C1229   1.465   .     S
C1227  C1234   1.405   .     A
C1227  C1232   1.412   .     A
C1228  O1283   1.294   .     A
C1228  O1361   1.298   .     S
C1229  C1235   1.404   .     A
C1229  C1233   1.414   .     A
C1230  H1270   1.062   .     S
C1230  C1232   1.388   .     A
C1230  C1238   1.393   .     A
C1231  C1240   1.396   .     A
C1231  C1233   1.389   .     A
C1231  H1271   1.065   .     S
C1232  S1368   1.774   .     S
C1234  H1269   1.080   .     S
C1234  C1236   1.407   .     A
C1235  C1237   1.405   .     A
C1235  H1268   1.080   .     S
C1236  C1241   1.418   .     A
C1236  C1238   1.406   .     A
C1237  C1242   1.419   .     A
C1237  C1240   1.407   .     A
C1238  C562    1.393   1_556 S
C1239  H1272   1.079   .     S
C1239  C1242   1.411   .     A
C1239  C1246   1.385   .     A
C1241  C1245   1.409   .     A
C1241  C558    1.428   1_556 S
C1243  H1261   1.110   .     S
C1243  C1250   1.510   .     S
C1243  H1262   1.111   .     S
C1243  H1263   1.111   .     S
C1244  H1265   1.110   .     S
C1244  H1266   1.111   .     S
C1244  H1267   1.111   .     S
C1245  H1273   1.079   .     S
C1245  C1247   1.384   .     A
C1246  H1253   1.079   .     S
C1247  H1264   1.076   .     S
C1247  C556    1.393   1_556 S
C1248  H1274   1.085   .     S
C1248  C1296   1.398   .     S
C1249  H1254   1.085   .     S
C1249  C762    1.390   1_565 S
C1250  C792    1.390   1_565 S
Cu1251 N1275   2.028   .     S
Cu1251 O1286   1.975   .     S
Cu1251 O1277   1.959   .     S
Cu1251 O1289   1.976   .     S
Cu1251 O1285   1.957   .     S
Cu1252 O1283   1.959   .     S
Cu1252 O1287   1.975   .     S
Cu1252 N1276   2.028   .     S
Cu1252 O1284   1.957   .     S
Cu1252 O1288   1.976   .     S
Cu1252 Cu1327  2.699   .     S
H1259  O1279   0.991   .     S
H1260  O1282   0.990   .     S
O1278  S1291   1.504   .     D
O1279  S1291   1.681   .     S
O1280  S1292   1.502   .     D
O1281  S1292   1.504   .     D
O1282  S1292   1.682   .     S
O1284  C1293   1.298   .     S
O1287  C1302   1.299   .     S
O1290  S1291   1.503   .     D
S1291  C1309   1.779   .     S
C1293  O1353   1.294   .     A
C1293  C1296   1.446   .     S
C1294  C1296   1.411   .     A
C1294  C1320   1.510   .     S
C1295  C1304   1.447   .     S
C1295  C1326   1.412   .     A
C1295  C1173   1.398   1_655 S
C1297  C1299   1.420   .     A
C1297  H1331   1.081   .     S
C1297  N1352   1.369   .     A
C1298  C1300   1.422   .     A
C1298  N1351   1.369   .     A
C1298  H1332   1.081   .     S
C1299  N1351   1.369   .     A
C1299  H1333   1.079   .     S
C1300  H1334   1.081   .     S
C1300  N1352   1.369   .     A
C1301  O1364   1.301   .     A
C1301  C1303   1.467   .     S
C1301  O1210   1.301   1_655 S
C1302  O1365   1.303   .     A
C1302  C1305   1.465   .     S
C1303  C1310   1.405   .     A
C1303  C1308   1.412   .     A
C1304  O1359   1.294   .     A
C1304  O1209   1.298   1_655 S
C1305  C1311   1.404   .     A
C1305  C1309   1.414   .     A
C1306  H1346   1.062   .     S
C1306  C1308   1.388   .     A
C1306  C1314   1.393   .     A
C1307  C1316   1.396   .     A
C1307  C1309   1.389   .     A
C1307  H1347   1.065   .     S
C1308  S1216   1.774   1_655 S
C1310  H1345   1.080   .     S
C1310  C1312   1.407   .     A
C1311  C1313   1.405   .     A
C1311  H1344   1.080   .     S
C1312  C1317   1.418   .     A
C1312  C1314   1.406   .     A
C1313  C1318   1.419   .     A
C1313  C1316   1.407   .     A
C1314  C638    1.393   1_556 S
C1315  H1348   1.079   .     S
C1315  C1318   1.411   .     A
C1315  C1322   1.385   .     A
C1317  C1321   1.409   .     A
C1317  C634    1.428   1_556 S
C1319  H1337   1.110   .     S
C1319  C1326   1.510   .     S
C1319  H1338   1.111   .     S
C1319  H1339   1.111   .     S
C1320  H1341   1.110   .     S
C1320  H1342   1.111   .     S
C1320  H1343   1.111   .     S
C1321  H1349   1.079   .     S
C1321  C1323   1.384   .     A
C1322  H1329   1.079   .     S
C1323  H1340   1.076   .     S
C1323  C632    1.393   1_556 S
C1324  H1350   1.085   .     S
C1324  C1144   1.398   1_655 S
C1325  H1330   1.085   .     S
C1325  C838    1.390   1_565 S
C1326  C868    1.390   1_565 S
Cu1327 N1351   2.028   .     S
Cu1327 O1362   1.975   .     S
Cu1327 O1353   1.959   .     S
Cu1327 O1365   1.976   .     S
Cu1327 O1361   1.957   .     S
Cu1328 O1359   1.959   .     S
Cu1328 O1363   1.975   .     S
Cu1328 N1352   2.028   .     S
Cu1328 O1360   1.957   .     S
Cu1328 O1364   1.976   .     S
Cu1328 Cu1175  2.699   1_655 S
H1335  O1355   0.991   .     S
H1336  O1358   0.990   .     S
O1354  S1367   1.504   .     D
O1355  S1367   1.681   .     S
O1356  S1368   1.502   .     D
O1357  S1368   1.504   .     D
O1358  S1368   1.682   .     S
O1360  C1141   1.298   1_655 S
O1363  C1150   1.299   1_655 S
O1366  S1367   1.503   .     D
S1367  C1157   1.779   1_655 S
