data_str_m2_o10_o17_pcu_sym.34
_audit_creation_date              2020-01-03
_audit_creation_method            'Materials Studio'
_symmetry_space_group_name_H-M    'P1'
_symmetry_Int_Tables_number       1
_symmetry_cell_setting            triclinic
loop_
_symmetry_equiv_pos_as_xyz
  x,y,z
_cell_length_a                    29.8902
_cell_length_b                    26.0620
_cell_length_c                    22.8585
_cell_angle_alpha                 103.6670
_cell_angle_beta                  95.5440
_cell_angle_gamma                 95.2297
loop_
_atom_site_label
_atom_site_type_symbol
_atom_site_fract_x
_atom_site_fract_y
_atom_site_fract_z
_atom_site_U_iso_or_equiv
_atom_site_adp_type
_atom_site_occupancy
C1     C     0.24863   0.06664   0.15090   0.00000  Uiso   1.00
C2     C     0.08784   0.11539   0.15045   0.00000  Uiso   1.00
C3     C     0.38359   0.16912   0.16712   0.00000  Uiso   1.00
C4     C     0.11641   0.16421   0.16621   0.00000  Uiso   1.00
C5     C     0.40107   0.12060   0.15138   0.00000  Uiso   1.00
C6     C     0.09893   0.21274   0.18195   0.00000  Uiso   1.00
C7     C     0.44739   0.11926   0.15134   0.00000  Uiso   1.00
C8     C     0.05261   0.21407   0.18199   0.00000  Uiso   1.00
C9     C     0.47657   0.16736   0.16677   0.00000  Uiso   1.00
C10    C     0.02343   0.16598   0.16656   0.00000  Uiso   1.00
C11    C     0.45898   0.21681   0.18241   0.00000  Uiso   1.00
C12    C     0.25137   0.26670   0.18244   0.00000  Uiso   1.00
C13    C     0.04102   0.11653   0.15092   0.00000  Uiso   1.00
C14    C     0.46490   0.07049   0.13621   0.00000  Uiso   1.00
C15    C     0.03510   0.26284   0.19712   0.00000  Uiso   1.00
C16    C     0.01130   0.06907   0.13601   0.00000  Uiso   1.00
C17    C     0.48870   0.26426   0.19732   0.00000  Uiso   1.00
C18    C     0.24789   0.01030   0.14251   0.00000  Uiso   1.00
C19    C     0.25211   0.32304   0.19083   0.00000  Uiso   1.00
C20    C     0.16474   0.16597   0.16654   0.00000  Uiso   1.00
C21    C     0.33526   0.16736   0.16680   0.00000  Uiso   1.00
C22    C     0.41216   0.21795   0.18288   0.00000  Uiso   1.00
Cu23   Cu    0.25500   0.17246   0.22813   0.00000  Uiso   1.00
Cu24   Cu    0.24499   0.16087   0.10521   0.00000  Uiso   1.00
H25    H     0.37835   0.08375   0.13952   0.00000  Uiso   1.00
H26    H     0.13743   0.07098   0.13665   0.00000  Uiso   1.00
H27    H     0.13379   0.06810   0.00802   0.00000  Uiso   1.00
H28    H     0.36633   0.26475   0.32484   0.00000  Uiso   1.00
H29    H     0.12165   0.24958   0.19381   0.00000  Uiso   1.00
H30    H     0.44268   0.03336   0.12452   0.00000  Uiso   1.00
H31    H     0.05732   0.29997   0.20881   0.00000  Uiso   1.00
H32    H     0.02371   0.03064   0.12410   0.00000  Uiso   1.00
H33    H     0.47629   0.30269   0.20923   0.00000  Uiso   1.00
H34    H     0.24383   0.31905   0.09631   0.00000  Uiso   1.00
H35    H     0.25617   0.01429   0.23703   0.00000  Uiso   1.00
H36    H     0.36257   0.26236   0.19667   0.00000  Uiso   1.00
N37    N     0.23744   0.15214   0.01284   0.00000  Uiso   1.00
N38    N     0.26255   0.18119   0.32049   0.00000  Uiso   1.00
O39    O     0.25325   0.09538   0.20659   0.00000  Uiso   1.00
O40    O     0.10410   0.06645   0.13486   0.00000  Uiso   1.00
O41    O     0.15125   0.16044   0.31407   0.00000  Uiso   1.00
O42    O     0.18283   0.08512   0.25150   0.00000  Uiso   1.00
O43    O     0.16624   0.07935   0.02315   0.00000  Uiso   1.00
O44    O     0.31718   0.24821   0.08182   0.00000  Uiso   1.00
O45    O     0.34874   0.17288   0.01926   0.00000  Uiso   1.00
O46    O     0.33376   0.25397   0.31017   0.00000  Uiso   1.00
O47    O     0.24674   0.23796   0.12674   0.00000  Uiso   1.00
O48    O     0.24480   0.08559   0.10279   0.00000  Uiso   1.00
O49    O     0.25520   0.24774   0.23055   0.00000  Uiso   1.00
O50    O     0.18935   0.17155   0.21857   0.00000  Uiso   1.00
O51    O     0.31064   0.16179   0.11476   0.00000  Uiso   1.00
O52    O     0.18090   0.16176   0.11477   0.00000  Uiso   1.00
O53    O     0.31910   0.17157   0.21857   0.00000  Uiso   1.00
O54    O     0.39590   0.26689   0.19845   0.00000  Uiso   1.00
S55    S     0.18402   0.11994   0.31401   0.00000  Uiso   1.00
S56    S     0.31598   0.21339   0.01931   0.00000  Uiso   1.00
C57    C     0.74863   0.06664   0.15090   0.00000  Uiso   1.00
C58    C     0.58784   0.11539   0.15045   0.00000  Uiso   1.00
C59    C     0.88359   0.16912   0.16712   0.00000  Uiso   1.00
C60    C     0.61641   0.16421   0.16621   0.00000  Uiso   1.00
C61    C     0.90107   0.12060   0.15138   0.00000  Uiso   1.00
C62    C     0.59893   0.21274   0.18195   0.00000  Uiso   1.00
C63    C     0.94739   0.11926   0.15134   0.00000  Uiso   1.00
C64    C     0.55261   0.21407   0.18199   0.00000  Uiso   1.00
C65    C     0.97657   0.16736   0.16677   0.00000  Uiso   1.00
C66    C     0.52343   0.16598   0.16656   0.00000  Uiso   1.00
C67    C     0.95898   0.21681   0.18241   0.00000  Uiso   1.00
C68    C     0.75137   0.26670   0.18244   0.00000  Uiso   1.00
C69    C     0.54102   0.11653   0.15092   0.00000  Uiso   1.00
C70    C     0.96490   0.07049   0.13621   0.00000  Uiso   1.00
C71    C     0.53510   0.26284   0.19712   0.00000  Uiso   1.00
C72    C     0.51130   0.06907   0.13601   0.00000  Uiso   1.00
C73    C     0.98870   0.26426   0.19732   0.00000  Uiso   1.00
C74    C     0.74789   0.01030   0.14251   0.00000  Uiso   1.00
C75    C     0.75211   0.32304   0.19083   0.00000  Uiso   1.00
C76    C     0.66474   0.16597   0.16654   0.00000  Uiso   1.00
C77    C     0.83526   0.16736   0.16680   0.00000  Uiso   1.00
C78    C     0.91216   0.21795   0.18288   0.00000  Uiso   1.00
Cu79   Cu    0.75500   0.17246   0.22813   0.00000  Uiso   1.00
Cu80   Cu    0.74499   0.16087   0.10521   0.00000  Uiso   1.00
H81    H     0.87835   0.08375   0.13952   0.00000  Uiso   1.00
H82    H     0.63743   0.07098   0.13665   0.00000  Uiso   1.00
H83    H     0.63379   0.06810   0.00802   0.00000  Uiso   1.00
H84    H     0.86633   0.26475   0.32484   0.00000  Uiso   1.00
H85    H     0.62165   0.24958   0.19381   0.00000  Uiso   1.00
H86    H     0.94268   0.03336   0.12452   0.00000  Uiso   1.00
H87    H     0.55732   0.29997   0.20881   0.00000  Uiso   1.00
H88    H     0.52371   0.03064   0.12410   0.00000  Uiso   1.00
H89    H     0.97629   0.30269   0.20923   0.00000  Uiso   1.00
H90    H     0.74383   0.31905   0.09631   0.00000  Uiso   1.00
H91    H     0.75617   0.01429   0.23703   0.00000  Uiso   1.00
H92    H     0.86257   0.26236   0.19667   0.00000  Uiso   1.00
N93    N     0.73744   0.15214   0.01284   0.00000  Uiso   1.00
N94    N     0.76255   0.18119   0.32049   0.00000  Uiso   1.00
O95    O     0.75325   0.09538   0.20659   0.00000  Uiso   1.00
O96    O     0.60410   0.06645   0.13486   0.00000  Uiso   1.00
O97    O     0.65125   0.16044   0.31407   0.00000  Uiso   1.00
O98    O     0.68283   0.08512   0.25150   0.00000  Uiso   1.00
O99    O     0.66624   0.07935   0.02315   0.00000  Uiso   1.00
O100   O     0.81718   0.24821   0.08182   0.00000  Uiso   1.00
O101   O     0.84874   0.17288   0.01926   0.00000  Uiso   1.00
O102   O     0.83376   0.25397   0.31017   0.00000  Uiso   1.00
O103   O     0.74674   0.23796   0.12674   0.00000  Uiso   1.00
O104   O     0.74480   0.08559   0.10279   0.00000  Uiso   1.00
O105   O     0.75520   0.24774   0.23055   0.00000  Uiso   1.00
O106   O     0.68935   0.17155   0.21857   0.00000  Uiso   1.00
O107   O     0.81064   0.16179   0.11476   0.00000  Uiso   1.00
O108   O     0.68090   0.16176   0.11477   0.00000  Uiso   1.00
O109   O     0.81910   0.17157   0.21857   0.00000  Uiso   1.00
O110   O     0.89590   0.26689   0.19845   0.00000  Uiso   1.00
S111   S     0.68402   0.11994   0.31401   0.00000  Uiso   1.00
S112   S     0.81598   0.21339   0.01931   0.00000  Uiso   1.00
C113   C     0.24863   0.39997   0.15090   0.00000  Uiso   1.00
C114   C     0.08784   0.44872   0.15045   0.00000  Uiso   1.00
C115   C     0.38359   0.50246   0.16712   0.00000  Uiso   1.00
C116   C     0.11641   0.49754   0.16621   0.00000  Uiso   1.00
C117   C     0.40107   0.45393   0.15138   0.00000  Uiso   1.00
C118   C     0.09893   0.54607   0.18195   0.00000  Uiso   1.00
C119   C     0.44739   0.45260   0.15134   0.00000  Uiso   1.00
C120   C     0.05261   0.54740   0.18199   0.00000  Uiso   1.00
C121   C     0.47657   0.50069   0.16677   0.00000  Uiso   1.00
C122   C     0.02343   0.49931   0.16656   0.00000  Uiso   1.00
C123   C     0.45898   0.55014   0.18241   0.00000  Uiso   1.00
C124   C     0.25137   0.60003   0.18244   0.00000  Uiso   1.00
C125   C     0.04102   0.44986   0.15092   0.00000  Uiso   1.00
C126   C     0.46490   0.40382   0.13621   0.00000  Uiso   1.00
C127   C     0.03510   0.59618   0.19712   0.00000  Uiso   1.00
C128   C     0.01130   0.40241   0.13601   0.00000  Uiso   1.00
C129   C     0.48870   0.59759   0.19732   0.00000  Uiso   1.00
C130   C     0.24789   0.34363   0.14251   0.00000  Uiso   1.00
C131   C     0.25211   0.65637   0.19083   0.00000  Uiso   1.00
C132   C     0.16474   0.49930   0.16654   0.00000  Uiso   1.00
C133   C     0.33526   0.50070   0.16680   0.00000  Uiso   1.00
C134   C     0.41216   0.55128   0.18288   0.00000  Uiso   1.00
Cu135  Cu    0.25500   0.50579   0.22813   0.00000  Uiso   1.00
Cu136  Cu    0.24499   0.49421   0.10521   0.00000  Uiso   1.00
H137   H     0.37835   0.41709   0.13952   0.00000  Uiso   1.00
H138   H     0.13743   0.40431   0.13665   0.00000  Uiso   1.00
H139   H     0.13379   0.40144   0.00802   0.00000  Uiso   1.00
H140   H     0.36633   0.59808   0.32484   0.00000  Uiso   1.00
H141   H     0.12165   0.58291   0.19381   0.00000  Uiso   1.00
H142   H     0.44268   0.36669   0.12452   0.00000  Uiso   1.00
H143   H     0.05732   0.63331   0.20881   0.00000  Uiso   1.00
H144   H     0.02371   0.36398   0.12410   0.00000  Uiso   1.00
H145   H     0.47629   0.63602   0.20923   0.00000  Uiso   1.00
H146   H     0.24383   0.65238   0.09631   0.00000  Uiso   1.00
H147   H     0.25617   0.34762   0.23703   0.00000  Uiso   1.00
H148   H     0.36257   0.59569   0.19667   0.00000  Uiso   1.00
N149   N     0.23744   0.48547   0.01284   0.00000  Uiso   1.00
N150   N     0.26255   0.51453   0.32049   0.00000  Uiso   1.00
O151   O     0.25325   0.42871   0.20659   0.00000  Uiso   1.00
O152   O     0.10410   0.39978   0.13486   0.00000  Uiso   1.00
O153   O     0.15125   0.49378   0.31407   0.00000  Uiso   1.00
O154   O     0.18283   0.41846   0.25150   0.00000  Uiso   1.00
O155   O     0.16624   0.41269   0.02315   0.00000  Uiso   1.00
O156   O     0.31718   0.58155   0.08182   0.00000  Uiso   1.00
O157   O     0.34874   0.50621   0.01926   0.00000  Uiso   1.00
O158   O     0.33376   0.58730   0.31017   0.00000  Uiso   1.00
O159   O     0.24674   0.57129   0.12674   0.00000  Uiso   1.00
O160   O     0.24480   0.41892   0.10279   0.00000  Uiso   1.00
O161   O     0.25520   0.58108   0.23055   0.00000  Uiso   1.00
O162   O     0.18935   0.50488   0.21857   0.00000  Uiso   1.00
O163   O     0.31064   0.49512   0.11476   0.00000  Uiso   1.00
O164   O     0.18090   0.49510   0.11477   0.00000  Uiso   1.00
O165   O     0.31910   0.50490   0.21857   0.00000  Uiso   1.00
O166   O     0.39590   0.60022   0.19845   0.00000  Uiso   1.00
S167   S     0.18402   0.45327   0.31401   0.00000  Uiso   1.00
S168   S     0.31598   0.54672   0.01931   0.00000  Uiso   1.00
C169   C     0.74863   0.39997   0.15090   0.00000  Uiso   1.00
C170   C     0.58784   0.44872   0.15045   0.00000  Uiso   1.00
C171   C     0.88359   0.50246   0.16712   0.00000  Uiso   1.00
C172   C     0.61641   0.49754   0.16621   0.00000  Uiso   1.00
C173   C     0.90107   0.45393   0.15138   0.00000  Uiso   1.00
C174   C     0.59893   0.54607   0.18195   0.00000  Uiso   1.00
C175   C     0.94739   0.45260   0.15134   0.00000  Uiso   1.00
C176   C     0.55261   0.54740   0.18199   0.00000  Uiso   1.00
C177   C     0.97657   0.50069   0.16677   0.00000  Uiso   1.00
C178   C     0.52343   0.49931   0.16656   0.00000  Uiso   1.00
C179   C     0.95898   0.55014   0.18241   0.00000  Uiso   1.00
C180   C     0.75137   0.60003   0.18244   0.00000  Uiso   1.00
C181   C     0.54102   0.44986   0.15092   0.00000  Uiso   1.00
C182   C     0.96490   0.40382   0.13621   0.00000  Uiso   1.00
C183   C     0.53510   0.59618   0.19712   0.00000  Uiso   1.00
C184   C     0.51130   0.40241   0.13601   0.00000  Uiso   1.00
C185   C     0.98870   0.59759   0.19732   0.00000  Uiso   1.00
C186   C     0.74789   0.34363   0.14251   0.00000  Uiso   1.00
C187   C     0.75211   0.65637   0.19083   0.00000  Uiso   1.00
C188   C     0.66474   0.49930   0.16654   0.00000  Uiso   1.00
C189   C     0.83526   0.50070   0.16680   0.00000  Uiso   1.00
C190   C     0.91216   0.55128   0.18288   0.00000  Uiso   1.00
Cu191  Cu    0.75500   0.50579   0.22813   0.00000  Uiso   1.00
Cu192  Cu    0.74499   0.49421   0.10521   0.00000  Uiso   1.00
H193   H     0.87835   0.41709   0.13952   0.00000  Uiso   1.00
H194   H     0.63743   0.40431   0.13665   0.00000  Uiso   1.00
H195   H     0.63379   0.40144   0.00802   0.00000  Uiso   1.00
H196   H     0.86633   0.59808   0.32484   0.00000  Uiso   1.00
H197   H     0.62165   0.58291   0.19381   0.00000  Uiso   1.00
H198   H     0.94268   0.36669   0.12452   0.00000  Uiso   1.00
H199   H     0.55732   0.63331   0.20881   0.00000  Uiso   1.00
H200   H     0.52371   0.36398   0.12410   0.00000  Uiso   1.00
H201   H     0.97629   0.63602   0.20923   0.00000  Uiso   1.00
H202   H     0.74383   0.65238   0.09631   0.00000  Uiso   1.00
H203   H     0.75617   0.34762   0.23703   0.00000  Uiso   1.00
H204   H     0.86257   0.59569   0.19667   0.00000  Uiso   1.00
N205   N     0.73744   0.48547   0.01284   0.00000  Uiso   1.00
N206   N     0.76255   0.51453   0.32049   0.00000  Uiso   1.00
O207   O     0.75325   0.42871   0.20659   0.00000  Uiso   1.00
O208   O     0.60410   0.39978   0.13486   0.00000  Uiso   1.00
O209   O     0.65125   0.49378   0.31407   0.00000  Uiso   1.00
O210   O     0.68283   0.41846   0.25150   0.00000  Uiso   1.00
O211   O     0.66624   0.41269   0.02315   0.00000  Uiso   1.00
O212   O     0.81718   0.58155   0.08182   0.00000  Uiso   1.00
O213   O     0.84874   0.50621   0.01926   0.00000  Uiso   1.00
O214   O     0.83376   0.58730   0.31017   0.00000  Uiso   1.00
O215   O     0.74674   0.57129   0.12674   0.00000  Uiso   1.00
O216   O     0.74480   0.41892   0.10279   0.00000  Uiso   1.00
O217   O     0.75520   0.58108   0.23055   0.00000  Uiso   1.00
O218   O     0.68935   0.50488   0.21857   0.00000  Uiso   1.00
O219   O     0.81064   0.49512   0.11476   0.00000  Uiso   1.00
O220   O     0.68090   0.49510   0.11477   0.00000  Uiso   1.00
O221   O     0.81910   0.50490   0.21857   0.00000  Uiso   1.00
O222   O     0.89590   0.60022   0.19845   0.00000  Uiso   1.00
S223   S     0.68402   0.45327   0.31401   0.00000  Uiso   1.00
S224   S     0.81598   0.54672   0.01931   0.00000  Uiso   1.00
C225   C     0.24863   0.73330   0.15090   0.00000  Uiso   1.00
C226   C     0.08784   0.78205   0.15045   0.00000  Uiso   1.00
C227   C     0.38359   0.83579   0.16712   0.00000  Uiso   1.00
C228   C     0.11641   0.83088   0.16621   0.00000  Uiso   1.00
C229   C     0.40107   0.78726   0.15138   0.00000  Uiso   1.00
C230   C     0.09893   0.87940   0.18195   0.00000  Uiso   1.00
C231   C     0.44739   0.78593   0.15134   0.00000  Uiso   1.00
C232   C     0.05261   0.88074   0.18199   0.00000  Uiso   1.00
C233   C     0.47657   0.83402   0.16677   0.00000  Uiso   1.00
C234   C     0.02343   0.83264   0.16656   0.00000  Uiso   1.00
C235   C     0.45898   0.88347   0.18241   0.00000  Uiso   1.00
C236   C     0.25137   0.93336   0.18244   0.00000  Uiso   1.00
C237   C     0.04102   0.78319   0.15092   0.00000  Uiso   1.00
C238   C     0.46490   0.73716   0.13621   0.00000  Uiso   1.00
C239   C     0.03510   0.92951   0.19712   0.00000  Uiso   1.00
C240   C     0.01130   0.73574   0.13601   0.00000  Uiso   1.00
C241   C     0.48870   0.93093   0.19732   0.00000  Uiso   1.00
C242   C     0.24789   0.67696   0.14251   0.00000  Uiso   1.00
C243   C     0.25211   0.98970   0.19083   0.00000  Uiso   1.00
C244   C     0.16474   0.83264   0.16654   0.00000  Uiso   1.00
C245   C     0.33526   0.83403   0.16680   0.00000  Uiso   1.00
C246   C     0.41216   0.88461   0.18288   0.00000  Uiso   1.00
Cu247  Cu    0.25500   0.83913   0.22813   0.00000  Uiso   1.00
Cu248  Cu    0.24499   0.82754   0.10521   0.00000  Uiso   1.00
H249   H     0.37835   0.75042   0.13952   0.00000  Uiso   1.00
H250   H     0.13743   0.73764   0.13665   0.00000  Uiso   1.00
H251   H     0.13379   0.73477   0.00802   0.00000  Uiso   1.00
H252   H     0.36633   0.93141   0.32484   0.00000  Uiso   1.00
H253   H     0.12165   0.91625   0.19381   0.00000  Uiso   1.00
H254   H     0.44268   0.70003   0.12452   0.00000  Uiso   1.00
H255   H     0.05732   0.96664   0.20881   0.00000  Uiso   1.00
H256   H     0.02371   0.69731   0.12410   0.00000  Uiso   1.00
H257   H     0.47629   0.96936   0.20923   0.00000  Uiso   1.00
H258   H     0.24383   0.98571   0.09631   0.00000  Uiso   1.00
H259   H     0.25617   0.68095   0.23703   0.00000  Uiso   1.00
H260   H     0.36257   0.92902   0.19667   0.00000  Uiso   1.00
N261   N     0.23744   0.81881   0.01284   0.00000  Uiso   1.00
N262   N     0.26255   0.84786   0.32049   0.00000  Uiso   1.00
O263   O     0.25325   0.76204   0.20659   0.00000  Uiso   1.00
O264   O     0.10410   0.73311   0.13486   0.00000  Uiso   1.00
O265   O     0.15125   0.82711   0.31407   0.00000  Uiso   1.00
O266   O     0.18283   0.75179   0.25150   0.00000  Uiso   1.00
O267   O     0.16624   0.74602   0.02315   0.00000  Uiso   1.00
O268   O     0.31718   0.91488   0.08182   0.00000  Uiso   1.00
O269   O     0.34874   0.83954   0.01926   0.00000  Uiso   1.00
O270   O     0.33376   0.92064   0.31017   0.00000  Uiso   1.00
O271   O     0.24674   0.90462   0.12674   0.00000  Uiso   1.00
O272   O     0.24480   0.75226   0.10279   0.00000  Uiso   1.00
O273   O     0.25520   0.91441   0.23055   0.00000  Uiso   1.00
O274   O     0.18935   0.83821   0.21857   0.00000  Uiso   1.00
O275   O     0.31064   0.82845   0.11476   0.00000  Uiso   1.00
O276   O     0.18090   0.82843   0.11477   0.00000  Uiso   1.00
O277   O     0.31910   0.83824   0.21857   0.00000  Uiso   1.00
O278   O     0.39590   0.93355   0.19845   0.00000  Uiso   1.00
S279   S     0.18402   0.78661   0.31401   0.00000  Uiso   1.00
S280   S     0.31598   0.88006   0.01931   0.00000  Uiso   1.00
C281   C     0.74863   0.73330   0.15090   0.00000  Uiso   1.00
C282   C     0.58784   0.78205   0.15045   0.00000  Uiso   1.00
C283   C     0.88359   0.83579   0.16712   0.00000  Uiso   1.00
C284   C     0.61641   0.83088   0.16621   0.00000  Uiso   1.00
C285   C     0.90107   0.78726   0.15138   0.00000  Uiso   1.00
C286   C     0.59893   0.87940   0.18195   0.00000  Uiso   1.00
C287   C     0.94739   0.78593   0.15134   0.00000  Uiso   1.00
C288   C     0.55261   0.88074   0.18199   0.00000  Uiso   1.00
C289   C     0.97657   0.83402   0.16677   0.00000  Uiso   1.00
C290   C     0.52343   0.83264   0.16656   0.00000  Uiso   1.00
C291   C     0.95898   0.88347   0.18241   0.00000  Uiso   1.00
C292   C     0.75137   0.93336   0.18244   0.00000  Uiso   1.00
C293   C     0.54102   0.78319   0.15092   0.00000  Uiso   1.00
C294   C     0.96490   0.73716   0.13621   0.00000  Uiso   1.00
C295   C     0.53510   0.92951   0.19712   0.00000  Uiso   1.00
C296   C     0.51130   0.73574   0.13601   0.00000  Uiso   1.00
C297   C     0.98870   0.93093   0.19732   0.00000  Uiso   1.00
C298   C     0.74789   0.67696   0.14251   0.00000  Uiso   1.00
C299   C     0.75211   0.98970   0.19083   0.00000  Uiso   1.00
C300   C     0.66474   0.83264   0.16654   0.00000  Uiso   1.00
C301   C     0.83526   0.83403   0.16680   0.00000  Uiso   1.00
C302   C     0.91216   0.88461   0.18288   0.00000  Uiso   1.00
Cu303  Cu    0.75500   0.83913   0.22813   0.00000  Uiso   1.00
Cu304  Cu    0.74499   0.82754   0.10521   0.00000  Uiso   1.00
H305   H     0.87835   0.75042   0.13952   0.00000  Uiso   1.00
H306   H     0.63743   0.73764   0.13665   0.00000  Uiso   1.00
H307   H     0.63379   0.73477   0.00802   0.00000  Uiso   1.00
H308   H     0.86633   0.93141   0.32484   0.00000  Uiso   1.00
H309   H     0.62165   0.91625   0.19381   0.00000  Uiso   1.00
H310   H     0.94268   0.70003   0.12452   0.00000  Uiso   1.00
H311   H     0.55732   0.96664   0.20881   0.00000  Uiso   1.00
H312   H     0.52371   0.69731   0.12410   0.00000  Uiso   1.00
H313   H     0.97629   0.96936   0.20923   0.00000  Uiso   1.00
H314   H     0.74383   0.98571   0.09631   0.00000  Uiso   1.00
H315   H     0.75617   0.68095   0.23703   0.00000  Uiso   1.00
H316   H     0.86257   0.92902   0.19667   0.00000  Uiso   1.00
N317   N     0.73744   0.81881   0.01284   0.00000  Uiso   1.00
N318   N     0.76255   0.84786   0.32049   0.00000  Uiso   1.00
O319   O     0.75325   0.76204   0.20659   0.00000  Uiso   1.00
O320   O     0.60410   0.73311   0.13486   0.00000  Uiso   1.00
O321   O     0.65125   0.82711   0.31407   0.00000  Uiso   1.00
O322   O     0.68283   0.75179   0.25150   0.00000  Uiso   1.00
O323   O     0.66624   0.74602   0.02315   0.00000  Uiso   1.00
O324   O     0.81718   0.91488   0.08182   0.00000  Uiso   1.00
O325   O     0.84874   0.83954   0.01926   0.00000  Uiso   1.00
O326   O     0.83376   0.92064   0.31017   0.00000  Uiso   1.00
O327   O     0.74674   0.90462   0.12674   0.00000  Uiso   1.00
O328   O     0.74480   0.75226   0.10279   0.00000  Uiso   1.00
O329   O     0.75520   0.91441   0.23055   0.00000  Uiso   1.00
O330   O     0.68935   0.83821   0.21857   0.00000  Uiso   1.00
O331   O     0.81064   0.82845   0.11476   0.00000  Uiso   1.00
O332   O     0.68090   0.82843   0.11477   0.00000  Uiso   1.00
O333   O     0.81910   0.83824   0.21857   0.00000  Uiso   1.00
O334   O     0.89590   0.93355   0.19845   0.00000  Uiso   1.00
S335   S     0.68402   0.78661   0.31401   0.00000  Uiso   1.00
S336   S     0.81598   0.88006   0.01931   0.00000  Uiso   1.00
C337   C     0.24863   0.06664   0.48423   0.00000  Uiso   1.00
C338   C     0.08784   0.11539   0.48378   0.00000  Uiso   1.00
C339   C     0.38359   0.16912   0.50046   0.00000  Uiso   1.00
C340   C     0.11641   0.16421   0.49954   0.00000  Uiso   1.00
C341   C     0.40107   0.12060   0.48472   0.00000  Uiso   1.00
C342   C     0.09893   0.21274   0.51529   0.00000  Uiso   1.00
C343   C     0.44739   0.11926   0.48468   0.00000  Uiso   1.00
C344   C     0.05261   0.21407   0.51532   0.00000  Uiso   1.00
C345   C     0.47657   0.16736   0.50011   0.00000  Uiso   1.00
C346   C     0.02343   0.16598   0.49989   0.00000  Uiso   1.00
C347   C     0.45898   0.21681   0.51574   0.00000  Uiso   1.00
C348   C     0.25137   0.26670   0.51577   0.00000  Uiso   1.00
C349   C     0.04102   0.11653   0.48425   0.00000  Uiso   1.00
C350   C     0.46490   0.07049   0.46954   0.00000  Uiso   1.00
C351   C     0.03510   0.26284   0.53046   0.00000  Uiso   1.00
C352   C     0.01130   0.06907   0.46934   0.00000  Uiso   1.00
C353   C     0.48870   0.26426   0.53066   0.00000  Uiso   1.00
C354   C     0.24789   0.01030   0.47584   0.00000  Uiso   1.00
C355   C     0.25211   0.32304   0.52416   0.00000  Uiso   1.00
C356   C     0.16474   0.16597   0.49987   0.00000  Uiso   1.00
C357   C     0.33526   0.16736   0.50013   0.00000  Uiso   1.00
C358   C     0.41216   0.21795   0.51621   0.00000  Uiso   1.00
Cu359  Cu    0.25500   0.17246   0.56146   0.00000  Uiso   1.00
Cu360  Cu    0.24499   0.16087   0.43854   0.00000  Uiso   1.00
H361   H     0.37835   0.08375   0.47286   0.00000  Uiso   1.00
H362   H     0.13743   0.07098   0.46998   0.00000  Uiso   1.00
H363   H     0.13379   0.06810   0.34136   0.00000  Uiso   1.00
H364   H     0.36633   0.26475   0.65817   0.00000  Uiso   1.00
H365   H     0.12165   0.24958   0.52715   0.00000  Uiso   1.00
H366   H     0.44268   0.03336   0.45786   0.00000  Uiso   1.00
H367   H     0.05732   0.29997   0.54214   0.00000  Uiso   1.00
H368   H     0.02371   0.03064   0.45743   0.00000  Uiso   1.00
H369   H     0.47629   0.30269   0.54257   0.00000  Uiso   1.00
H370   H     0.24383   0.31905   0.42964   0.00000  Uiso   1.00
H371   H     0.25617   0.01429   0.57036   0.00000  Uiso   1.00
H372   H     0.36257   0.26236   0.53000   0.00000  Uiso   1.00
N373   N     0.23744   0.15214   0.34617   0.00000  Uiso   1.00
N374   N     0.26255   0.18119   0.65383   0.00000  Uiso   1.00
O375   O     0.25325   0.09538   0.53992   0.00000  Uiso   1.00
O376   O     0.10410   0.06645   0.46820   0.00000  Uiso   1.00
O377   O     0.15125   0.16044   0.64740   0.00000  Uiso   1.00
O378   O     0.18283   0.08512   0.58484   0.00000  Uiso   1.00
O379   O     0.16624   0.07935   0.35648   0.00000  Uiso   1.00
O380   O     0.31718   0.24821   0.41516   0.00000  Uiso   1.00
O381   O     0.34874   0.17288   0.35259   0.00000  Uiso   1.00
O382   O     0.33376   0.25397   0.64350   0.00000  Uiso   1.00
O383   O     0.24674   0.23796   0.46008   0.00000  Uiso   1.00
O384   O     0.24480   0.08559   0.43612   0.00000  Uiso   1.00
O385   O     0.25520   0.24774   0.56388   0.00000  Uiso   1.00
O386   O     0.18935   0.17155   0.55191   0.00000  Uiso   1.00
O387   O     0.31064   0.16179   0.44809   0.00000  Uiso   1.00
O388   O     0.18090   0.16176   0.44810   0.00000  Uiso   1.00
O389   O     0.31910   0.17157   0.55190   0.00000  Uiso   1.00
O390   O     0.39590   0.26689   0.53179   0.00000  Uiso   1.00
S391   S     0.18402   0.11994   0.64735   0.00000  Uiso   1.00
S392   S     0.31598   0.21339   0.35265   0.00000  Uiso   1.00
C393   C     0.74863   0.06664   0.48423   0.00000  Uiso   1.00
C394   C     0.58784   0.11539   0.48378   0.00000  Uiso   1.00
C395   C     0.88359   0.16912   0.50046   0.00000  Uiso   1.00
C396   C     0.61641   0.16421   0.49954   0.00000  Uiso   1.00
C397   C     0.90107   0.12060   0.48472   0.00000  Uiso   1.00
C398   C     0.59893   0.21274   0.51529   0.00000  Uiso   1.00
C399   C     0.94739   0.11926   0.48468   0.00000  Uiso   1.00
C400   C     0.55261   0.21407   0.51532   0.00000  Uiso   1.00
C401   C     0.97657   0.16736   0.50011   0.00000  Uiso   1.00
C402   C     0.52343   0.16598   0.49989   0.00000  Uiso   1.00
C403   C     0.95898   0.21681   0.51574   0.00000  Uiso   1.00
C404   C     0.75137   0.26670   0.51577   0.00000  Uiso   1.00
C405   C     0.54102   0.11653   0.48425   0.00000  Uiso   1.00
C406   C     0.96490   0.07049   0.46954   0.00000  Uiso   1.00
C407   C     0.53510   0.26284   0.53046   0.00000  Uiso   1.00
C408   C     0.51130   0.06907   0.46934   0.00000  Uiso   1.00
C409   C     0.98870   0.26426   0.53066   0.00000  Uiso   1.00
C410   C     0.74789   0.01030   0.47584   0.00000  Uiso   1.00
C411   C     0.75211   0.32304   0.52416   0.00000  Uiso   1.00
C412   C     0.66474   0.16597   0.49987   0.00000  Uiso   1.00
C413   C     0.83526   0.16736   0.50013   0.00000  Uiso   1.00
C414   C     0.91216   0.21795   0.51621   0.00000  Uiso   1.00
Cu415  Cu    0.75500   0.17246   0.56146   0.00000  Uiso   1.00
Cu416  Cu    0.74499   0.16087   0.43854   0.00000  Uiso   1.00
H417   H     0.87835   0.08375   0.47286   0.00000  Uiso   1.00
H418   H     0.63743   0.07098   0.46998   0.00000  Uiso   1.00
H419   H     0.63379   0.06810   0.34136   0.00000  Uiso   1.00
H420   H     0.86633   0.26475   0.65817   0.00000  Uiso   1.00
H421   H     0.62165   0.24958   0.52715   0.00000  Uiso   1.00
H422   H     0.94268   0.03336   0.45786   0.00000  Uiso   1.00
H423   H     0.55732   0.29997   0.54214   0.00000  Uiso   1.00
H424   H     0.52371   0.03064   0.45743   0.00000  Uiso   1.00
H425   H     0.97629   0.30269   0.54257   0.00000  Uiso   1.00
H426   H     0.74383   0.31905   0.42964   0.00000  Uiso   1.00
H427   H     0.75617   0.01429   0.57036   0.00000  Uiso   1.00
H428   H     0.86257   0.26236   0.53000   0.00000  Uiso   1.00
N429   N     0.73744   0.15214   0.34617   0.00000  Uiso   1.00
N430   N     0.76255   0.18119   0.65383   0.00000  Uiso   1.00
O431   O     0.75325   0.09538   0.53992   0.00000  Uiso   1.00
O432   O     0.60410   0.06645   0.46820   0.00000  Uiso   1.00
O433   O     0.65125   0.16044   0.64740   0.00000  Uiso   1.00
O434   O     0.68283   0.08512   0.58484   0.00000  Uiso   1.00
O435   O     0.66624   0.07935   0.35648   0.00000  Uiso   1.00
O436   O     0.81718   0.24821   0.41516   0.00000  Uiso   1.00
O437   O     0.84874   0.17288   0.35259   0.00000  Uiso   1.00
O438   O     0.83376   0.25397   0.64350   0.00000  Uiso   1.00
O439   O     0.74674   0.23796   0.46008   0.00000  Uiso   1.00
O440   O     0.74480   0.08559   0.43612   0.00000  Uiso   1.00
O441   O     0.75520   0.24774   0.56388   0.00000  Uiso   1.00
O442   O     0.68935   0.17155   0.55191   0.00000  Uiso   1.00
O443   O     0.81064   0.16179   0.44809   0.00000  Uiso   1.00
O444   O     0.68090   0.16176   0.44810   0.00000  Uiso   1.00
O445   O     0.81910   0.17157   0.55190   0.00000  Uiso   1.00
O446   O     0.89590   0.26689   0.53179   0.00000  Uiso   1.00
S447   S     0.68402   0.11994   0.64735   0.00000  Uiso   1.00
S448   S     0.81598   0.21339   0.35265   0.00000  Uiso   1.00
C449   C     0.24863   0.39997   0.48423   0.00000  Uiso   1.00
C450   C     0.08784   0.44872   0.48378   0.00000  Uiso   1.00
C451   C     0.38359   0.50246   0.50046   0.00000  Uiso   1.00
C452   C     0.11641   0.49754   0.49954   0.00000  Uiso   1.00
C453   C     0.40107   0.45393   0.48472   0.00000  Uiso   1.00
C454   C     0.09893   0.54607   0.51529   0.00000  Uiso   1.00
C455   C     0.44739   0.45260   0.48468   0.00000  Uiso   1.00
C456   C     0.05261   0.54740   0.51532   0.00000  Uiso   1.00
C457   C     0.47657   0.50069   0.50011   0.00000  Uiso   1.00
C458   C     0.02343   0.49931   0.49989   0.00000  Uiso   1.00
C459   C     0.45898   0.55014   0.51574   0.00000  Uiso   1.00
C460   C     0.25137   0.60003   0.51577   0.00000  Uiso   1.00
C461   C     0.04102   0.44986   0.48425   0.00000  Uiso   1.00
C462   C     0.46490   0.40382   0.46954   0.00000  Uiso   1.00
C463   C     0.03510   0.59618   0.53046   0.00000  Uiso   1.00
C464   C     0.01130   0.40241   0.46934   0.00000  Uiso   1.00
C465   C     0.48870   0.59759   0.53066   0.00000  Uiso   1.00
C466   C     0.24789   0.34363   0.47584   0.00000  Uiso   1.00
C467   C     0.25211   0.65637   0.52416   0.00000  Uiso   1.00
C468   C     0.16474   0.49930   0.49987   0.00000  Uiso   1.00
C469   C     0.33526   0.50070   0.50013   0.00000  Uiso   1.00
C470   C     0.41216   0.55128   0.51621   0.00000  Uiso   1.00
Cu471  Cu    0.25500   0.50579   0.56146   0.00000  Uiso   1.00
Cu472  Cu    0.24499   0.49421   0.43854   0.00000  Uiso   1.00
H473   H     0.37835   0.41709   0.47286   0.00000  Uiso   1.00
H474   H     0.13743   0.40431   0.46998   0.00000  Uiso   1.00
H475   H     0.13379   0.40144   0.34136   0.00000  Uiso   1.00
H476   H     0.36633   0.59808   0.65817   0.00000  Uiso   1.00
H477   H     0.12165   0.58291   0.52715   0.00000  Uiso   1.00
H478   H     0.44268   0.36669   0.45786   0.00000  Uiso   1.00
H479   H     0.05732   0.63331   0.54214   0.00000  Uiso   1.00
H480   H     0.02371   0.36398   0.45743   0.00000  Uiso   1.00
H481   H     0.47629   0.63602   0.54257   0.00000  Uiso   1.00
H482   H     0.24383   0.65238   0.42964   0.00000  Uiso   1.00
H483   H     0.25617   0.34762   0.57036   0.00000  Uiso   1.00
H484   H     0.36257   0.59569   0.53000   0.00000  Uiso   1.00
N485   N     0.23744   0.48547   0.34617   0.00000  Uiso   1.00
N486   N     0.26255   0.51453   0.65383   0.00000  Uiso   1.00
O487   O     0.25325   0.42871   0.53992   0.00000  Uiso   1.00
O488   O     0.10410   0.39978   0.46820   0.00000  Uiso   1.00
O489   O     0.15125   0.49378   0.64740   0.00000  Uiso   1.00
O490   O     0.18283   0.41846   0.58484   0.00000  Uiso   1.00
O491   O     0.16624   0.41269   0.35648   0.00000  Uiso   1.00
O492   O     0.31718   0.58155   0.41516   0.00000  Uiso   1.00
O493   O     0.34874   0.50621   0.35259   0.00000  Uiso   1.00
O494   O     0.33376   0.58730   0.64350   0.00000  Uiso   1.00
O495   O     0.24674   0.57129   0.46008   0.00000  Uiso   1.00
O496   O     0.24480   0.41892   0.43612   0.00000  Uiso   1.00
O497   O     0.25520   0.58108   0.56388   0.00000  Uiso   1.00
O498   O     0.18935   0.50488   0.55191   0.00000  Uiso   1.00
O499   O     0.31064   0.49512   0.44809   0.00000  Uiso   1.00
O500   O     0.18090   0.49510   0.44810   0.00000  Uiso   1.00
O501   O     0.31910   0.50490   0.55190   0.00000  Uiso   1.00
O502   O     0.39590   0.60022   0.53179   0.00000  Uiso   1.00
S503   S     0.18402   0.45327   0.64735   0.00000  Uiso   1.00
S504   S     0.31598   0.54672   0.35265   0.00000  Uiso   1.00
C505   C     0.74863   0.39997   0.48423   0.00000  Uiso   1.00
C506   C     0.58784   0.44872   0.48378   0.00000  Uiso   1.00
C507   C     0.88359   0.50246   0.50046   0.00000  Uiso   1.00
C508   C     0.61641   0.49754   0.49954   0.00000  Uiso   1.00
C509   C     0.90107   0.45393   0.48472   0.00000  Uiso   1.00
C510   C     0.59893   0.54607   0.51529   0.00000  Uiso   1.00
C511   C     0.94739   0.45260   0.48468   0.00000  Uiso   1.00
C512   C     0.55261   0.54740   0.51532   0.00000  Uiso   1.00
C513   C     0.97657   0.50069   0.50011   0.00000  Uiso   1.00
C514   C     0.52343   0.49931   0.49989   0.00000  Uiso   1.00
C515   C     0.95898   0.55014   0.51574   0.00000  Uiso   1.00
C516   C     0.75137   0.60003   0.51577   0.00000  Uiso   1.00
C517   C     0.54102   0.44986   0.48425   0.00000  Uiso   1.00
C518   C     0.96490   0.40382   0.46954   0.00000  Uiso   1.00
C519   C     0.53510   0.59618   0.53046   0.00000  Uiso   1.00
C520   C     0.51130   0.40241   0.46934   0.00000  Uiso   1.00
C521   C     0.98870   0.59759   0.53066   0.00000  Uiso   1.00
C522   C     0.74789   0.34363   0.47584   0.00000  Uiso   1.00
C523   C     0.75211   0.65637   0.52416   0.00000  Uiso   1.00
C524   C     0.66474   0.49930   0.49987   0.00000  Uiso   1.00
C525   C     0.83526   0.50070   0.50013   0.00000  Uiso   1.00
C526   C     0.91216   0.55128   0.51621   0.00000  Uiso   1.00
Cu527  Cu    0.75500   0.50579   0.56146   0.00000  Uiso   1.00
Cu528  Cu    0.74499   0.49421   0.43854   0.00000  Uiso   1.00
H529   H     0.87835   0.41709   0.47286   0.00000  Uiso   1.00
H530   H     0.63743   0.40431   0.46998   0.00000  Uiso   1.00
H531   H     0.63379   0.40144   0.34136   0.00000  Uiso   1.00
H532   H     0.86633   0.59808   0.65817   0.00000  Uiso   1.00
H533   H     0.62165   0.58291   0.52715   0.00000  Uiso   1.00
H534   H     0.94268   0.36669   0.45786   0.00000  Uiso   1.00
H535   H     0.55732   0.63331   0.54214   0.00000  Uiso   1.00
H536   H     0.52371   0.36398   0.45743   0.00000  Uiso   1.00
H537   H     0.97629   0.63602   0.54257   0.00000  Uiso   1.00
H538   H     0.74383   0.65238   0.42964   0.00000  Uiso   1.00
H539   H     0.75617   0.34762   0.57036   0.00000  Uiso   1.00
H540   H     0.86257   0.59569   0.53000   0.00000  Uiso   1.00
N541   N     0.73744   0.48547   0.34617   0.00000  Uiso   1.00
N542   N     0.76255   0.51453   0.65383   0.00000  Uiso   1.00
O543   O     0.75325   0.42871   0.53992   0.00000  Uiso   1.00
O544   O     0.60410   0.39978   0.46820   0.00000  Uiso   1.00
O545   O     0.65125   0.49378   0.64740   0.00000  Uiso   1.00
O546   O     0.68283   0.41846   0.58484   0.00000  Uiso   1.00
O547   O     0.66624   0.41269   0.35648   0.00000  Uiso   1.00
O548   O     0.81718   0.58155   0.41516   0.00000  Uiso   1.00
O549   O     0.84874   0.50621   0.35259   0.00000  Uiso   1.00
O550   O     0.83376   0.58730   0.64350   0.00000  Uiso   1.00
O551   O     0.74674   0.57129   0.46008   0.00000  Uiso   1.00
O552   O     0.74480   0.41892   0.43612   0.00000  Uiso   1.00
O553   O     0.75520   0.58108   0.56388   0.00000  Uiso   1.00
O554   O     0.68935   0.50488   0.55191   0.00000  Uiso   1.00
O555   O     0.81064   0.49512   0.44809   0.00000  Uiso   1.00
O556   O     0.68090   0.49510   0.44810   0.00000  Uiso   1.00
O557   O     0.81910   0.50490   0.55190   0.00000  Uiso   1.00
O558   O     0.89590   0.60022   0.53179   0.00000  Uiso   1.00
S559   S     0.68402   0.45327   0.64735   0.00000  Uiso   1.00
S560   S     0.81598   0.54672   0.35265   0.00000  Uiso   1.00
C561   C     0.24863   0.73330   0.48423   0.00000  Uiso   1.00
C562   C     0.08784   0.78205   0.48378   0.00000  Uiso   1.00
C563   C     0.38359   0.83579   0.50046   0.00000  Uiso   1.00
C564   C     0.11641   0.83088   0.49954   0.00000  Uiso   1.00
C565   C     0.40107   0.78726   0.48472   0.00000  Uiso   1.00
C566   C     0.09893   0.87940   0.51529   0.00000  Uiso   1.00
C567   C     0.44739   0.78593   0.48468   0.00000  Uiso   1.00
C568   C     0.05261   0.88074   0.51532   0.00000  Uiso   1.00
C569   C     0.47657   0.83402   0.50011   0.00000  Uiso   1.00
C570   C     0.02343   0.83264   0.49989   0.00000  Uiso   1.00
C571   C     0.45898   0.88347   0.51574   0.00000  Uiso   1.00
C572   C     0.25137   0.93336   0.51577   0.00000  Uiso   1.00
C573   C     0.04102   0.78319   0.48425   0.00000  Uiso   1.00
C574   C     0.46490   0.73716   0.46954   0.00000  Uiso   1.00
C575   C     0.03510   0.92951   0.53046   0.00000  Uiso   1.00
C576   C     0.01130   0.73574   0.46934   0.00000  Uiso   1.00
C577   C     0.48870   0.93093   0.53066   0.00000  Uiso   1.00
C578   C     0.24789   0.67696   0.47584   0.00000  Uiso   1.00
C579   C     0.25211   0.98970   0.52416   0.00000  Uiso   1.00
C580   C     0.16474   0.83264   0.49987   0.00000  Uiso   1.00
C581   C     0.33526   0.83403   0.50013   0.00000  Uiso   1.00
C582   C     0.41216   0.88461   0.51621   0.00000  Uiso   1.00
Cu583  Cu    0.25500   0.83913   0.56146   0.00000  Uiso   1.00
Cu584  Cu    0.24499   0.82754   0.43854   0.00000  Uiso   1.00
H585   H     0.37835   0.75042   0.47286   0.00000  Uiso   1.00
H586   H     0.13743   0.73764   0.46998   0.00000  Uiso   1.00
H587   H     0.13379   0.73477   0.34136   0.00000  Uiso   1.00
H588   H     0.36633   0.93141   0.65817   0.00000  Uiso   1.00
H589   H     0.12165   0.91625   0.52715   0.00000  Uiso   1.00
H590   H     0.44268   0.70003   0.45786   0.00000  Uiso   1.00
H591   H     0.05732   0.96664   0.54214   0.00000  Uiso   1.00
H592   H     0.02371   0.69731   0.45743   0.00000  Uiso   1.00
H593   H     0.47629   0.96936   0.54257   0.00000  Uiso   1.00
H594   H     0.24383   0.98571   0.42964   0.00000  Uiso   1.00
H595   H     0.25617   0.68095   0.57036   0.00000  Uiso   1.00
H596   H     0.36257   0.92902   0.53000   0.00000  Uiso   1.00
N597   N     0.23744   0.81881   0.34617   0.00000  Uiso   1.00
N598   N     0.26255   0.84786   0.65383   0.00000  Uiso   1.00
O599   O     0.25325   0.76204   0.53992   0.00000  Uiso   1.00
O600   O     0.10410   0.73311   0.46820   0.00000  Uiso   1.00
O601   O     0.15125   0.82711   0.64740   0.00000  Uiso   1.00
O602   O     0.18283   0.75179   0.58484   0.00000  Uiso   1.00
O603   O     0.16624   0.74602   0.35648   0.00000  Uiso   1.00
O604   O     0.31718   0.91488   0.41516   0.00000  Uiso   1.00
O605   O     0.34874   0.83954   0.35259   0.00000  Uiso   1.00
O606   O     0.33376   0.92064   0.64350   0.00000  Uiso   1.00
O607   O     0.24674   0.90462   0.46008   0.00000  Uiso   1.00
O608   O     0.24480   0.75226   0.43612   0.00000  Uiso   1.00
O609   O     0.25520   0.91441   0.56388   0.00000  Uiso   1.00
O610   O     0.18935   0.83821   0.55191   0.00000  Uiso   1.00
O611   O     0.31064   0.82845   0.44809   0.00000  Uiso   1.00
O612   O     0.18090   0.82843   0.44810   0.00000  Uiso   1.00
O613   O     0.31910   0.83824   0.55190   0.00000  Uiso   1.00
O614   O     0.39590   0.93355   0.53179   0.00000  Uiso   1.00
S615   S     0.18402   0.78661   0.64735   0.00000  Uiso   1.00
S616   S     0.31598   0.88006   0.35265   0.00000  Uiso   1.00
C617   C     0.74863   0.73330   0.48423   0.00000  Uiso   1.00
C618   C     0.58784   0.78205   0.48378   0.00000  Uiso   1.00
C619   C     0.88359   0.83579   0.50046   0.00000  Uiso   1.00
C620   C     0.61641   0.83088   0.49954   0.00000  Uiso   1.00
C621   C     0.90107   0.78726   0.48472   0.00000  Uiso   1.00
C622   C     0.59893   0.87940   0.51529   0.00000  Uiso   1.00
C623   C     0.94739   0.78593   0.48468   0.00000  Uiso   1.00
C624   C     0.55261   0.88074   0.51532   0.00000  Uiso   1.00
C625   C     0.97657   0.83402   0.50011   0.00000  Uiso   1.00
C626   C     0.52343   0.83264   0.49989   0.00000  Uiso   1.00
C627   C     0.95898   0.88347   0.51574   0.00000  Uiso   1.00
C628   C     0.75137   0.93336   0.51577   0.00000  Uiso   1.00
C629   C     0.54102   0.78319   0.48425   0.00000  Uiso   1.00
C630   C     0.96490   0.73716   0.46954   0.00000  Uiso   1.00
C631   C     0.53510   0.92951   0.53046   0.00000  Uiso   1.00
C632   C     0.51130   0.73574   0.46934   0.00000  Uiso   1.00
C633   C     0.98870   0.93093   0.53066   0.00000  Uiso   1.00
C634   C     0.74789   0.67696   0.47584   0.00000  Uiso   1.00
C635   C     0.75211   0.98970   0.52416   0.00000  Uiso   1.00
C636   C     0.66474   0.83264   0.49987   0.00000  Uiso   1.00
C637   C     0.83526   0.83403   0.50013   0.00000  Uiso   1.00
C638   C     0.91216   0.88461   0.51621   0.00000  Uiso   1.00
Cu639  Cu    0.75500   0.83913   0.56146   0.00000  Uiso   1.00
Cu640  Cu    0.74499   0.82754   0.43854   0.00000  Uiso   1.00
H641   H     0.87835   0.75042   0.47286   0.00000  Uiso   1.00
H642   H     0.63743   0.73764   0.46998   0.00000  Uiso   1.00
H643   H     0.63379   0.73477   0.34136   0.00000  Uiso   1.00
H644   H     0.86633   0.93141   0.65817   0.00000  Uiso   1.00
H645   H     0.62165   0.91625   0.52715   0.00000  Uiso   1.00
H646   H     0.94268   0.70003   0.45786   0.00000  Uiso   1.00
H647   H     0.55732   0.96664   0.54214   0.00000  Uiso   1.00
H648   H     0.52371   0.69731   0.45743   0.00000  Uiso   1.00
H649   H     0.97629   0.96936   0.54257   0.00000  Uiso   1.00
H650   H     0.74383   0.98571   0.42964   0.00000  Uiso   1.00
H651   H     0.75617   0.68095   0.57036   0.00000  Uiso   1.00
H652   H     0.86257   0.92902   0.53000   0.00000  Uiso   1.00
N653   N     0.73744   0.81881   0.34617   0.00000  Uiso   1.00
N654   N     0.76255   0.84786   0.65383   0.00000  Uiso   1.00
O655   O     0.75325   0.76204   0.53992   0.00000  Uiso   1.00
O656   O     0.60410   0.73311   0.46820   0.00000  Uiso   1.00
O657   O     0.65125   0.82711   0.64740   0.00000  Uiso   1.00
O658   O     0.68283   0.75179   0.58484   0.00000  Uiso   1.00
O659   O     0.66624   0.74602   0.35648   0.00000  Uiso   1.00
O660   O     0.81718   0.91488   0.41516   0.00000  Uiso   1.00
O661   O     0.84874   0.83954   0.35259   0.00000  Uiso   1.00
O662   O     0.83376   0.92064   0.64350   0.00000  Uiso   1.00
O663   O     0.74674   0.90462   0.46008   0.00000  Uiso   1.00
O664   O     0.74480   0.75226   0.43612   0.00000  Uiso   1.00
O665   O     0.75520   0.91441   0.56388   0.00000  Uiso   1.00
O666   O     0.68935   0.83821   0.55191   0.00000  Uiso   1.00
O667   O     0.81064   0.82845   0.44809   0.00000  Uiso   1.00
O668   O     0.68090   0.82843   0.44810   0.00000  Uiso   1.00
O669   O     0.81910   0.83824   0.55190   0.00000  Uiso   1.00
O670   O     0.89590   0.93355   0.53179   0.00000  Uiso   1.00
S671   S     0.68402   0.78661   0.64735   0.00000  Uiso   1.00
S672   S     0.81598   0.88006   0.35265   0.00000  Uiso   1.00
C673   C     0.24863   0.06664   0.81756   0.00000  Uiso   1.00
C674   C     0.08784   0.11539   0.81712   0.00000  Uiso   1.00
C675   C     0.38359   0.16912   0.83379   0.00000  Uiso   1.00
C676   C     0.11641   0.16421   0.83288   0.00000  Uiso   1.00
C677   C     0.40107   0.12060   0.81805   0.00000  Uiso   1.00
C678   C     0.09893   0.21274   0.84862   0.00000  Uiso   1.00
C679   C     0.44739   0.11926   0.81801   0.00000  Uiso   1.00
C680   C     0.05261   0.21407   0.84866   0.00000  Uiso   1.00
C681   C     0.47657   0.16736   0.83344   0.00000  Uiso   1.00
C682   C     0.02343   0.16598   0.83323   0.00000  Uiso   1.00
C683   C     0.45898   0.21681   0.84908   0.00000  Uiso   1.00
C684   C     0.25137   0.26670   0.84910   0.00000  Uiso   1.00
C685   C     0.04102   0.11653   0.81759   0.00000  Uiso   1.00
C686   C     0.46490   0.07049   0.80288   0.00000  Uiso   1.00
C687   C     0.03510   0.26284   0.86379   0.00000  Uiso   1.00
C688   C     0.01130   0.06907   0.80268   0.00000  Uiso   1.00
C689   C     0.48870   0.26426   0.86399   0.00000  Uiso   1.00
C690   C     0.24789   0.01030   0.80917   0.00000  Uiso   1.00
C691   C     0.25211   0.32304   0.85749   0.00000  Uiso   1.00
C692   C     0.16474   0.16597   0.83320   0.00000  Uiso   1.00
C693   C     0.33526   0.16736   0.83346   0.00000  Uiso   1.00
C694   C     0.41216   0.21795   0.84954   0.00000  Uiso   1.00
Cu695  Cu    0.25500   0.17246   0.89479   0.00000  Uiso   1.00
Cu696  Cu    0.24499   0.16087   0.77187   0.00000  Uiso   1.00
H697   H     0.37835   0.08375   0.80619   0.00000  Uiso   1.00
H698   H     0.13743   0.07098   0.80332   0.00000  Uiso   1.00
H699   H     0.13379   0.06810   0.67469   0.00000  Uiso   1.00
H700   H     0.36633   0.26475   0.99150   0.00000  Uiso   1.00
H701   H     0.12165   0.24958   0.86048   0.00000  Uiso   1.00
H702   H     0.44268   0.03336   0.79119   0.00000  Uiso   1.00
H703   H     0.05732   0.29997   0.87548   0.00000  Uiso   1.00
H704   H     0.02371   0.03064   0.79076   0.00000  Uiso   1.00
H705   H     0.47629   0.30269   0.87590   0.00000  Uiso   1.00
H706   H     0.24383   0.31905   0.76297   0.00000  Uiso   1.00
H707   H     0.25617   0.01429   0.90369   0.00000  Uiso   1.00
H708   H     0.36257   0.26236   0.86334   0.00000  Uiso   1.00
N709   N     0.23744   0.15214   0.67951   0.00000  Uiso   1.00
N710   N     0.26255   0.18119   0.98716   0.00000  Uiso   1.00
O711   O     0.25325   0.09538   0.87326   0.00000  Uiso   1.00
O712   O     0.10410   0.06645   0.80153   0.00000  Uiso   1.00
O713   O     0.15125   0.16044   0.98074   0.00000  Uiso   1.00
O714   O     0.18283   0.08512   0.91817   0.00000  Uiso   1.00
O715   O     0.16624   0.07935   0.68982   0.00000  Uiso   1.00
O716   O     0.31718   0.24821   0.74849   0.00000  Uiso   1.00
O717   O     0.34874   0.17288   0.68593   0.00000  Uiso   1.00
O718   O     0.33376   0.25397   0.97683   0.00000  Uiso   1.00
O719   O     0.24674   0.23796   0.79341   0.00000  Uiso   1.00
O720   O     0.24480   0.08559   0.76945   0.00000  Uiso   1.00
O721   O     0.25520   0.24774   0.89721   0.00000  Uiso   1.00
O722   O     0.18935   0.17155   0.88524   0.00000  Uiso   1.00
O723   O     0.31064   0.16179   0.78143   0.00000  Uiso   1.00
O724   O     0.18090   0.16176   0.78143   0.00000  Uiso   1.00
O725   O     0.31910   0.17157   0.88523   0.00000  Uiso   1.00
O726   O     0.39590   0.26689   0.86512   0.00000  Uiso   1.00
S727   S     0.18402   0.11994   0.98068   0.00000  Uiso   1.00
S728   S     0.31598   0.21339   0.68598   0.00000  Uiso   1.00
C729   C     0.74863   0.06664   0.81756   0.00000  Uiso   1.00
C730   C     0.58784   0.11539   0.81712   0.00000  Uiso   1.00
C731   C     0.88359   0.16912   0.83379   0.00000  Uiso   1.00
C732   C     0.61641   0.16421   0.83288   0.00000  Uiso   1.00
C733   C     0.90107   0.12060   0.81805   0.00000  Uiso   1.00
C734   C     0.59893   0.21274   0.84862   0.00000  Uiso   1.00
C735   C     0.94739   0.11926   0.81801   0.00000  Uiso   1.00
C736   C     0.55261   0.21407   0.84866   0.00000  Uiso   1.00
C737   C     0.97657   0.16736   0.83344   0.00000  Uiso   1.00
C738   C     0.52343   0.16598   0.83323   0.00000  Uiso   1.00
C739   C     0.95898   0.21681   0.84908   0.00000  Uiso   1.00
C740   C     0.75137   0.26670   0.84910   0.00000  Uiso   1.00
C741   C     0.54102   0.11653   0.81759   0.00000  Uiso   1.00
C742   C     0.96490   0.07049   0.80288   0.00000  Uiso   1.00
C743   C     0.53510   0.26284   0.86379   0.00000  Uiso   1.00
C744   C     0.51130   0.06907   0.80268   0.00000  Uiso   1.00
C745   C     0.98870   0.26426   0.86399   0.00000  Uiso   1.00
C746   C     0.74789   0.01030   0.80917   0.00000  Uiso   1.00
C747   C     0.75211   0.32304   0.85749   0.00000  Uiso   1.00
C748   C     0.66474   0.16597   0.83320   0.00000  Uiso   1.00
C749   C     0.83526   0.16736   0.83346   0.00000  Uiso   1.00
C750   C     0.91216   0.21795   0.84954   0.00000  Uiso   1.00
Cu751  Cu    0.75500   0.17246   0.89479   0.00000  Uiso   1.00
Cu752  Cu    0.74499   0.16087   0.77187   0.00000  Uiso   1.00
H753   H     0.87835   0.08375   0.80619   0.00000  Uiso   1.00
H754   H     0.63743   0.07098   0.80332   0.00000  Uiso   1.00
H755   H     0.63379   0.06810   0.67469   0.00000  Uiso   1.00
H756   H     0.86633   0.26475   0.99150   0.00000  Uiso   1.00
H757   H     0.62165   0.24958   0.86048   0.00000  Uiso   1.00
H758   H     0.94268   0.03336   0.79119   0.00000  Uiso   1.00
H759   H     0.55732   0.29997   0.87548   0.00000  Uiso   1.00
H760   H     0.52371   0.03064   0.79076   0.00000  Uiso   1.00
H761   H     0.97629   0.30269   0.87590   0.00000  Uiso   1.00
H762   H     0.74383   0.31905   0.76297   0.00000  Uiso   1.00
H763   H     0.75617   0.01429   0.90369   0.00000  Uiso   1.00
H764   H     0.86257   0.26236   0.86334   0.00000  Uiso   1.00
N765   N     0.73744   0.15214   0.67951   0.00000  Uiso   1.00
N766   N     0.76255   0.18119   0.98716   0.00000  Uiso   1.00
O767   O     0.75325   0.09538   0.87326   0.00000  Uiso   1.00
O768   O     0.60410   0.06645   0.80153   0.00000  Uiso   1.00
O769   O     0.65125   0.16044   0.98074   0.00000  Uiso   1.00
O770   O     0.68283   0.08512   0.91817   0.00000  Uiso   1.00
O771   O     0.66624   0.07935   0.68982   0.00000  Uiso   1.00
O772   O     0.81718   0.24821   0.74849   0.00000  Uiso   1.00
O773   O     0.84874   0.17288   0.68593   0.00000  Uiso   1.00
O774   O     0.83376   0.25397   0.97683   0.00000  Uiso   1.00
O775   O     0.74674   0.23796   0.79341   0.00000  Uiso   1.00
O776   O     0.74480   0.08559   0.76945   0.00000  Uiso   1.00
O777   O     0.75520   0.24774   0.89721   0.00000  Uiso   1.00
O778   O     0.68935   0.17155   0.88524   0.00000  Uiso   1.00
O779   O     0.81064   0.16179   0.78143   0.00000  Uiso   1.00
O780   O     0.68090   0.16176   0.78143   0.00000  Uiso   1.00
O781   O     0.81910   0.17157   0.88523   0.00000  Uiso   1.00
O782   O     0.89590   0.26689   0.86512   0.00000  Uiso   1.00
S783   S     0.68402   0.11994   0.98068   0.00000  Uiso   1.00
S784   S     0.81598   0.21339   0.68598   0.00000  Uiso   1.00
C785   C     0.24863   0.39997   0.81756   0.00000  Uiso   1.00
C786   C     0.08784   0.44872   0.81712   0.00000  Uiso   1.00
C787   C     0.38359   0.50246   0.83379   0.00000  Uiso   1.00
C788   C     0.11641   0.49754   0.83288   0.00000  Uiso   1.00
C789   C     0.40107   0.45393   0.81805   0.00000  Uiso   1.00
C790   C     0.09893   0.54607   0.84862   0.00000  Uiso   1.00
C791   C     0.44739   0.45260   0.81801   0.00000  Uiso   1.00
C792   C     0.05261   0.54740   0.84866   0.00000  Uiso   1.00
C793   C     0.47657   0.50069   0.83344   0.00000  Uiso   1.00
C794   C     0.02343   0.49931   0.83323   0.00000  Uiso   1.00
C795   C     0.45898   0.55014   0.84908   0.00000  Uiso   1.00
C796   C     0.25137   0.60003   0.84910   0.00000  Uiso   1.00
C797   C     0.04102   0.44986   0.81759   0.00000  Uiso   1.00
C798   C     0.46490   0.40382   0.80288   0.00000  Uiso   1.00
C799   C     0.03510   0.59618   0.86379   0.00000  Uiso   1.00
C800   C     0.01130   0.40241   0.80268   0.00000  Uiso   1.00
C801   C     0.48870   0.59759   0.86399   0.00000  Uiso   1.00
C802   C     0.24789   0.34363   0.80917   0.00000  Uiso   1.00
C803   C     0.25211   0.65637   0.85749   0.00000  Uiso   1.00
C804   C     0.16474   0.49930   0.83320   0.00000  Uiso   1.00
C805   C     0.33526   0.50070   0.83346   0.00000  Uiso   1.00
C806   C     0.41216   0.55128   0.84954   0.00000  Uiso   1.00
Cu807  Cu    0.25500   0.50579   0.89479   0.00000  Uiso   1.00
Cu808  Cu    0.24499   0.49421   0.77187   0.00000  Uiso   1.00
H809   H     0.37835   0.41709   0.80619   0.00000  Uiso   1.00
H810   H     0.13743   0.40431   0.80332   0.00000  Uiso   1.00
H811   H     0.13379   0.40144   0.67469   0.00000  Uiso   1.00
H812   H     0.36633   0.59808   0.99150   0.00000  Uiso   1.00
H813   H     0.12165   0.58291   0.86048   0.00000  Uiso   1.00
H814   H     0.44268   0.36669   0.79119   0.00000  Uiso   1.00
H815   H     0.05732   0.63331   0.87548   0.00000  Uiso   1.00
H816   H     0.02371   0.36398   0.79076   0.00000  Uiso   1.00
H817   H     0.47629   0.63602   0.87590   0.00000  Uiso   1.00
H818   H     0.24383   0.65238   0.76297   0.00000  Uiso   1.00
H819   H     0.25617   0.34762   0.90369   0.00000  Uiso   1.00
H820   H     0.36257   0.59569   0.86334   0.00000  Uiso   1.00
N821   N     0.23744   0.48547   0.67951   0.00000  Uiso   1.00
N822   N     0.26255   0.51453   0.98716   0.00000  Uiso   1.00
O823   O     0.25325   0.42871   0.87326   0.00000  Uiso   1.00
O824   O     0.10410   0.39978   0.80153   0.00000  Uiso   1.00
O825   O     0.15125   0.49378   0.98074   0.00000  Uiso   1.00
O826   O     0.18283   0.41846   0.91817   0.00000  Uiso   1.00
O827   O     0.16624   0.41269   0.68982   0.00000  Uiso   1.00
O828   O     0.31718   0.58155   0.74849   0.00000  Uiso   1.00
O829   O     0.34874   0.50621   0.68593   0.00000  Uiso   1.00
O830   O     0.33376   0.58730   0.97683   0.00000  Uiso   1.00
O831   O     0.24674   0.57129   0.79341   0.00000  Uiso   1.00
O832   O     0.24480   0.41892   0.76945   0.00000  Uiso   1.00
O833   O     0.25520   0.58108   0.89721   0.00000  Uiso   1.00
O834   O     0.18935   0.50488   0.88524   0.00000  Uiso   1.00
O835   O     0.31064   0.49512   0.78143   0.00000  Uiso   1.00
O836   O     0.18090   0.49510   0.78143   0.00000  Uiso   1.00
O837   O     0.31910   0.50490   0.88523   0.00000  Uiso   1.00
O838   O     0.39590   0.60022   0.86512   0.00000  Uiso   1.00
S839   S     0.18402   0.45327   0.98068   0.00000  Uiso   1.00
S840   S     0.31598   0.54672   0.68598   0.00000  Uiso   1.00
C841   C     0.74863   0.39997   0.81756   0.00000  Uiso   1.00
C842   C     0.58784   0.44872   0.81712   0.00000  Uiso   1.00
C843   C     0.88359   0.50246   0.83379   0.00000  Uiso   1.00
C844   C     0.61641   0.49754   0.83288   0.00000  Uiso   1.00
C845   C     0.90107   0.45393   0.81805   0.00000  Uiso   1.00
C846   C     0.59893   0.54607   0.84862   0.00000  Uiso   1.00
C847   C     0.94739   0.45260   0.81801   0.00000  Uiso   1.00
C848   C     0.55261   0.54740   0.84866   0.00000  Uiso   1.00
C849   C     0.97657   0.50069   0.83344   0.00000  Uiso   1.00
C850   C     0.52343   0.49931   0.83323   0.00000  Uiso   1.00
C851   C     0.95898   0.55014   0.84908   0.00000  Uiso   1.00
C852   C     0.75137   0.60003   0.84910   0.00000  Uiso   1.00
C853   C     0.54102   0.44986   0.81759   0.00000  Uiso   1.00
C854   C     0.96490   0.40382   0.80288   0.00000  Uiso   1.00
C855   C     0.53510   0.59618   0.86379   0.00000  Uiso   1.00
C856   C     0.51130   0.40241   0.80268   0.00000  Uiso   1.00
C857   C     0.98870   0.59759   0.86399   0.00000  Uiso   1.00
C858   C     0.74789   0.34363   0.80917   0.00000  Uiso   1.00
C859   C     0.75211   0.65637   0.85749   0.00000  Uiso   1.00
C860   C     0.66474   0.49930   0.83320   0.00000  Uiso   1.00
C861   C     0.83526   0.50070   0.83346   0.00000  Uiso   1.00
C862   C     0.91216   0.55128   0.84954   0.00000  Uiso   1.00
Cu863  Cu    0.75500   0.50579   0.89479   0.00000  Uiso   1.00
Cu864  Cu    0.74499   0.49421   0.77187   0.00000  Uiso   1.00
H865   H     0.87835   0.41709   0.80619   0.00000  Uiso   1.00
H866   H     0.63743   0.40431   0.80332   0.00000  Uiso   1.00
H867   H     0.63379   0.40144   0.67469   0.00000  Uiso   1.00
H868   H     0.86633   0.59808   0.99150   0.00000  Uiso   1.00
H869   H     0.62165   0.58291   0.86048   0.00000  Uiso   1.00
H870   H     0.94268   0.36669   0.79119   0.00000  Uiso   1.00
H871   H     0.55732   0.63331   0.87548   0.00000  Uiso   1.00
H872   H     0.52371   0.36398   0.79076   0.00000  Uiso   1.00
H873   H     0.97629   0.63602   0.87590   0.00000  Uiso   1.00
H874   H     0.74383   0.65238   0.76297   0.00000  Uiso   1.00
H875   H     0.75617   0.34762   0.90369   0.00000  Uiso   1.00
H876   H     0.86257   0.59569   0.86334   0.00000  Uiso   1.00
N877   N     0.73744   0.48547   0.67951   0.00000  Uiso   1.00
N878   N     0.76255   0.51453   0.98716   0.00000  Uiso   1.00
O879   O     0.75325   0.42871   0.87326   0.00000  Uiso   1.00
O880   O     0.60410   0.39978   0.80153   0.00000  Uiso   1.00
O881   O     0.65125   0.49378   0.98074   0.00000  Uiso   1.00
O882   O     0.68283   0.41846   0.91817   0.00000  Uiso   1.00
O883   O     0.66624   0.41269   0.68982   0.00000  Uiso   1.00
O884   O     0.81718   0.58155   0.74849   0.00000  Uiso   1.00
O885   O     0.84874   0.50621   0.68593   0.00000  Uiso   1.00
O886   O     0.83376   0.58730   0.97683   0.00000  Uiso   1.00
O887   O     0.74674   0.57129   0.79341   0.00000  Uiso   1.00
O888   O     0.74480   0.41892   0.76945   0.00000  Uiso   1.00
O889   O     0.75520   0.58108   0.89721   0.00000  Uiso   1.00
O890   O     0.68935   0.50488   0.88524   0.00000  Uiso   1.00
O891   O     0.81064   0.49512   0.78143   0.00000  Uiso   1.00
O892   O     0.68090   0.49510   0.78143   0.00000  Uiso   1.00
O893   O     0.81910   0.50490   0.88523   0.00000  Uiso   1.00
O894   O     0.89590   0.60022   0.86512   0.00000  Uiso   1.00
S895   S     0.68402   0.45327   0.98068   0.00000  Uiso   1.00
S896   S     0.81598   0.54672   0.68598   0.00000  Uiso   1.00
C897   C     0.24863   0.73330   0.81756   0.00000  Uiso   1.00
C898   C     0.08784   0.78205   0.81712   0.00000  Uiso   1.00
C899   C     0.38359   0.83579   0.83379   0.00000  Uiso   1.00
C900   C     0.11641   0.83088   0.83288   0.00000  Uiso   1.00
C901   C     0.40107   0.78726   0.81805   0.00000  Uiso   1.00
C902   C     0.09893   0.87940   0.84862   0.00000  Uiso   1.00
C903   C     0.44739   0.78593   0.81801   0.00000  Uiso   1.00
C904   C     0.05261   0.88074   0.84866   0.00000  Uiso   1.00
C905   C     0.47657   0.83402   0.83344   0.00000  Uiso   1.00
C906   C     0.02343   0.83264   0.83323   0.00000  Uiso   1.00
C907   C     0.45898   0.88347   0.84908   0.00000  Uiso   1.00
C908   C     0.25137   0.93336   0.84910   0.00000  Uiso   1.00
C909   C     0.04102   0.78319   0.81759   0.00000  Uiso   1.00
C910   C     0.46490   0.73716   0.80288   0.00000  Uiso   1.00
C911   C     0.03510   0.92951   0.86379   0.00000  Uiso   1.00
C912   C     0.01130   0.73574   0.80268   0.00000  Uiso   1.00
C913   C     0.48870   0.93093   0.86399   0.00000  Uiso   1.00
C914   C     0.24789   0.67696   0.80917   0.00000  Uiso   1.00
C915   C     0.25211   0.98970   0.85749   0.00000  Uiso   1.00
C916   C     0.16474   0.83264   0.83320   0.00000  Uiso   1.00
C917   C     0.33526   0.83403   0.83346   0.00000  Uiso   1.00
C918   C     0.41216   0.88461   0.84954   0.00000  Uiso   1.00
Cu919  Cu    0.25500   0.83913   0.89479   0.00000  Uiso   1.00
Cu920  Cu    0.24499   0.82754   0.77187   0.00000  Uiso   1.00
H921   H     0.37835   0.75042   0.80619   0.00000  Uiso   1.00
H922   H     0.13743   0.73764   0.80332   0.00000  Uiso   1.00
H923   H     0.13379   0.73477   0.67469   0.00000  Uiso   1.00
H924   H     0.36633   0.93141   0.99150   0.00000  Uiso   1.00
H925   H     0.12165   0.91625   0.86048   0.00000  Uiso   1.00
H926   H     0.44268   0.70003   0.79119   0.00000  Uiso   1.00
H927   H     0.05732   0.96664   0.87548   0.00000  Uiso   1.00
H928   H     0.02371   0.69731   0.79076   0.00000  Uiso   1.00
H929   H     0.47629   0.96936   0.87590   0.00000  Uiso   1.00
H930   H     0.24383   0.98571   0.76297   0.00000  Uiso   1.00
H931   H     0.25617   0.68095   0.90369   0.00000  Uiso   1.00
H932   H     0.36257   0.92902   0.86334   0.00000  Uiso   1.00
N933   N     0.23744   0.81881   0.67951   0.00000  Uiso   1.00
N934   N     0.26255   0.84786   0.98716   0.00000  Uiso   1.00
O935   O     0.25325   0.76204   0.87326   0.00000  Uiso   1.00
O936   O     0.10410   0.73311   0.80153   0.00000  Uiso   1.00
O937   O     0.15125   0.82711   0.98074   0.00000  Uiso   1.00
O938   O     0.18283   0.75179   0.91817   0.00000  Uiso   1.00
O939   O     0.16624   0.74602   0.68982   0.00000  Uiso   1.00
O940   O     0.31718   0.91488   0.74849   0.00000  Uiso   1.00
O941   O     0.34874   0.83954   0.68593   0.00000  Uiso   1.00
O942   O     0.33376   0.92064   0.97683   0.00000  Uiso   1.00
O943   O     0.24674   0.90462   0.79341   0.00000  Uiso   1.00
O944   O     0.24480   0.75226   0.76945   0.00000  Uiso   1.00
O945   O     0.25520   0.91441   0.89721   0.00000  Uiso   1.00
O946   O     0.18935   0.83821   0.88524   0.00000  Uiso   1.00
O947   O     0.31064   0.82845   0.78143   0.00000  Uiso   1.00
O948   O     0.18090   0.82843   0.78143   0.00000  Uiso   1.00
O949   O     0.31910   0.83824   0.88523   0.00000  Uiso   1.00
O950   O     0.39590   0.93355   0.86512   0.00000  Uiso   1.00
S951   S     0.18402   0.78661   0.98068   0.00000  Uiso   1.00
S952   S     0.31598   0.88006   0.68598   0.00000  Uiso   1.00
C953   C     0.74863   0.73330   0.81756   0.00000  Uiso   1.00
C954   C     0.58784   0.78205   0.81712   0.00000  Uiso   1.00
C955   C     0.88359   0.83579   0.83379   0.00000  Uiso   1.00
C956   C     0.61641   0.83088   0.83288   0.00000  Uiso   1.00
C957   C     0.90107   0.78726   0.81805   0.00000  Uiso   1.00
C958   C     0.59893   0.87940   0.84862   0.00000  Uiso   1.00
C959   C     0.94739   0.78593   0.81801   0.00000  Uiso   1.00
C960   C     0.55261   0.88074   0.84866   0.00000  Uiso   1.00
C961   C     0.97657   0.83402   0.83344   0.00000  Uiso   1.00
C962   C     0.52343   0.83264   0.83323   0.00000  Uiso   1.00
C963   C     0.95898   0.88347   0.84908   0.00000  Uiso   1.00
C964   C     0.75137   0.93336   0.84910   0.00000  Uiso   1.00
C965   C     0.54102   0.78319   0.81759   0.00000  Uiso   1.00
C966   C     0.96490   0.73716   0.80288   0.00000  Uiso   1.00
C967   C     0.53510   0.92951   0.86379   0.00000  Uiso   1.00
C968   C     0.51130   0.73574   0.80268   0.00000  Uiso   1.00
C969   C     0.98870   0.93093   0.86399   0.00000  Uiso   1.00
C970   C     0.74789   0.67696   0.80917   0.00000  Uiso   1.00
C971   C     0.75211   0.98970   0.85749   0.00000  Uiso   1.00
C972   C     0.66474   0.83264   0.83320   0.00000  Uiso   1.00
C973   C     0.83526   0.83403   0.83346   0.00000  Uiso   1.00
C974   C     0.91216   0.88461   0.84954   0.00000  Uiso   1.00
Cu975  Cu    0.75500   0.83913   0.89479   0.00000  Uiso   1.00
Cu976  Cu    0.74499   0.82754   0.77187   0.00000  Uiso   1.00
H977   H     0.87835   0.75042   0.80619   0.00000  Uiso   1.00
H978   H     0.63743   0.73764   0.80332   0.00000  Uiso   1.00
H979   H     0.63379   0.73477   0.67469   0.00000  Uiso   1.00
H980   H     0.86633   0.93141   0.99150   0.00000  Uiso   1.00
H981   H     0.62165   0.91625   0.86048   0.00000  Uiso   1.00
H982   H     0.94268   0.70003   0.79119   0.00000  Uiso   1.00
H983   H     0.55732   0.96664   0.87548   0.00000  Uiso   1.00
H984   H     0.52371   0.69731   0.79076   0.00000  Uiso   1.00
H985   H     0.97629   0.96936   0.87590   0.00000  Uiso   1.00
H986   H     0.74383   0.98571   0.76297   0.00000  Uiso   1.00
H987   H     0.75617   0.68095   0.90369   0.00000  Uiso   1.00
H988   H     0.86257   0.92902   0.86334   0.00000  Uiso   1.00
N989   N     0.73744   0.81881   0.67951   0.00000  Uiso   1.00
N990   N     0.76255   0.84786   0.98716   0.00000  Uiso   1.00
O991   O     0.75325   0.76204   0.87326   0.00000  Uiso   1.00
O992   O     0.60410   0.73311   0.80153   0.00000  Uiso   1.00
O993   O     0.65125   0.82711   0.98074   0.00000  Uiso   1.00
O994   O     0.68283   0.75179   0.91817   0.00000  Uiso   1.00
O995   O     0.66624   0.74602   0.68982   0.00000  Uiso   1.00
O996   O     0.81718   0.91488   0.74849   0.00000  Uiso   1.00
O997   O     0.84874   0.83954   0.68593   0.00000  Uiso   1.00
O998   O     0.83376   0.92064   0.97683   0.00000  Uiso   1.00
O999   O     0.74674   0.90462   0.79341   0.00000  Uiso   1.00
O1000  O     0.74480   0.75226   0.76945   0.00000  Uiso   1.00
O1001  O     0.75520   0.91441   0.89721   0.00000  Uiso   1.00
O1002  O     0.68935   0.83821   0.88524   0.00000  Uiso   1.00
O1003  O     0.81064   0.82845   0.78143   0.00000  Uiso   1.00
O1004  O     0.68090   0.82843   0.78143   0.00000  Uiso   1.00
O1005  O     0.81910   0.83824   0.88523   0.00000  Uiso   1.00
O1006  O     0.89590   0.93355   0.86512   0.00000  Uiso   1.00
S1007  S     0.68402   0.78661   0.98068   0.00000  Uiso   1.00
S1008  S     0.81598   0.88006   0.68598   0.00000  Uiso   1.00
loop_
_geom_bond_atom_site_label_1
_geom_bond_atom_site_label_2
_geom_bond_distance
_geom_bond_site_symmetry_2
_ccdc_geom_bond_type
C1     O48     1.307   .     A
C1     C18     1.433   .     S
C1     O39     1.303   .     A
C2     C4      1.416   .     A
C2     O40     1.386   .     S
C2     C13     1.403   .     A
C3     C21     1.441   .     S
C3     C22     1.416   .     A
C3     C5      1.394   .     A
C4     C20     1.441   .     S
C4     C6      1.394   .     A
C5     C7      1.388   .     A
C5     H25     1.086   .     S
C6     H29     1.086   .     S
C6     C8      1.388   .     A
C7     C9      1.410   .     A
C7     C14     1.399   .     A
C8     C15     1.399   .     A
C8     C10     1.410   .     A
C9     C11     1.417   .     A
C9     C66     1.405   .     S
C10    C13     1.417   .     A
C10    C65     1.405   1_455 S
C11    C22     1.403   .     A
C11    C17     1.406   .     A
C12    O49     1.307   .     A
C12    O47     1.303   .     A
C12    C19     1.433   .     S
C13    C16     1.406   .     A
C14    H30     1.084   .     S
C14    C72     1.391   .     S
C15    H31     1.084   .     S
C15    C73     1.391   1_455 S
C16    H32     1.083   .     S
C16    C70     1.391   1_455 S
C17    H33     1.083   .     S
C17    C71     1.391   .     S
C18    C243    1.338   1_545 S
C18    H258    1.087   1_545 S
C19    C130    1.338   .     S
C19    H147    1.087   .     S
C20    O50     1.306   .     A
C20    O52     1.306   .     A
C21    O53     1.306   .     A
C21    O51     1.306   .     A
C22    O54     1.386   .     S
Cu23   Cu24    2.738   .     S
Cu23   O53     1.951   .     S
Cu23   N38     2.057   .     S
Cu23   O39     1.947   .     S
Cu23   O49     1.949   .     S
Cu23   O50     1.951   .     S
Cu24   O52     1.951   .     S
Cu24   O51     1.951   .     S
Cu24   N37     2.057   .     S
Cu24   O47     1.947   .     S
Cu24   O48     1.949   .     S
H26    O40     0.988   .     S
H27    O43     0.991   .     S
H28    O46     0.991   .     S
H34    C130    1.087   .     S
H35    C243    1.087   1_545 S
H36    O54     0.988   .     S
N37    N710    1.293   1_554 S
N37    S727    1.741   1_554 S
N38    N373    1.293   .     S
N38    S392    1.741   .     S
O41    S55     1.504   .     D
O42    S55     1.496   .     D
O43    S727    1.681   1_554 S
O44    S56     1.496   .     D
O45    S56     1.504   .     D
O46    S392    1.681   .     S
S55    O379    1.681   .     S
S55    N373    1.741   .     S
S56    N710    1.741   1_554 S
S56    O718    1.681   1_554 S
C57    O104    1.307   .     A
C57    C74     1.433   .     S
C57    O95     1.303   .     A
C58    C60     1.416   .     A
C58    O96     1.386   .     S
C58    C69     1.403   .     A
C59    C77     1.441   .     S
C59    C78     1.416   .     A
C59    C61     1.394   .     A
C60    C76     1.441   .     S
C60    C62     1.394   .     A
C61    C63     1.388   .     A
C61    H81     1.086   .     S
C62    H85     1.086   .     S
C62    C64     1.388   .     A
C63    C65     1.410   .     A
C63    C70     1.399   .     A
C64    C71     1.399   .     A
C64    C66     1.410   .     A
C65    C67     1.417   .     A
C65    C10     1.405   1_655 S
C66    C69     1.417   .     A
C67    C78     1.403   .     A
C67    C73     1.406   .     A
C68    O105    1.307   .     A
C68    O103    1.303   .     A
C68    C75     1.433   .     S
C69    C72     1.406   .     A
C70    H86     1.084   .     S
C70    C16     1.391   1_655 S
C71    H87     1.084   .     S
C72    H88     1.083   .     S
C73    H89     1.083   .     S
C73    C15     1.391   1_655 S
C74    C299    1.338   1_545 S
C74    H314    1.087   1_545 S
C75    C186    1.338   .     S
C75    H203    1.087   .     S
C76    O106    1.306   .     A
C76    O108    1.306   .     A
C77    O109    1.306   .     A
C77    O107    1.306   .     A
C78    O110    1.386   .     S
Cu79   Cu80    2.738   .     S
Cu79   O109    1.951   .     S
Cu79   N94     2.057   .     S
Cu79   O95     1.947   .     S
Cu79   O105    1.949   .     S
Cu79   O106    1.951   .     S
Cu80   O108    1.951   .     S
Cu80   O107    1.951   .     S
Cu80   N93     2.057   .     S
Cu80   O103    1.947   .     S
Cu80   O104    1.949   .     S
H82    O96     0.988   .     S
H83    O99     0.991   .     S
H84    O102    0.991   .     S
H90    C186    1.087   .     S
H91    C299    1.087   1_545 S
H92    O110    0.988   .     S
N93    N766    1.293   1_554 S
N93    S783    1.741   1_554 S
N94    N429    1.293   .     S
N94    S448    1.741   .     S
O97    S111    1.504   .     D
O98    S111    1.496   .     D
O99    S783    1.681   1_554 S
O100   S112    1.496   .     D
O101   S112    1.504   .     D
O102   S448    1.681   .     S
S111   O435    1.681   .     S
S111   N429    1.741   .     S
S112   N766    1.741   1_554 S
S112   O774    1.681   1_554 S
C113   O160    1.307   .     A
C113   C130    1.433   .     S
C113   O151    1.303   .     A
C114   C116    1.416   .     A
C114   O152    1.386   .     S
C114   C125    1.403   .     A
C115   C133    1.441   .     S
C115   C134    1.416   .     A
C115   C117    1.394   .     A
C116   C132    1.441   .     S
C116   C118    1.394   .     A
C117   C119    1.388   .     A
C117   H137    1.086   .     S
C118   H141    1.086   .     S
C118   C120    1.388   .     A
C119   C121    1.410   .     A
C119   C126    1.399   .     A
C120   C127    1.399   .     A
C120   C122    1.410   .     A
C121   C123    1.417   .     A
C121   C178    1.405   .     S
C122   C125    1.417   .     A
C122   C177    1.405   1_455 S
C123   C134    1.403   .     A
C123   C129    1.406   .     A
C124   O161    1.307   .     A
C124   O159    1.303   .     A
C124   C131    1.433   .     S
C125   C128    1.406   .     A
C126   H142    1.084   .     S
C126   C184    1.391   .     S
C127   H143    1.084   .     S
C127   C185    1.391   1_455 S
C128   H144    1.083   .     S
C128   C182    1.391   1_455 S
C129   H145    1.083   .     S
C129   C183    1.391   .     S
C131   C242    1.338   .     S
C131   H259    1.087   .     S
C132   O162    1.306   .     A
C132   O164    1.306   .     A
C133   O165    1.306   .     A
C133   O163    1.306   .     A
C134   O166    1.386   .     S
Cu135  Cu136   2.738   .     S
Cu135  O165    1.951   .     S
Cu135  N150    2.057   .     S
Cu135  O151    1.947   .     S
Cu135  O161    1.949   .     S
Cu135  O162    1.951   .     S
Cu136  O164    1.951   .     S
Cu136  O163    1.951   .     S
Cu136  N149    2.057   .     S
Cu136  O159    1.947   .     S
Cu136  O160    1.949   .     S
H138   O152    0.988   .     S
H139   O155    0.991   .     S
H140   O158    0.991   .     S
H146   C242    1.087   .     S
H148   O166    0.988   .     S
N149   N822    1.293   1_554 S
N149   S839    1.741   1_554 S
N150   N485    1.293   .     S
N150   S504    1.741   .     S
O153   S167    1.504   .     D
O154   S167    1.496   .     D
O155   S839    1.681   1_554 S
O156   S168    1.496   .     D
O157   S168    1.504   .     D
O158   S504    1.681   .     S
S167   O491    1.681   .     S
S167   N485    1.741   .     S
S168   N822    1.741   1_554 S
S168   O830    1.681   1_554 S
C169   O216    1.307   .     A
C169   C186    1.433   .     S
C169   O207    1.303   .     A
C170   C172    1.416   .     A
C170   O208    1.386   .     S
C170   C181    1.403   .     A
C171   C189    1.441   .     S
C171   C190    1.416   .     A
C171   C173    1.394   .     A
C172   C188    1.441   .     S
C172   C174    1.394   .     A
C173   C175    1.388   .     A
C173   H193    1.086   .     S
C174   H197    1.086   .     S
C174   C176    1.388   .     A
C175   C177    1.410   .     A
C175   C182    1.399   .     A
C176   C183    1.399   .     A
C176   C178    1.410   .     A
C177   C179    1.417   .     A
C177   C122    1.405   1_655 S
C178   C181    1.417   .     A
C179   C190    1.403   .     A
C179   C185    1.406   .     A
C180   O217    1.307   .     A
C180   O215    1.303   .     A
C180   C187    1.433   .     S
C181   C184    1.406   .     A
C182   H198    1.084   .     S
C182   C128    1.391   1_655 S
C183   H199    1.084   .     S
C184   H200    1.083   .     S
C185   H201    1.083   .     S
C185   C127    1.391   1_655 S
C187   C298    1.338   .     S
C187   H315    1.087   .     S
C188   O218    1.306   .     A
C188   O220    1.306   .     A
C189   O221    1.306   .     A
C189   O219    1.306   .     A
C190   O222    1.386   .     S
Cu191  Cu192   2.738   .     S
Cu191  O221    1.951   .     S
Cu191  N206    2.057   .     S
Cu191  O207    1.947   .     S
Cu191  O217    1.949   .     S
Cu191  O218    1.951   .     S
Cu192  O220    1.951   .     S
Cu192  O219    1.951   .     S
Cu192  N205    2.057   .     S
Cu192  O215    1.947   .     S
Cu192  O216    1.949   .     S
H194   O208    0.988   .     S
H195   O211    0.991   .     S
H196   O214    0.991   .     S
H202   C298    1.087   .     S
H204   O222    0.988   .     S
N205   N878    1.293   1_554 S
N205   S895    1.741   1_554 S
N206   N541    1.293   .     S
N206   S560    1.741   .     S
O209   S223    1.504   .     D
O210   S223    1.496   .     D
O211   S895    1.681   1_554 S
O212   S224    1.496   .     D
O213   S224    1.504   .     D
O214   S560    1.681   .     S
S223   O547    1.681   .     S
S223   N541    1.741   .     S
S224   N878    1.741   1_554 S
S224   O886    1.681   1_554 S
C225   O272    1.307   .     A
C225   C242    1.433   .     S
C225   O263    1.303   .     A
C226   C228    1.416   .     A
C226   O264    1.386   .     S
C226   C237    1.403   .     A
C227   C245    1.441   .     S
C227   C246    1.416   .     A
C227   C229    1.394   .     A
C228   C244    1.441   .     S
C228   C230    1.394   .     A
C229   C231    1.388   .     A
C229   H249    1.086   .     S
C230   H253    1.086   .     S
C230   C232    1.388   .     A
C231   C233    1.410   .     A
C231   C238    1.399   .     A
C232   C239    1.399   .     A
C232   C234    1.410   .     A
C233   C235    1.417   .     A
C233   C290    1.405   .     S
C234   C237    1.417   .     A
C234   C289    1.405   1_455 S
C235   C246    1.403   .     A
C235   C241    1.406   .     A
C236   O273    1.307   .     A
C236   O271    1.303   .     A
C236   C243    1.433   .     S
C237   C240    1.406   .     A
C238   H254    1.084   .     S
C238   C296    1.391   .     S
C239   H255    1.084   .     S
C239   C297    1.391   1_455 S
C240   H256    1.083   .     S
C240   C294    1.391   1_455 S
C241   H257    1.083   .     S
C241   C295    1.391   .     S
C243   C18     1.338   1_565 S
C243   H35     1.087   1_565 S
C244   O274    1.306   .     A
C244   O276    1.306   .     A
C245   O277    1.306   .     A
C245   O275    1.306   .     A
C246   O278    1.386   .     S
Cu247  Cu248   2.738   .     S
Cu247  O277    1.951   .     S
Cu247  N262    2.057   .     S
Cu247  O263    1.947   .     S
Cu247  O273    1.949   .     S
Cu247  O274    1.951   .     S
Cu248  O276    1.951   .     S
Cu248  O275    1.951   .     S
Cu248  N261    2.057   .     S
Cu248  O271    1.947   .     S
Cu248  O272    1.949   .     S
H250   O264    0.988   .     S
H251   O267    0.991   .     S
H252   O270    0.991   .     S
H258   C18     1.087   1_565 S
H260   O278    0.988   .     S
N261   N934    1.293   1_554 S
N261   S951    1.741   1_554 S
N262   N597    1.293   .     S
N262   S616    1.741   .     S
O265   S279    1.504   .     D
O266   S279    1.496   .     D
O267   S951    1.681   1_554 S
O268   S280    1.496   .     D
O269   S280    1.504   .     D
O270   S616    1.681   .     S
S279   O603    1.681   .     S
S279   N597    1.741   .     S
S280   N934    1.741   1_554 S
S280   O942    1.681   1_554 S
C281   O328    1.307   .     A
C281   C298    1.433   .     S
C281   O319    1.303   .     A
C282   C284    1.416   .     A
C282   O320    1.386   .     S
C282   C293    1.403   .     A
C283   C301    1.441   .     S
C283   C302    1.416   .     A
C283   C285    1.394   .     A
C284   C300    1.441   .     S
C284   C286    1.394   .     A
C285   C287    1.388   .     A
C285   H305    1.086   .     S
C286   H309    1.086   .     S
C286   C288    1.388   .     A
C287   C289    1.410   .     A
C287   C294    1.399   .     A
C288   C295    1.399   .     A
C288   C290    1.410   .     A
C289   C291    1.417   .     A
C289   C234    1.405   1_655 S
C290   C293    1.417   .     A
C291   C302    1.403   .     A
C291   C297    1.406   .     A
C292   O329    1.307   .     A
C292   O327    1.303   .     A
C292   C299    1.433   .     S
C293   C296    1.406   .     A
C294   H310    1.084   .     S
C294   C240    1.391   1_655 S
C295   H311    1.084   .     S
C296   H312    1.083   .     S
C297   H313    1.083   .     S
C297   C239    1.391   1_655 S
C299   C74     1.338   1_565 S
C299   H91     1.087   1_565 S
C300   O330    1.306   .     A
C300   O332    1.306   .     A
C301   O333    1.306   .     A
C301   O331    1.306   .     A
C302   O334    1.386   .     S
Cu303  Cu304   2.738   .     S
Cu303  O333    1.951   .     S
Cu303  N318    2.057   .     S
Cu303  O319    1.947   .     S
Cu303  O329    1.949   .     S
Cu303  O330    1.951   .     S
Cu304  O332    1.951   .     S
Cu304  O331    1.951   .     S
Cu304  N317    2.057   .     S
Cu304  O327    1.947   .     S
Cu304  O328    1.949   .     S
H306   O320    0.988   .     S
H307   O323    0.991   .     S
H308   O326    0.991   .     S
H314   C74     1.087   1_565 S
H316   O334    0.988   .     S
N317   N990    1.293   1_554 S
N317   S1007   1.741   1_554 S
N318   N653    1.293   .     S
N318   S672    1.741   .     S
O321   S335    1.504   .     D
O322   S335    1.496   .     D
O323   S1007   1.681   1_554 S
O324   S336    1.496   .     D
O325   S336    1.504   .     D
O326   S672    1.681   .     S
S335   O659    1.681   .     S
S335   N653    1.741   .     S
S336   N990    1.741   1_554 S
S336   O998    1.681   1_554 S
C337   O384    1.307   .     A
C337   C354    1.433   .     S
C337   O375    1.303   .     A
C338   C340    1.416   .     A
C338   O376    1.386   .     S
C338   C349    1.403   .     A
C339   C357    1.441   .     S
C339   C358    1.416   .     A
C339   C341    1.394   .     A
C340   C356    1.441   .     S
C340   C342    1.394   .     A
C341   C343    1.388   .     A
C341   H361    1.086   .     S
C342   H365    1.086   .     S
C342   C344    1.388   .     A
C343   C345    1.410   .     A
C343   C350    1.399   .     A
C344   C351    1.399   .     A
C344   C346    1.410   .     A
C345   C347    1.417   .     A
C345   C402    1.405   .     S
C346   C349    1.417   .     A
C346   C401    1.405   1_455 S
C347   C358    1.403   .     A
C347   C353    1.406   .     A
C348   O385    1.307   .     A
C348   O383    1.303   .     A
C348   C355    1.433   .     S
C349   C352    1.406   .     A
C350   H366    1.084   .     S
C350   C408    1.391   .     S
C351   H367    1.084   .     S
C351   C409    1.391   1_455 S
C352   H368    1.083   .     S
C352   C406    1.391   1_455 S
C353   H369    1.083   .     S
C353   C407    1.391   .     S
C354   C579    1.338   1_545 S
C354   H594    1.087   1_545 S
C355   C466    1.338   .     S
C355   H483    1.087   .     S
C356   O386    1.306   .     A
C356   O388    1.306   .     A
C357   O389    1.306   .     A
C357   O387    1.306   .     A
C358   O390    1.386   .     S
Cu359  Cu360   2.738   .     S
Cu359  O389    1.951   .     S
Cu359  N374    2.057   .     S
Cu359  O375    1.947   .     S
Cu359  O385    1.949   .     S
Cu359  O386    1.951   .     S
Cu360  O388    1.951   .     S
Cu360  O387    1.951   .     S
Cu360  N373    2.057   .     S
Cu360  O383    1.947   .     S
Cu360  O384    1.949   .     S
H362   O376    0.988   .     S
H363   O379    0.991   .     S
H364   O382    0.991   .     S
H370   C466    1.087   .     S
H371   C579    1.087   1_545 S
H372   O390    0.988   .     S
N374   N709    1.293   .     S
N374   S728    1.741   .     S
O377   S391    1.504   .     D
O378   S391    1.496   .     D
O380   S392    1.496   .     D
O381   S392    1.504   .     D
O382   S728    1.681   .     S
S391   O715    1.681   .     S
S391   N709    1.741   .     S
C393   O440    1.307   .     A
C393   C410    1.433   .     S
C393   O431    1.303   .     A
C394   C396    1.416   .     A
C394   O432    1.386   .     S
C394   C405    1.403   .     A
C395   C413    1.441   .     S
C395   C414    1.416   .     A
C395   C397    1.394   .     A
C396   C412    1.441   .     S
C396   C398    1.394   .     A
C397   C399    1.388   .     A
C397   H417    1.086   .     S
C398   H421    1.086   .     S
C398   C400    1.388   .     A
C399   C401    1.410   .     A
C399   C406    1.399   .     A
C400   C407    1.399   .     A
C400   C402    1.410   .     A
C401   C403    1.417   .     A
C401   C346    1.405   1_655 S
C402   C405    1.417   .     A
C403   C414    1.403   .     A
C403   C409    1.406   .     A
C404   O441    1.307   .     A
C404   O439    1.303   .     A
C404   C411    1.433   .     S
C405   C408    1.406   .     A
C406   H422    1.084   .     S
C406   C352    1.391   1_655 S
C407   H423    1.084   .     S
C408   H424    1.083   .     S
C409   H425    1.083   .     S
C409   C351    1.391   1_655 S
C410   C635    1.338   1_545 S
C410   H650    1.087   1_545 S
C411   C522    1.338   .     S
C411   H539    1.087   .     S
C412   O442    1.306   .     A
C412   O444    1.306   .     A
C413   O445    1.306   .     A
C413   O443    1.306   .     A
C414   O446    1.386   .     S
Cu415  Cu416   2.738   .     S
Cu415  O445    1.951   .     S
Cu415  N430    2.057   .     S
Cu415  O431    1.947   .     S
Cu415  O441    1.949   .     S
Cu415  O442    1.951   .     S
Cu416  O444    1.951   .     S
Cu416  O443    1.951   .     S
Cu416  N429    2.057   .     S
Cu416  O439    1.947   .     S
Cu416  O440    1.949   .     S
H418   O432    0.988   .     S
H419   O435    0.991   .     S
H420   O438    0.991   .     S
H426   C522    1.087   .     S
H427   C635    1.087   1_545 S
H428   O446    0.988   .     S
N430   N765    1.293   .     S
N430   S784    1.741   .     S
O433   S447    1.504   .     D
O434   S447    1.496   .     D
O436   S448    1.496   .     D
O437   S448    1.504   .     D
O438   S784    1.681   .     S
S447   O771    1.681   .     S
S447   N765    1.741   .     S
C449   O496    1.307   .     A
C449   C466    1.433   .     S
C449   O487    1.303   .     A
C450   C452    1.416   .     A
C450   O488    1.386   .     S
C450   C461    1.403   .     A
C451   C469    1.441   .     S
C451   C470    1.416   .     A
C451   C453    1.394   .     A
C452   C468    1.441   .     S
C452   C454    1.394   .     A
C453   C455    1.388   .     A
C453   H473    1.086   .     S
C454   H477    1.086   .     S
C454   C456    1.388   .     A
C455   C457    1.410   .     A
C455   C462    1.399   .     A
C456   C463    1.399   .     A
C456   C458    1.410   .     A
C457   C459    1.417   .     A
C457   C514    1.405   .     S
C458   C461    1.417   .     A
C458   C513    1.405   1_455 S
C459   C470    1.403   .     A
C459   C465    1.406   .     A
C460   O497    1.307   .     A
C460   O495    1.303   .     A
C460   C467    1.433   .     S
C461   C464    1.406   .     A
C462   H478    1.084   .     S
C462   C520    1.391   .     S
C463   H479    1.084   .     S
C463   C521    1.391   1_455 S
C464   H480    1.083   .     S
C464   C518    1.391   1_455 S
C465   H481    1.083   .     S
C465   C519    1.391   .     S
C467   C578    1.338   .     S
C467   H595    1.087   .     S
C468   O498    1.306   .     A
C468   O500    1.306   .     A
C469   O501    1.306   .     A
C469   O499    1.306   .     A
C470   O502    1.386   .     S
Cu471  Cu472   2.738   .     S
Cu471  O501    1.951   .     S
Cu471  N486    2.057   .     S
Cu471  O487    1.947   .     S
Cu471  O497    1.949   .     S
Cu471  O498    1.951   .     S
Cu472  O500    1.951   .     S
Cu472  O499    1.951   .     S
Cu472  N485    2.057   .     S
Cu472  O495    1.947   .     S
Cu472  O496    1.949   .     S
H474   O488    0.988   .     S
H475   O491    0.991   .     S
H476   O494    0.991   .     S
H482   C578    1.087   .     S
H484   O502    0.988   .     S
N486   N821    1.293   .     S
N486   S840    1.741   .     S
O489   S503    1.504   .     D
O490   S503    1.496   .     D
O492   S504    1.496   .     D
O493   S504    1.504   .     D
O494   S840    1.681   .     S
S503   O827    1.681   .     S
S503   N821    1.741   .     S
C505   O552    1.307   .     A
C505   C522    1.433   .     S
C505   O543    1.303   .     A
C506   C508    1.416   .     A
C506   O544    1.386   .     S
C506   C517    1.403   .     A
C507   C525    1.441   .     S
C507   C526    1.416   .     A
C507   C509    1.394   .     A
C508   C524    1.441   .     S
C508   C510    1.394   .     A
C509   C511    1.388   .     A
C509   H529    1.086   .     S
C510   H533    1.086   .     S
C510   C512    1.388   .     A
C511   C513    1.410   .     A
C511   C518    1.399   .     A
C512   C519    1.399   .     A
C512   C514    1.410   .     A
C513   C515    1.417   .     A
C513   C458    1.405   1_655 S
C514   C517    1.417   .     A
C515   C526    1.403   .     A
C515   C521    1.406   .     A
C516   O553    1.307   .     A
C516   O551    1.303   .     A
C516   C523    1.433   .     S
C517   C520    1.406   .     A
C518   H534    1.084   .     S
C518   C464    1.391   1_655 S
C519   H535    1.084   .     S
C520   H536    1.083   .     S
C521   H537    1.083   .     S
C521   C463    1.391   1_655 S
C523   C634    1.338   .     S
C523   H651    1.087   .     S
C524   O554    1.306   .     A
C524   O556    1.306   .     A
C525   O557    1.306   .     A
C525   O555    1.306   .     A
C526   O558    1.386   .     S
Cu527  Cu528   2.738   .     S
Cu527  O557    1.951   .     S
Cu527  N542    2.057   .     S
Cu527  O543    1.947   .     S
Cu527  O553    1.949   .     S
Cu527  O554    1.951   .     S
Cu528  O556    1.951   .     S
Cu528  O555    1.951   .     S
Cu528  N541    2.057   .     S
Cu528  O551    1.947   .     S
Cu528  O552    1.949   .     S
H530   O544    0.988   .     S
H531   O547    0.991   .     S
H532   O550    0.991   .     S
H538   C634    1.087   .     S
H540   O558    0.988   .     S
N542   N877    1.293   .     S
N542   S896    1.741   .     S
O545   S559    1.504   .     D
O546   S559    1.496   .     D
O548   S560    1.496   .     D
O549   S560    1.504   .     D
O550   S896    1.681   .     S
S559   O883    1.681   .     S
S559   N877    1.741   .     S
C561   O608    1.307   .     A
C561   C578    1.433   .     S
C561   O599    1.303   .     A
C562   C564    1.416   .     A
C562   O600    1.386   .     S
C562   C573    1.403   .     A
C563   C581    1.441   .     S
C563   C582    1.416   .     A
C563   C565    1.394   .     A
C564   C580    1.441   .     S
C564   C566    1.394   .     A
C565   C567    1.388   .     A
C565   H585    1.086   .     S
C566   H589    1.086   .     S
C566   C568    1.388   .     A
C567   C569    1.410   .     A
C567   C574    1.399   .     A
C568   C575    1.399   .     A
C568   C570    1.410   .     A
C569   C571    1.417   .     A
C569   C626    1.405   .     S
C570   C573    1.417   .     A
C570   C625    1.405   1_455 S
C571   C582    1.403   .     A
C571   C577    1.406   .     A
C572   O609    1.307   .     A
C572   O607    1.303   .     A
C572   C579    1.433   .     S
C573   C576    1.406   .     A
C574   H590    1.084   .     S
C574   C632    1.391   .     S
C575   H591    1.084   .     S
C575   C633    1.391   1_455 S
C576   H592    1.083   .     S
C576   C630    1.391   1_455 S
C577   H593    1.083   .     S
C577   C631    1.391   .     S
C579   C354    1.338   1_565 S
C579   H371    1.087   1_565 S
C580   O610    1.306   .     A
C580   O612    1.306   .     A
C581   O613    1.306   .     A
C581   O611    1.306   .     A
C582   O614    1.386   .     S
Cu583  Cu584   2.738   .     S
Cu583  O613    1.951   .     S
Cu583  N598    2.057   .     S
Cu583  O599    1.947   .     S
Cu583  O609    1.949   .     S
Cu583  O610    1.951   .     S
Cu584  O612    1.951   .     S
Cu584  O611    1.951   .     S
Cu584  N597    2.057   .     S
Cu584  O607    1.947   .     S
Cu584  O608    1.949   .     S
H586   O600    0.988   .     S
H587   O603    0.991   .     S
H588   O606    0.991   .     S
H594   C354    1.087   1_565 S
H596   O614    0.988   .     S
N598   N933    1.293   .     S
N598   S952    1.741   .     S
O601   S615    1.504   .     D
O602   S615    1.496   .     D
O604   S616    1.496   .     D
O605   S616    1.504   .     D
O606   S952    1.681   .     S
S615   O939    1.681   .     S
S615   N933    1.741   .     S
C617   O664    1.307   .     A
C617   C634    1.433   .     S
C617   O655    1.303   .     A
C618   C620    1.416   .     A
C618   O656    1.386   .     S
C618   C629    1.403   .     A
C619   C637    1.441   .     S
C619   C638    1.416   .     A
C619   C621    1.394   .     A
C620   C636    1.441   .     S
C620   C622    1.394   .     A
C621   C623    1.388   .     A
C621   H641    1.086   .     S
C622   H645    1.086   .     S
C622   C624    1.388   .     A
C623   C625    1.410   .     A
C623   C630    1.399   .     A
C624   C631    1.399   .     A
C624   C626    1.410   .     A
C625   C627    1.417   .     A
C625   C570    1.405   1_655 S
C626   C629    1.417   .     A
C627   C638    1.403   .     A
C627   C633    1.406   .     A
C628   O665    1.307   .     A
C628   O663    1.303   .     A
C628   C635    1.433   .     S
C629   C632    1.406   .     A
C630   H646    1.084   .     S
C630   C576    1.391   1_655 S
C631   H647    1.084   .     S
C632   H648    1.083   .     S
C633   H649    1.083   .     S
C633   C575    1.391   1_655 S
C635   C410    1.338   1_565 S
C635   H427    1.087   1_565 S
C636   O666    1.306   .     A
C636   O668    1.306   .     A
C637   O669    1.306   .     A
C637   O667    1.306   .     A
C638   O670    1.386   .     S
Cu639  Cu640   2.738   .     S
Cu639  O669    1.951   .     S
Cu639  N654    2.057   .     S
Cu639  O655    1.947   .     S
Cu639  O665    1.949   .     S
Cu639  O666    1.951   .     S
Cu640  O668    1.951   .     S
Cu640  O667    1.951   .     S
Cu640  N653    2.057   .     S
Cu640  O663    1.947   .     S
Cu640  O664    1.949   .     S
H642   O656    0.988   .     S
H643   O659    0.991   .     S
H644   O662    0.991   .     S
H650   C410    1.087   1_565 S
H652   O670    0.988   .     S
N654   N989    1.293   .     S
N654   S1008   1.741   .     S
O657   S671    1.504   .     D
O658   S671    1.496   .     D
O660   S672    1.496   .     D
O661   S672    1.504   .     D
O662   S1008   1.681   .     S
S671   O995    1.681   .     S
S671   N989    1.741   .     S
C673   O720    1.307   .     A
C673   C690    1.433   .     S
C673   O711    1.303   .     A
C674   C676    1.416   .     A
C674   O712    1.386   .     S
C674   C685    1.403   .     A
C675   C693    1.441   .     S
C675   C694    1.416   .     A
C675   C677    1.394   .     A
C676   C692    1.441   .     S
C676   C678    1.394   .     A
C677   C679    1.388   .     A
C677   H697    1.086   .     S
C678   H701    1.086   .     S
C678   C680    1.388   .     A
C679   C681    1.410   .     A
C679   C686    1.399   .     A
C680   C687    1.399   .     A
C680   C682    1.410   .     A
C681   C683    1.417   .     A
C681   C738    1.405   .     S
C682   C685    1.417   .     A
C682   C737    1.405   1_455 S
C683   C694    1.403   .     A
C683   C689    1.406   .     A
C684   O721    1.307   .     A
C684   O719    1.303   .     A
C684   C691    1.433   .     S
C685   C688    1.406   .     A
C686   H702    1.084   .     S
C686   C744    1.391   .     S
C687   H703    1.084   .     S
C687   C745    1.391   1_455 S
C688   H704    1.083   .     S
C688   C742    1.391   1_455 S
C689   H705    1.083   .     S
C689   C743    1.391   .     S
C690   C915    1.338   1_545 S
C690   H930    1.087   1_545 S
C691   C802    1.338   .     S
C691   H819    1.087   .     S
C692   O722    1.306   .     A
C692   O724    1.306   .     A
C693   O725    1.306   .     A
C693   O723    1.306   .     A
C694   O726    1.386   .     S
Cu695  Cu696   2.738   .     S
Cu695  O725    1.951   .     S
Cu695  N710    2.057   .     S
Cu695  O711    1.947   .     S
Cu695  O721    1.949   .     S
Cu695  O722    1.951   .     S
Cu696  O724    1.951   .     S
Cu696  O723    1.951   .     S
Cu696  N709    2.057   .     S
Cu696  O719    1.947   .     S
Cu696  O720    1.949   .     S
H698   O712    0.988   .     S
H699   O715    0.991   .     S
H700   O718    0.991   .     S
H706   C802    1.087   .     S
H707   C915    1.087   1_545 S
H708   O726    0.988   .     S
N710   N37     1.293   1_556 S
N710   S56     1.741   1_556 S
O713   S727    1.504   .     D
O714   S727    1.496   .     D
O716   S728    1.496   .     D
O717   S728    1.504   .     D
O718   S56     1.681   1_556 S
S727   O43     1.681   1_556 S
S727   N37     1.741   1_556 S
C729   O776    1.307   .     A
C729   C746    1.433   .     S
C729   O767    1.303   .     A
C730   C732    1.416   .     A
C730   O768    1.386   .     S
C730   C741    1.403   .     A
C731   C749    1.441   .     S
C731   C750    1.416   .     A
C731   C733    1.394   .     A
C732   C748    1.441   .     S
C732   C734    1.394   .     A
C733   C735    1.388   .     A
C733   H753    1.086   .     S
C734   H757    1.086   .     S
C734   C736    1.388   .     A
C735   C737    1.410   .     A
C735   C742    1.399   .     A
C736   C743    1.399   .     A
C736   C738    1.410   .     A
C737   C739    1.417   .     A
C737   C682    1.405   1_655 S
C738   C741    1.417   .     A
C739   C750    1.403   .     A
C739   C745    1.406   .     A
C740   O777    1.307   .     A
C740   O775    1.303   .     A
C740   C747    1.433   .     S
C741   C744    1.406   .     A
C742   H758    1.084   .     S
C742   C688    1.391   1_655 S
C743   H759    1.084   .     S
C744   H760    1.083   .     S
C745   H761    1.083   .     S
C745   C687    1.391   1_655 S
C746   C971    1.338   1_545 S
C746   H986    1.087   1_545 S
C747   C858    1.338   .     S
C747   H875    1.087   .     S
C748   O778    1.306   .     A
C748   O780    1.306   .     A
C749   O781    1.306   .     A
C749   O779    1.306   .     A
C750   O782    1.386   .     S
Cu751  Cu752   2.738   .     S
Cu751  O781    1.951   .     S
Cu751  N766    2.057   .     S
Cu751  O767    1.947   .     S
Cu751  O777    1.949   .     S
Cu751  O778    1.951   .     S
Cu752  O780    1.951   .     S
Cu752  O779    1.951   .     S
Cu752  N765    2.057   .     S
Cu752  O775    1.947   .     S
Cu752  O776    1.949   .     S
H754   O768    0.988   .     S
H755   O771    0.991   .     S
H756   O774    0.991   .     S
H762   C858    1.087   .     S
H763   C971    1.087   1_545 S
H764   O782    0.988   .     S
N766   N93     1.293   1_556 S
N766   S112    1.741   1_556 S
O769   S783    1.504   .     D
O770   S783    1.496   .     D
O772   S784    1.496   .     D
O773   S784    1.504   .     D
O774   S112    1.681   1_556 S
S783   O99     1.681   1_556 S
S783   N93     1.741   1_556 S
C785   O832    1.307   .     A
C785   C802    1.433   .     S
C785   O823    1.303   .     A
C786   C788    1.416   .     A
C786   O824    1.386   .     S
C786   C797    1.403   .     A
C787   C805    1.441   .     S
C787   C806    1.416   .     A
C787   C789    1.394   .     A
C788   C804    1.441   .     S
C788   C790    1.394   .     A
C789   C791    1.388   .     A
C789   H809    1.086   .     S
C790   H813    1.086   .     S
C790   C792    1.388   .     A
C791   C793    1.410   .     A
C791   C798    1.399   .     A
C792   C799    1.399   .     A
C792   C794    1.410   .     A
C793   C795    1.417   .     A
C793   C850    1.405   .     S
C794   C797    1.417   .     A
C794   C849    1.405   1_455 S
C795   C806    1.403   .     A
C795   C801    1.406   .     A
C796   O833    1.307   .     A
C796   O831    1.303   .     A
C796   C803    1.433   .     S
C797   C800    1.406   .     A
C798   H814    1.084   .     S
C798   C856    1.391   .     S
C799   H815    1.084   .     S
C799   C857    1.391   1_455 S
C800   H816    1.083   .     S
C800   C854    1.391   1_455 S
C801   H817    1.083   .     S
C801   C855    1.391   .     S
C803   C914    1.338   .     S
C803   H931    1.087   .     S
C804   O834    1.306   .     A
C804   O836    1.306   .     A
C805   O837    1.306   .     A
C805   O835    1.306   .     A
C806   O838    1.386   .     S
Cu807  Cu808   2.738   .     S
Cu807  O837    1.951   .     S
Cu807  N822    2.057   .     S
Cu807  O823    1.947   .     S
Cu807  O833    1.949   .     S
Cu807  O834    1.951   .     S
Cu808  O836    1.951   .     S
Cu808  O835    1.951   .     S
Cu808  N821    2.057   .     S
Cu808  O831    1.947   .     S
Cu808  O832    1.949   .     S
H810   O824    0.988   .     S
H811   O827    0.991   .     S
H812   O830    0.991   .     S
H818   C914    1.087   .     S
H820   O838    0.988   .     S
N822   N149    1.293   1_556 S
N822   S168    1.741   1_556 S
O825   S839    1.504   .     D
O826   S839    1.496   .     D
O828   S840    1.496   .     D
O829   S840    1.504   .     D
O830   S168    1.681   1_556 S
S839   O155    1.681   1_556 S
S839   N149    1.741   1_556 S
C841   O888    1.307   .     A
C841   C858    1.433   .     S
C841   O879    1.303   .     A
C842   C844    1.416   .     A
C842   O880    1.386   .     S
C842   C853    1.403   .     A
C843   C861    1.441   .     S
C843   C862    1.416   .     A
C843   C845    1.394   .     A
C844   C860    1.441   .     S
C844   C846    1.394   .     A
C845   C847    1.388   .     A
C845   H865    1.086   .     S
C846   H869    1.086   .     S
C846   C848    1.388   .     A
C847   C849    1.410   .     A
C847   C854    1.399   .     A
C848   C855    1.399   .     A
C848   C850    1.410   .     A
C849   C851    1.417   .     A
C849   C794    1.405   1_655 S
C850   C853    1.417   .     A
C851   C862    1.403   .     A
C851   C857    1.406   .     A
C852   O889    1.307   .     A
C852   O887    1.303   .     A
C852   C859    1.433   .     S
C853   C856    1.406   .     A
C854   H870    1.084   .     S
C854   C800    1.391   1_655 S
C855   H871    1.084   .     S
C856   H872    1.083   .     S
C857   H873    1.083   .     S
C857   C799    1.391   1_655 S
C859   C970    1.338   .     S
C859   H987    1.087   .     S
C860   O890    1.306   .     A
C860   O892    1.306   .     A
C861   O893    1.306   .     A
C861   O891    1.306   .     A
C862   O894    1.386   .     S
Cu863  Cu864   2.738   .     S
Cu863  O893    1.951   .     S
Cu863  N878    2.057   .     S
Cu863  O879    1.947   .     S
Cu863  O889    1.949   .     S
Cu863  O890    1.951   .     S
Cu864  O892    1.951   .     S
Cu864  O891    1.951   .     S
Cu864  N877    2.057   .     S
Cu864  O887    1.947   .     S
Cu864  O888    1.949   .     S
H866   O880    0.988   .     S
H867   O883    0.991   .     S
H868   O886    0.991   .     S
H874   C970    1.087   .     S
H876   O894    0.988   .     S
N878   N205    1.293   1_556 S
N878   S224    1.741   1_556 S
O881   S895    1.504   .     D
O882   S895    1.496   .     D
O884   S896    1.496   .     D
O885   S896    1.504   .     D
O886   S224    1.681   1_556 S
S895   O211    1.681   1_556 S
S895   N205    1.741   1_556 S
C897   O944    1.307   .     A
C897   C914    1.433   .     S
C897   O935    1.303   .     A
C898   C900    1.416   .     A
C898   O936    1.386   .     S
C898   C909    1.403   .     A
C899   C917    1.441   .     S
C899   C918    1.416   .     A
C899   C901    1.394   .     A
C900   C916    1.441   .     S
C900   C902    1.394   .     A
C901   C903    1.388   .     A
C901   H921    1.086   .     S
C902   H925    1.086   .     S
C902   C904    1.388   .     A
C903   C905    1.410   .     A
C903   C910    1.399   .     A
C904   C911    1.399   .     A
C904   C906    1.410   .     A
C905   C907    1.417   .     A
C905   C962    1.405   .     S
C906   C909    1.417   .     A
C906   C961    1.405   1_455 S
C907   C918    1.403   .     A
C907   C913    1.406   .     A
C908   O945    1.307   .     A
C908   O943    1.303   .     A
C908   C915    1.433   .     S
C909   C912    1.406   .     A
C910   H926    1.084   .     S
C910   C968    1.391   .     S
C911   H927    1.084   .     S
C911   C969    1.391   1_455 S
C912   H928    1.083   .     S
C912   C966    1.391   1_455 S
C913   H929    1.083   .     S
C913   C967    1.391   .     S
C915   C690    1.338   1_565 S
C915   H707    1.087   1_565 S
C916   O946    1.306   .     A
C916   O948    1.306   .     A
C917   O949    1.306   .     A
C917   O947    1.306   .     A
C918   O950    1.386   .     S
Cu919  Cu920   2.738   .     S
Cu919  O949    1.951   .     S
Cu919  N934    2.057   .     S
Cu919  O935    1.947   .     S
Cu919  O945    1.949   .     S
Cu919  O946    1.951   .     S
Cu920  O948    1.951   .     S
Cu920  O947    1.951   .     S
Cu920  N933    2.057   .     S
Cu920  O943    1.947   .     S
Cu920  O944    1.949   .     S
H922   O936    0.988   .     S
H923   O939    0.991   .     S
H924   O942    0.991   .     S
H930   C690    1.087   1_565 S
H932   O950    0.988   .     S
N934   N261    1.293   1_556 S
N934   S280    1.741   1_556 S
O937   S951    1.504   .     D
O938   S951    1.496   .     D
O940   S952    1.496   .     D
O941   S952    1.504   .     D
O942   S280    1.681   1_556 S
S951   O267    1.681   1_556 S
S951   N261    1.741   1_556 S
C953   O1000   1.307   .     A
C953   C970    1.433   .     S
C953   O991    1.303   .     A
C954   C956    1.416   .     A
C954   O992    1.386   .     S
C954   C965    1.403   .     A
C955   C973    1.441   .     S
C955   C974    1.416   .     A
C955   C957    1.394   .     A
C956   C972    1.441   .     S
C956   C958    1.394   .     A
C957   C959    1.388   .     A
C957   H977    1.086   .     S
C958   H981    1.086   .     S
C958   C960    1.388   .     A
C959   C961    1.410   .     A
C959   C966    1.399   .     A
C960   C967    1.399   .     A
C960   C962    1.410   .     A
C961   C963    1.417   .     A
C961   C906    1.405   1_655 S
C962   C965    1.417   .     A
C963   C974    1.403   .     A
C963   C969    1.406   .     A
C964   O1001   1.307   .     A
C964   O999    1.303   .     A
C964   C971    1.433   .     S
C965   C968    1.406   .     A
C966   H982    1.084   .     S
C966   C912    1.391   1_655 S
C967   H983    1.084   .     S
C968   H984    1.083   .     S
C969   H985    1.083   .     S
C969   C911    1.391   1_655 S
C971   C746    1.338   1_565 S
C971   H763    1.087   1_565 S
C972   O1002   1.306   .     A
C972   O1004   1.306   .     A
C973   O1005   1.306   .     A
C973   O1003   1.306   .     A
C974   O1006   1.386   .     S
Cu975  Cu976   2.738   .     S
Cu975  O1005   1.951   .     S
Cu975  N990    2.057   .     S
Cu975  O991    1.947   .     S
Cu975  O1001   1.949   .     S
Cu975  O1002   1.951   .     S
Cu976  O1004   1.951   .     S
Cu976  O1003   1.951   .     S
Cu976  N989    2.057   .     S
Cu976  O999    1.947   .     S
Cu976  O1000   1.949   .     S
H978   O992    0.988   .     S
H979   O995    0.991   .     S
H980   O998    0.991   .     S
H986   C746    1.087   1_565 S
H988   O1006   0.988   .     S
N990   N317    1.293   1_556 S
N990   S336    1.741   1_556 S
O993   S1007   1.504   .     D
O994   S1007   1.496   .     D
O996   S1008   1.496   .     D
O997   S1008   1.504   .     D
O998   S336    1.681   1_556 S
S1007  O323    1.681   1_556 S
S1007  N317    1.741   1_556 S
