data_str_m2_o10_o17_pcu_sym.13
_audit_creation_date              2020-01-03
_audit_creation_method            'Materials Studio'
_symmetry_space_group_name_H-M    'P1'
_symmetry_Int_Tables_number       1
_symmetry_cell_setting            triclinic
loop_
_symmetry_equiv_pos_as_xyz
  x,y,z
_cell_length_a                    29.9722
_cell_length_b                    25.9750
_cell_length_c                    22.3328
_cell_angle_alpha                 103.0073
_cell_angle_beta                  93.8425
_cell_angle_gamma                 91.6464
loop_
_atom_site_label
_atom_site_type_symbol
_atom_site_fract_x
_atom_site_fract_y
_atom_site_fract_z
_atom_site_U_iso_or_equiv
_atom_site_adp_type
_atom_site_occupancy
C1     C     0.24814   0.06658   0.15111   0.00000  Uiso   1.00
C2     C     0.09241   0.12131   0.15774   0.00000  Uiso   1.00
C3     C     0.38340   0.16391   0.16272   0.00000  Uiso   1.00
C4     C     0.11660   0.16943   0.17062   0.00000  Uiso   1.00
C5     C     0.40499   0.11559   0.15180   0.00000  Uiso   1.00
C6     C     0.09501   0.21774   0.18153   0.00000  Uiso   1.00
C7     C     0.45183   0.11601   0.14661   0.00000  Uiso   1.00
C8     C     0.04817   0.21733   0.18672   0.00000  Uiso   1.00
C9     C     0.47644   0.16557   0.16484   0.00000  Uiso   1.00
C10    C     0.02356   0.16776   0.16850   0.00000  Uiso   1.00
C11    C     0.45397   0.21317   0.17970   0.00000  Uiso   1.00
C12    C     0.25186   0.26676   0.18222   0.00000  Uiso   1.00
C13    C     0.04603   0.12016   0.15363   0.00000  Uiso   1.00
C14    C     0.47555   0.06963   0.12529   0.00000  Uiso   1.00
C15    C     0.02445   0.26371   0.20804   0.00000  Uiso   1.00
C16    C     0.02210   0.07201   0.13182   0.00000  Uiso   1.00
C17    C     0.47790   0.26132   0.20151   0.00000  Uiso   1.00
C18    C     0.24726   0.01057   0.14236   0.00000  Uiso   1.00
C19    C     0.25274   0.32277   0.19098   0.00000  Uiso   1.00
C20    C     0.16462   0.16788   0.16790   0.00000  Uiso   1.00
C21    C     0.33538   0.16545   0.16544   0.00000  Uiso   1.00
C22    C     0.40759   0.21202   0.17559   0.00000  Uiso   1.00
Cu23   Cu    0.25500   0.17246   0.22813   0.00000  Uiso   1.00
Cu24   Cu    0.24499   0.16087   0.10521   0.00000  Uiso   1.00
H25    H     0.39010   0.24866   0.18593   0.00000  Uiso   1.00
H26    H     0.10990   0.08467   0.14740   0.00000  Uiso   1.00
H27    H     0.03988   0.03622   0.11632   0.00000  Uiso   1.00
H28    H     0.46012   0.29712   0.21701   0.00000  Uiso   1.00
H29    H     0.24237   0.31997   0.09552   0.00000  Uiso   1.00
H30    H     0.25763   0.01336   0.23781   0.00000  Uiso   1.00
H31    H     0.21520   0.12615   0.31620   0.00000  Uiso   1.00
H32    H     0.28480   0.20718   0.01713   0.00000  Uiso   1.00
I33    I     0.36800   0.04799   0.16594   0.00000  Uiso   1.00
I34    I     0.13200   0.28534   0.16739   0.00000  Uiso   1.00
I35    I     0.44846   0.33108   0.06599   0.00000  Uiso   1.00
I36    I     0.05154   0.00225   0.26734   0.00000  Uiso   1.00
N37    N     0.23744   0.15214   0.01284   0.00000  Uiso   1.00
N38    N     0.26255   0.18119   0.32049   0.00000  Uiso   1.00
O39    O     0.25325   0.09538   0.20659   0.00000  Uiso   1.00
O40    O     0.24674   0.23796   0.12674   0.00000  Uiso   1.00
O41    O     0.24480   0.08559   0.10279   0.00000  Uiso   1.00
O42    O     0.25520   0.24774   0.23055   0.00000  Uiso   1.00
O43    O     0.18935   0.17155   0.21857   0.00000  Uiso   1.00
O44    O     0.31064   0.16179   0.11476   0.00000  Uiso   1.00
O45    O     0.18090   0.16176   0.11477   0.00000  Uiso   1.00
O46    O     0.31910   0.17157   0.21857   0.00000  Uiso   1.00
C47    C     0.74814   0.06658   0.15111   0.00000  Uiso   1.00
C48    C     0.59241   0.12131   0.15774   0.00000  Uiso   1.00
C49    C     0.88340   0.16391   0.16272   0.00000  Uiso   1.00
C50    C     0.61660   0.16943   0.17062   0.00000  Uiso   1.00
C51    C     0.90499   0.11559   0.15180   0.00000  Uiso   1.00
C52    C     0.59501   0.21774   0.18153   0.00000  Uiso   1.00
C53    C     0.95183   0.11601   0.14661   0.00000  Uiso   1.00
C54    C     0.54817   0.21733   0.18672   0.00000  Uiso   1.00
C55    C     0.97644   0.16557   0.16484   0.00000  Uiso   1.00
C56    C     0.52356   0.16776   0.16850   0.00000  Uiso   1.00
C57    C     0.95397   0.21317   0.17970   0.00000  Uiso   1.00
C58    C     0.75186   0.26676   0.18222   0.00000  Uiso   1.00
C59    C     0.54603   0.12016   0.15363   0.00000  Uiso   1.00
C60    C     0.97555   0.06963   0.12529   0.00000  Uiso   1.00
C61    C     0.52445   0.26371   0.20804   0.00000  Uiso   1.00
C62    C     0.52210   0.07201   0.13182   0.00000  Uiso   1.00
C63    C     0.97790   0.26132   0.20151   0.00000  Uiso   1.00
C64    C     0.74726   0.01057   0.14236   0.00000  Uiso   1.00
C65    C     0.75274   0.32277   0.19098   0.00000  Uiso   1.00
C66    C     0.66462   0.16788   0.16790   0.00000  Uiso   1.00
C67    C     0.83538   0.16545   0.16544   0.00000  Uiso   1.00
C68    C     0.90759   0.21202   0.17559   0.00000  Uiso   1.00
Cu69   Cu    0.75500   0.17246   0.22813   0.00000  Uiso   1.00
Cu70   Cu    0.74499   0.16087   0.10521   0.00000  Uiso   1.00
H71    H     0.89010   0.24866   0.18593   0.00000  Uiso   1.00
H72    H     0.60990   0.08467   0.14740   0.00000  Uiso   1.00
H73    H     0.53988   0.03622   0.11632   0.00000  Uiso   1.00
H74    H     0.96012   0.29712   0.21701   0.00000  Uiso   1.00
H75    H     0.74237   0.31997   0.09552   0.00000  Uiso   1.00
H76    H     0.75763   0.01336   0.23781   0.00000  Uiso   1.00
H77    H     0.71520   0.12615   0.31620   0.00000  Uiso   1.00
H78    H     0.78480   0.20718   0.01713   0.00000  Uiso   1.00
I79    I     0.86800   0.04799   0.16594   0.00000  Uiso   1.00
I80    I     0.63200   0.28534   0.16739   0.00000  Uiso   1.00
I81    I     0.94846   0.33108   0.06599   0.00000  Uiso   1.00
I82    I     0.55154   0.00225   0.26734   0.00000  Uiso   1.00
N83    N     0.73744   0.15214   0.01284   0.00000  Uiso   1.00
N84    N     0.76255   0.18119   0.32049   0.00000  Uiso   1.00
O85    O     0.75325   0.09538   0.20659   0.00000  Uiso   1.00
O86    O     0.74674   0.23796   0.12674   0.00000  Uiso   1.00
O87    O     0.74480   0.08559   0.10279   0.00000  Uiso   1.00
O88    O     0.75520   0.24774   0.23055   0.00000  Uiso   1.00
O89    O     0.68935   0.17155   0.21857   0.00000  Uiso   1.00
O90    O     0.81064   0.16179   0.11476   0.00000  Uiso   1.00
O91    O     0.68090   0.16176   0.11477   0.00000  Uiso   1.00
O92    O     0.81910   0.17157   0.21857   0.00000  Uiso   1.00
C93    C     0.24814   0.39991   0.15111   0.00000  Uiso   1.00
C94    C     0.09241   0.45465   0.15774   0.00000  Uiso   1.00
C95    C     0.38340   0.49724   0.16272   0.00000  Uiso   1.00
C96    C     0.11660   0.50276   0.17062   0.00000  Uiso   1.00
C97    C     0.40499   0.44892   0.15180   0.00000  Uiso   1.00
C98    C     0.09501   0.55108   0.18153   0.00000  Uiso   1.00
C99    C     0.45183   0.44934   0.14661   0.00000  Uiso   1.00
C100   C     0.04817   0.55066   0.18672   0.00000  Uiso   1.00
C101   C     0.47644   0.49891   0.16484   0.00000  Uiso   1.00
C102   C     0.02356   0.50109   0.16850   0.00000  Uiso   1.00
C103   C     0.45397   0.54650   0.17970   0.00000  Uiso   1.00
C104   C     0.25186   0.60009   0.18222   0.00000  Uiso   1.00
C105   C     0.04603   0.45350   0.15363   0.00000  Uiso   1.00
C106   C     0.47555   0.40296   0.12529   0.00000  Uiso   1.00
C107   C     0.02445   0.59704   0.20804   0.00000  Uiso   1.00
C108   C     0.02210   0.40535   0.13182   0.00000  Uiso   1.00
C109   C     0.47790   0.59465   0.20151   0.00000  Uiso   1.00
C110   C     0.24726   0.34390   0.14236   0.00000  Uiso   1.00
C111   C     0.25274   0.65610   0.19098   0.00000  Uiso   1.00
C112   C     0.16462   0.50121   0.16790   0.00000  Uiso   1.00
C113   C     0.33538   0.49879   0.16544   0.00000  Uiso   1.00
C114   C     0.40759   0.54535   0.17559   0.00000  Uiso   1.00
Cu115  Cu    0.25500   0.50579   0.22813   0.00000  Uiso   1.00
Cu116  Cu    0.24499   0.49421   0.10521   0.00000  Uiso   1.00
H117   H     0.39010   0.58199   0.18593   0.00000  Uiso   1.00
H118   H     0.10990   0.41801   0.14740   0.00000  Uiso   1.00
H119   H     0.03988   0.36955   0.11632   0.00000  Uiso   1.00
H120   H     0.46012   0.63045   0.21701   0.00000  Uiso   1.00
H121   H     0.24237   0.65331   0.09552   0.00000  Uiso   1.00
H122   H     0.25763   0.34669   0.23781   0.00000  Uiso   1.00
H123   H     0.21520   0.45948   0.31620   0.00000  Uiso   1.00
H124   H     0.28480   0.54052   0.01713   0.00000  Uiso   1.00
I125   I     0.36800   0.38132   0.16594   0.00000  Uiso   1.00
I126   I     0.13200   0.61868   0.16739   0.00000  Uiso   1.00
I127   I     0.44846   0.66442   0.06599   0.00000  Uiso   1.00
I128   I     0.05154   0.33558   0.26734   0.00000  Uiso   1.00
N129   N     0.23744   0.48547   0.01284   0.00000  Uiso   1.00
N130   N     0.26255   0.51453   0.32049   0.00000  Uiso   1.00
O131   O     0.25325   0.42871   0.20659   0.00000  Uiso   1.00
O132   O     0.24674   0.57129   0.12674   0.00000  Uiso   1.00
O133   O     0.24480   0.41892   0.10279   0.00000  Uiso   1.00
O134   O     0.25520   0.58108   0.23055   0.00000  Uiso   1.00
O135   O     0.18935   0.50488   0.21857   0.00000  Uiso   1.00
O136   O     0.31064   0.49512   0.11476   0.00000  Uiso   1.00
O137   O     0.18090   0.49510   0.11477   0.00000  Uiso   1.00
O138   O     0.31910   0.50490   0.21857   0.00000  Uiso   1.00
C139   C     0.74814   0.39991   0.15111   0.00000  Uiso   1.00
C140   C     0.59241   0.45465   0.15774   0.00000  Uiso   1.00
C141   C     0.88340   0.49724   0.16272   0.00000  Uiso   1.00
C142   C     0.61660   0.50276   0.17062   0.00000  Uiso   1.00
C143   C     0.90499   0.44892   0.15180   0.00000  Uiso   1.00
C144   C     0.59501   0.55108   0.18153   0.00000  Uiso   1.00
C145   C     0.95183   0.44934   0.14661   0.00000  Uiso   1.00
C146   C     0.54817   0.55066   0.18672   0.00000  Uiso   1.00
C147   C     0.97644   0.49891   0.16484   0.00000  Uiso   1.00
C148   C     0.52356   0.50109   0.16850   0.00000  Uiso   1.00
C149   C     0.95397   0.54650   0.17970   0.00000  Uiso   1.00
C150   C     0.75186   0.60009   0.18222   0.00000  Uiso   1.00
C151   C     0.54603   0.45350   0.15363   0.00000  Uiso   1.00
C152   C     0.97555   0.40296   0.12529   0.00000  Uiso   1.00
C153   C     0.52445   0.59704   0.20804   0.00000  Uiso   1.00
C154   C     0.52210   0.40535   0.13182   0.00000  Uiso   1.00
C155   C     0.97790   0.59465   0.20151   0.00000  Uiso   1.00
C156   C     0.74726   0.34390   0.14236   0.00000  Uiso   1.00
C157   C     0.75274   0.65610   0.19098   0.00000  Uiso   1.00
C158   C     0.66462   0.50121   0.16790   0.00000  Uiso   1.00
C159   C     0.83538   0.49879   0.16544   0.00000  Uiso   1.00
C160   C     0.90759   0.54535   0.17559   0.00000  Uiso   1.00
Cu161  Cu    0.75500   0.50579   0.22813   0.00000  Uiso   1.00
Cu162  Cu    0.74499   0.49421   0.10521   0.00000  Uiso   1.00
H163   H     0.89010   0.58199   0.18593   0.00000  Uiso   1.00
H164   H     0.60990   0.41801   0.14740   0.00000  Uiso   1.00
H165   H     0.53988   0.36955   0.11632   0.00000  Uiso   1.00
H166   H     0.96012   0.63045   0.21701   0.00000  Uiso   1.00
H167   H     0.74237   0.65331   0.09552   0.00000  Uiso   1.00
H168   H     0.75763   0.34669   0.23781   0.00000  Uiso   1.00
H169   H     0.71520   0.45948   0.31620   0.00000  Uiso   1.00
H170   H     0.78480   0.54052   0.01713   0.00000  Uiso   1.00
I171   I     0.86800   0.38132   0.16594   0.00000  Uiso   1.00
I172   I     0.63200   0.61868   0.16739   0.00000  Uiso   1.00
I173   I     0.94846   0.66442   0.06599   0.00000  Uiso   1.00
I174   I     0.55154   0.33558   0.26734   0.00000  Uiso   1.00
N175   N     0.73744   0.48547   0.01284   0.00000  Uiso   1.00
N176   N     0.76255   0.51453   0.32049   0.00000  Uiso   1.00
O177   O     0.75325   0.42871   0.20659   0.00000  Uiso   1.00
O178   O     0.74674   0.57129   0.12674   0.00000  Uiso   1.00
O179   O     0.74480   0.41892   0.10279   0.00000  Uiso   1.00
O180   O     0.75520   0.58108   0.23055   0.00000  Uiso   1.00
O181   O     0.68935   0.50488   0.21857   0.00000  Uiso   1.00
O182   O     0.81064   0.49512   0.11476   0.00000  Uiso   1.00
O183   O     0.68090   0.49510   0.11477   0.00000  Uiso   1.00
O184   O     0.81910   0.50490   0.21857   0.00000  Uiso   1.00
C185   C     0.24814   0.73324   0.15111   0.00000  Uiso   1.00
C186   C     0.09241   0.78798   0.15774   0.00000  Uiso   1.00
C187   C     0.38340   0.83057   0.16272   0.00000  Uiso   1.00
C188   C     0.11660   0.83609   0.17062   0.00000  Uiso   1.00
C189   C     0.40499   0.78225   0.15180   0.00000  Uiso   1.00
C190   C     0.09501   0.88441   0.18153   0.00000  Uiso   1.00
C191   C     0.45183   0.78267   0.14661   0.00000  Uiso   1.00
C192   C     0.04817   0.88399   0.18672   0.00000  Uiso   1.00
C193   C     0.47644   0.83224   0.16484   0.00000  Uiso   1.00
C194   C     0.02356   0.83443   0.16850   0.00000  Uiso   1.00
C195   C     0.45397   0.87984   0.17970   0.00000  Uiso   1.00
C196   C     0.25186   0.93342   0.18222   0.00000  Uiso   1.00
C197   C     0.04603   0.78683   0.15363   0.00000  Uiso   1.00
C198   C     0.47555   0.73629   0.12529   0.00000  Uiso   1.00
C199   C     0.02445   0.93037   0.20804   0.00000  Uiso   1.00
C200   C     0.02210   0.73868   0.13182   0.00000  Uiso   1.00
C201   C     0.47790   0.92799   0.20151   0.00000  Uiso   1.00
C202   C     0.24726   0.67723   0.14236   0.00000  Uiso   1.00
C203   C     0.25274   0.98943   0.19098   0.00000  Uiso   1.00
C204   C     0.16462   0.83455   0.16790   0.00000  Uiso   1.00
C205   C     0.33538   0.83212   0.16544   0.00000  Uiso   1.00
C206   C     0.40759   0.87869   0.17559   0.00000  Uiso   1.00
Cu207  Cu    0.25500   0.83913   0.22813   0.00000  Uiso   1.00
Cu208  Cu    0.24499   0.82754   0.10521   0.00000  Uiso   1.00
H209   H     0.39010   0.91533   0.18593   0.00000  Uiso   1.00
H210   H     0.10990   0.75134   0.14740   0.00000  Uiso   1.00
H211   H     0.03988   0.70288   0.11632   0.00000  Uiso   1.00
H212   H     0.46012   0.96378   0.21701   0.00000  Uiso   1.00
H213   H     0.24237   0.98664   0.09552   0.00000  Uiso   1.00
H214   H     0.25763   0.68003   0.23781   0.00000  Uiso   1.00
H215   H     0.21520   0.79282   0.31620   0.00000  Uiso   1.00
H216   H     0.28480   0.87385   0.01713   0.00000  Uiso   1.00
I217   I     0.36800   0.71466   0.16594   0.00000  Uiso   1.00
I218   I     0.13200   0.95201   0.16739   0.00000  Uiso   1.00
I219   I     0.44846   0.99775   0.06599   0.00000  Uiso   1.00
I220   I     0.05154   0.66892   0.26734   0.00000  Uiso   1.00
N221   N     0.23744   0.81881   0.01284   0.00000  Uiso   1.00
N222   N     0.26255   0.84786   0.32049   0.00000  Uiso   1.00
O223   O     0.25325   0.76204   0.20659   0.00000  Uiso   1.00
O224   O     0.24674   0.90462   0.12674   0.00000  Uiso   1.00
O225   O     0.24480   0.75226   0.10279   0.00000  Uiso   1.00
O226   O     0.25520   0.91441   0.23055   0.00000  Uiso   1.00
O227   O     0.18935   0.83821   0.21857   0.00000  Uiso   1.00
O228   O     0.31064   0.82845   0.11476   0.00000  Uiso   1.00
O229   O     0.18090   0.82843   0.11477   0.00000  Uiso   1.00
O230   O     0.31910   0.83824   0.21857   0.00000  Uiso   1.00
C231   C     0.74814   0.73324   0.15111   0.00000  Uiso   1.00
C232   C     0.59241   0.78798   0.15774   0.00000  Uiso   1.00
C233   C     0.88340   0.83057   0.16272   0.00000  Uiso   1.00
C234   C     0.61660   0.83609   0.17062   0.00000  Uiso   1.00
C235   C     0.90499   0.78225   0.15180   0.00000  Uiso   1.00
C236   C     0.59501   0.88441   0.18153   0.00000  Uiso   1.00
C237   C     0.95183   0.78267   0.14661   0.00000  Uiso   1.00
C238   C     0.54817   0.88399   0.18672   0.00000  Uiso   1.00
C239   C     0.97644   0.83224   0.16484   0.00000  Uiso   1.00
C240   C     0.52356   0.83443   0.16850   0.00000  Uiso   1.00
C241   C     0.95397   0.87984   0.17970   0.00000  Uiso   1.00
C242   C     0.75186   0.93342   0.18222   0.00000  Uiso   1.00
C243   C     0.54603   0.78683   0.15363   0.00000  Uiso   1.00
C244   C     0.97555   0.73629   0.12529   0.00000  Uiso   1.00
C245   C     0.52445   0.93037   0.20804   0.00000  Uiso   1.00
C246   C     0.52210   0.73868   0.13182   0.00000  Uiso   1.00
C247   C     0.97790   0.92799   0.20151   0.00000  Uiso   1.00
C248   C     0.74726   0.67723   0.14236   0.00000  Uiso   1.00
C249   C     0.75274   0.98943   0.19098   0.00000  Uiso   1.00
C250   C     0.66462   0.83455   0.16790   0.00000  Uiso   1.00
C251   C     0.83538   0.83212   0.16544   0.00000  Uiso   1.00
C252   C     0.90759   0.87869   0.17559   0.00000  Uiso   1.00
Cu253  Cu    0.75500   0.83913   0.22813   0.00000  Uiso   1.00
Cu254  Cu    0.74499   0.82754   0.10521   0.00000  Uiso   1.00
H255   H     0.89010   0.91533   0.18593   0.00000  Uiso   1.00
H256   H     0.60990   0.75134   0.14740   0.00000  Uiso   1.00
H257   H     0.53988   0.70288   0.11632   0.00000  Uiso   1.00
H258   H     0.96012   0.96378   0.21701   0.00000  Uiso   1.00
H259   H     0.74237   0.98664   0.09552   0.00000  Uiso   1.00
H260   H     0.75763   0.68003   0.23781   0.00000  Uiso   1.00
H261   H     0.71520   0.79282   0.31620   0.00000  Uiso   1.00
H262   H     0.78480   0.87385   0.01713   0.00000  Uiso   1.00
I263   I     0.86800   0.71466   0.16594   0.00000  Uiso   1.00
I264   I     0.63200   0.95201   0.16739   0.00000  Uiso   1.00
I265   I     0.94846   0.99775   0.06599   0.00000  Uiso   1.00
I266   I     0.55154   0.66892   0.26734   0.00000  Uiso   1.00
N267   N     0.73744   0.81881   0.01284   0.00000  Uiso   1.00
N268   N     0.76255   0.84786   0.32049   0.00000  Uiso   1.00
O269   O     0.75325   0.76204   0.20659   0.00000  Uiso   1.00
O270   O     0.74674   0.90462   0.12674   0.00000  Uiso   1.00
O271   O     0.74480   0.75226   0.10279   0.00000  Uiso   1.00
O272   O     0.75520   0.91441   0.23055   0.00000  Uiso   1.00
O273   O     0.68935   0.83821   0.21857   0.00000  Uiso   1.00
O274   O     0.81064   0.82845   0.11476   0.00000  Uiso   1.00
O275   O     0.68090   0.82843   0.11477   0.00000  Uiso   1.00
O276   O     0.81910   0.83824   0.21857   0.00000  Uiso   1.00
C277   C     0.24814   0.06658   0.48445   0.00000  Uiso   1.00
C278   C     0.09241   0.12131   0.49108   0.00000  Uiso   1.00
C279   C     0.38340   0.16391   0.49605   0.00000  Uiso   1.00
C280   C     0.11660   0.16943   0.50395   0.00000  Uiso   1.00
C281   C     0.40499   0.11559   0.48513   0.00000  Uiso   1.00
C282   C     0.09501   0.21774   0.51487   0.00000  Uiso   1.00
C283   C     0.45183   0.11601   0.47995   0.00000  Uiso   1.00
C284   C     0.04817   0.21733   0.52005   0.00000  Uiso   1.00
C285   C     0.47644   0.16557   0.49817   0.00000  Uiso   1.00
C286   C     0.02356   0.16776   0.50183   0.00000  Uiso   1.00
C287   C     0.45397   0.21317   0.51303   0.00000  Uiso   1.00
C288   C     0.25186   0.26676   0.51555   0.00000  Uiso   1.00
C289   C     0.04603   0.12016   0.48697   0.00000  Uiso   1.00
C290   C     0.47555   0.06963   0.45863   0.00000  Uiso   1.00
C291   C     0.02445   0.26371   0.54137   0.00000  Uiso   1.00
C292   C     0.02210   0.07201   0.46516   0.00000  Uiso   1.00
C293   C     0.47790   0.26132   0.53484   0.00000  Uiso   1.00
C294   C     0.24726   0.01057   0.47569   0.00000  Uiso   1.00
C295   C     0.25274   0.32277   0.52431   0.00000  Uiso   1.00
C296   C     0.16462   0.16788   0.50123   0.00000  Uiso   1.00
C297   C     0.33538   0.16545   0.49877   0.00000  Uiso   1.00
C298   C     0.40759   0.21202   0.50892   0.00000  Uiso   1.00
Cu299  Cu    0.25500   0.17246   0.56146   0.00000  Uiso   1.00
Cu300  Cu    0.24499   0.16087   0.43854   0.00000  Uiso   1.00
H301   H     0.39010   0.24866   0.51926   0.00000  Uiso   1.00
H302   H     0.10990   0.08467   0.48074   0.00000  Uiso   1.00
H303   H     0.03988   0.03622   0.44965   0.00000  Uiso   1.00
H304   H     0.46012   0.29712   0.55035   0.00000  Uiso   1.00
H305   H     0.24237   0.31997   0.42886   0.00000  Uiso   1.00
H306   H     0.25763   0.01336   0.57114   0.00000  Uiso   1.00
H307   H     0.21520   0.12615   0.64953   0.00000  Uiso   1.00
H308   H     0.28480   0.20718   0.35047   0.00000  Uiso   1.00
I309   I     0.36800   0.04799   0.49928   0.00000  Uiso   1.00
I310   I     0.13200   0.28534   0.50072   0.00000  Uiso   1.00
I311   I     0.44846   0.33108   0.39933   0.00000  Uiso   1.00
I312   I     0.05154   0.00225   0.60067   0.00000  Uiso   1.00
N313   N     0.23744   0.15214   0.34617   0.00000  Uiso   1.00
N314   N     0.26255   0.18119   0.65383   0.00000  Uiso   1.00
O315   O     0.25325   0.09538   0.53992   0.00000  Uiso   1.00
O316   O     0.24674   0.23796   0.46008   0.00000  Uiso   1.00
O317   O     0.24480   0.08559   0.43612   0.00000  Uiso   1.00
O318   O     0.25520   0.24774   0.56388   0.00000  Uiso   1.00
O319   O     0.18935   0.17155   0.55191   0.00000  Uiso   1.00
O320   O     0.31064   0.16179   0.44809   0.00000  Uiso   1.00
O321   O     0.18090   0.16176   0.44810   0.00000  Uiso   1.00
O322   O     0.31910   0.17157   0.55190   0.00000  Uiso   1.00
C323   C     0.74814   0.06658   0.48445   0.00000  Uiso   1.00
C324   C     0.59241   0.12131   0.49108   0.00000  Uiso   1.00
C325   C     0.88340   0.16391   0.49605   0.00000  Uiso   1.00
C326   C     0.61660   0.16943   0.50395   0.00000  Uiso   1.00
C327   C     0.90499   0.11559   0.48513   0.00000  Uiso   1.00
C328   C     0.59501   0.21774   0.51487   0.00000  Uiso   1.00
C329   C     0.95183   0.11601   0.47995   0.00000  Uiso   1.00
C330   C     0.54817   0.21733   0.52005   0.00000  Uiso   1.00
C331   C     0.97644   0.16557   0.49817   0.00000  Uiso   1.00
C332   C     0.52356   0.16776   0.50183   0.00000  Uiso   1.00
C333   C     0.95397   0.21317   0.51303   0.00000  Uiso   1.00
C334   C     0.75186   0.26676   0.51555   0.00000  Uiso   1.00
C335   C     0.54603   0.12016   0.48697   0.00000  Uiso   1.00
C336   C     0.97555   0.06963   0.45863   0.00000  Uiso   1.00
C337   C     0.52445   0.26371   0.54137   0.00000  Uiso   1.00
C338   C     0.52210   0.07201   0.46516   0.00000  Uiso   1.00
C339   C     0.97790   0.26132   0.53484   0.00000  Uiso   1.00
C340   C     0.74726   0.01057   0.47569   0.00000  Uiso   1.00
C341   C     0.75274   0.32277   0.52431   0.00000  Uiso   1.00
C342   C     0.66462   0.16788   0.50123   0.00000  Uiso   1.00
C343   C     0.83538   0.16545   0.49877   0.00000  Uiso   1.00
C344   C     0.90759   0.21202   0.50892   0.00000  Uiso   1.00
Cu345  Cu    0.75500   0.17246   0.56146   0.00000  Uiso   1.00
Cu346  Cu    0.74499   0.16087   0.43854   0.00000  Uiso   1.00
H347   H     0.89010   0.24866   0.51926   0.00000  Uiso   1.00
H348   H     0.60990   0.08467   0.48074   0.00000  Uiso   1.00
H349   H     0.53988   0.03622   0.44965   0.00000  Uiso   1.00
H350   H     0.96012   0.29712   0.55035   0.00000  Uiso   1.00
H351   H     0.74237   0.31997   0.42886   0.00000  Uiso   1.00
H352   H     0.75763   0.01336   0.57114   0.00000  Uiso   1.00
H353   H     0.71520   0.12615   0.64953   0.00000  Uiso   1.00
H354   H     0.78480   0.20718   0.35047   0.00000  Uiso   1.00
I355   I     0.86800   0.04799   0.49928   0.00000  Uiso   1.00
I356   I     0.63200   0.28534   0.50072   0.00000  Uiso   1.00
I357   I     0.94846   0.33108   0.39933   0.00000  Uiso   1.00
I358   I     0.55154   0.00225   0.60067   0.00000  Uiso   1.00
N359   N     0.73744   0.15214   0.34617   0.00000  Uiso   1.00
N360   N     0.76255   0.18119   0.65383   0.00000  Uiso   1.00
O361   O     0.75325   0.09538   0.53992   0.00000  Uiso   1.00
O362   O     0.74674   0.23796   0.46008   0.00000  Uiso   1.00
O363   O     0.74480   0.08559   0.43612   0.00000  Uiso   1.00
O364   O     0.75520   0.24774   0.56388   0.00000  Uiso   1.00
O365   O     0.68935   0.17155   0.55191   0.00000  Uiso   1.00
O366   O     0.81064   0.16179   0.44809   0.00000  Uiso   1.00
O367   O     0.68090   0.16176   0.44810   0.00000  Uiso   1.00
O368   O     0.81910   0.17157   0.55190   0.00000  Uiso   1.00
C369   C     0.24814   0.39991   0.48445   0.00000  Uiso   1.00
C370   C     0.09241   0.45465   0.49108   0.00000  Uiso   1.00
C371   C     0.38340   0.49724   0.49605   0.00000  Uiso   1.00
C372   C     0.11660   0.50276   0.50395   0.00000  Uiso   1.00
C373   C     0.40499   0.44892   0.48513   0.00000  Uiso   1.00
C374   C     0.09501   0.55108   0.51487   0.00000  Uiso   1.00
C375   C     0.45183   0.44934   0.47995   0.00000  Uiso   1.00
C376   C     0.04817   0.55066   0.52005   0.00000  Uiso   1.00
C377   C     0.47644   0.49891   0.49817   0.00000  Uiso   1.00
C378   C     0.02356   0.50109   0.50183   0.00000  Uiso   1.00
C379   C     0.45397   0.54650   0.51303   0.00000  Uiso   1.00
C380   C     0.25186   0.60009   0.51555   0.00000  Uiso   1.00
C381   C     0.04603   0.45350   0.48697   0.00000  Uiso   1.00
C382   C     0.47555   0.40296   0.45863   0.00000  Uiso   1.00
C383   C     0.02445   0.59704   0.54137   0.00000  Uiso   1.00
C384   C     0.02210   0.40535   0.46516   0.00000  Uiso   1.00
C385   C     0.47790   0.59465   0.53484   0.00000  Uiso   1.00
C386   C     0.24726   0.34390   0.47569   0.00000  Uiso   1.00
C387   C     0.25274   0.65610   0.52431   0.00000  Uiso   1.00
C388   C     0.16462   0.50121   0.50123   0.00000  Uiso   1.00
C389   C     0.33538   0.49879   0.49877   0.00000  Uiso   1.00
C390   C     0.40759   0.54535   0.50892   0.00000  Uiso   1.00
Cu391  Cu    0.25500   0.50579   0.56146   0.00000  Uiso   1.00
Cu392  Cu    0.24499   0.49421   0.43854   0.00000  Uiso   1.00
H393   H     0.39010   0.58199   0.51926   0.00000  Uiso   1.00
H394   H     0.10990   0.41801   0.48074   0.00000  Uiso   1.00
H395   H     0.03988   0.36955   0.44965   0.00000  Uiso   1.00
H396   H     0.46012   0.63045   0.55035   0.00000  Uiso   1.00
H397   H     0.24237   0.65331   0.42886   0.00000  Uiso   1.00
H398   H     0.25763   0.34669   0.57114   0.00000  Uiso   1.00
H399   H     0.21520   0.45948   0.64953   0.00000  Uiso   1.00
H400   H     0.28480   0.54052   0.35047   0.00000  Uiso   1.00
I401   I     0.36800   0.38132   0.49928   0.00000  Uiso   1.00
I402   I     0.13200   0.61868   0.50072   0.00000  Uiso   1.00
I403   I     0.44846   0.66442   0.39933   0.00000  Uiso   1.00
I404   I     0.05154   0.33558   0.60067   0.00000  Uiso   1.00
N405   N     0.23744   0.48547   0.34617   0.00000  Uiso   1.00
N406   N     0.26255   0.51453   0.65383   0.00000  Uiso   1.00
O407   O     0.25325   0.42871   0.53992   0.00000  Uiso   1.00
O408   O     0.24674   0.57129   0.46008   0.00000  Uiso   1.00
O409   O     0.24480   0.41892   0.43612   0.00000  Uiso   1.00
O410   O     0.25520   0.58108   0.56388   0.00000  Uiso   1.00
O411   O     0.18935   0.50488   0.55191   0.00000  Uiso   1.00
O412   O     0.31064   0.49512   0.44809   0.00000  Uiso   1.00
O413   O     0.18090   0.49510   0.44810   0.00000  Uiso   1.00
O414   O     0.31910   0.50490   0.55190   0.00000  Uiso   1.00
C415   C     0.74814   0.39991   0.48445   0.00000  Uiso   1.00
C416   C     0.59241   0.45465   0.49108   0.00000  Uiso   1.00
C417   C     0.88340   0.49724   0.49605   0.00000  Uiso   1.00
C418   C     0.61660   0.50276   0.50395   0.00000  Uiso   1.00
C419   C     0.90499   0.44892   0.48513   0.00000  Uiso   1.00
C420   C     0.59501   0.55108   0.51487   0.00000  Uiso   1.00
C421   C     0.95183   0.44934   0.47995   0.00000  Uiso   1.00
C422   C     0.54817   0.55066   0.52005   0.00000  Uiso   1.00
C423   C     0.97644   0.49891   0.49817   0.00000  Uiso   1.00
C424   C     0.52356   0.50109   0.50183   0.00000  Uiso   1.00
C425   C     0.95397   0.54650   0.51303   0.00000  Uiso   1.00
C426   C     0.75186   0.60009   0.51555   0.00000  Uiso   1.00
C427   C     0.54603   0.45350   0.48697   0.00000  Uiso   1.00
C428   C     0.97555   0.40296   0.45863   0.00000  Uiso   1.00
C429   C     0.52445   0.59704   0.54137   0.00000  Uiso   1.00
C430   C     0.52210   0.40535   0.46516   0.00000  Uiso   1.00
C431   C     0.97790   0.59465   0.53484   0.00000  Uiso   1.00
C432   C     0.74726   0.34390   0.47569   0.00000  Uiso   1.00
C433   C     0.75274   0.65610   0.52431   0.00000  Uiso   1.00
C434   C     0.66462   0.50121   0.50123   0.00000  Uiso   1.00
C435   C     0.83538   0.49879   0.49877   0.00000  Uiso   1.00
C436   C     0.90759   0.54535   0.50892   0.00000  Uiso   1.00
Cu437  Cu    0.75500   0.50579   0.56146   0.00000  Uiso   1.00
Cu438  Cu    0.74499   0.49421   0.43854   0.00000  Uiso   1.00
H439   H     0.89010   0.58199   0.51926   0.00000  Uiso   1.00
H440   H     0.60990   0.41801   0.48074   0.00000  Uiso   1.00
H441   H     0.53988   0.36955   0.44965   0.00000  Uiso   1.00
H442   H     0.96012   0.63045   0.55035   0.00000  Uiso   1.00
H443   H     0.74237   0.65331   0.42886   0.00000  Uiso   1.00
H444   H     0.75763   0.34669   0.57114   0.00000  Uiso   1.00
H445   H     0.71520   0.45948   0.64953   0.00000  Uiso   1.00
H446   H     0.78480   0.54052   0.35047   0.00000  Uiso   1.00
I447   I     0.86800   0.38132   0.49928   0.00000  Uiso   1.00
I448   I     0.63200   0.61868   0.50072   0.00000  Uiso   1.00
I449   I     0.94846   0.66442   0.39933   0.00000  Uiso   1.00
I450   I     0.55154   0.33558   0.60067   0.00000  Uiso   1.00
N451   N     0.73744   0.48547   0.34617   0.00000  Uiso   1.00
N452   N     0.76255   0.51453   0.65383   0.00000  Uiso   1.00
O453   O     0.75325   0.42871   0.53992   0.00000  Uiso   1.00
O454   O     0.74674   0.57129   0.46008   0.00000  Uiso   1.00
O455   O     0.74480   0.41892   0.43612   0.00000  Uiso   1.00
O456   O     0.75520   0.58108   0.56388   0.00000  Uiso   1.00
O457   O     0.68935   0.50488   0.55191   0.00000  Uiso   1.00
O458   O     0.81064   0.49512   0.44809   0.00000  Uiso   1.00
O459   O     0.68090   0.49510   0.44810   0.00000  Uiso   1.00
O460   O     0.81910   0.50490   0.55190   0.00000  Uiso   1.00
C461   C     0.24814   0.73324   0.48445   0.00000  Uiso   1.00
C462   C     0.09241   0.78798   0.49108   0.00000  Uiso   1.00
C463   C     0.38340   0.83057   0.49605   0.00000  Uiso   1.00
C464   C     0.11660   0.83609   0.50395   0.00000  Uiso   1.00
C465   C     0.40499   0.78225   0.48513   0.00000  Uiso   1.00
C466   C     0.09501   0.88441   0.51487   0.00000  Uiso   1.00
C467   C     0.45183   0.78267   0.47995   0.00000  Uiso   1.00
C468   C     0.04817   0.88399   0.52005   0.00000  Uiso   1.00
C469   C     0.47644   0.83224   0.49817   0.00000  Uiso   1.00
C470   C     0.02356   0.83443   0.50183   0.00000  Uiso   1.00
C471   C     0.45397   0.87984   0.51303   0.00000  Uiso   1.00
C472   C     0.25186   0.93342   0.51555   0.00000  Uiso   1.00
C473   C     0.04603   0.78683   0.48697   0.00000  Uiso   1.00
C474   C     0.47555   0.73629   0.45863   0.00000  Uiso   1.00
C475   C     0.02445   0.93037   0.54137   0.00000  Uiso   1.00
C476   C     0.02210   0.73868   0.46516   0.00000  Uiso   1.00
C477   C     0.47790   0.92799   0.53484   0.00000  Uiso   1.00
C478   C     0.24726   0.67723   0.47569   0.00000  Uiso   1.00
C479   C     0.25274   0.98943   0.52431   0.00000  Uiso   1.00
C480   C     0.16462   0.83455   0.50123   0.00000  Uiso   1.00
C481   C     0.33538   0.83212   0.49877   0.00000  Uiso   1.00
C482   C     0.40759   0.87869   0.50892   0.00000  Uiso   1.00
Cu483  Cu    0.25500   0.83913   0.56146   0.00000  Uiso   1.00
Cu484  Cu    0.24499   0.82754   0.43854   0.00000  Uiso   1.00
H485   H     0.39010   0.91533   0.51926   0.00000  Uiso   1.00
H486   H     0.10990   0.75134   0.48074   0.00000  Uiso   1.00
H487   H     0.03988   0.70288   0.44965   0.00000  Uiso   1.00
H488   H     0.46012   0.96378   0.55035   0.00000  Uiso   1.00
H489   H     0.24237   0.98664   0.42886   0.00000  Uiso   1.00
H490   H     0.25763   0.68003   0.57114   0.00000  Uiso   1.00
H491   H     0.21520   0.79282   0.64953   0.00000  Uiso   1.00
H492   H     0.28480   0.87385   0.35047   0.00000  Uiso   1.00
I493   I     0.36800   0.71466   0.49928   0.00000  Uiso   1.00
I494   I     0.13200   0.95201   0.50072   0.00000  Uiso   1.00
I495   I     0.44846   0.99775   0.39933   0.00000  Uiso   1.00
I496   I     0.05154   0.66892   0.60067   0.00000  Uiso   1.00
N497   N     0.23744   0.81881   0.34617   0.00000  Uiso   1.00
N498   N     0.26255   0.84786   0.65383   0.00000  Uiso   1.00
O499   O     0.25325   0.76204   0.53992   0.00000  Uiso   1.00
O500   O     0.24674   0.90462   0.46008   0.00000  Uiso   1.00
O501   O     0.24480   0.75226   0.43612   0.00000  Uiso   1.00
O502   O     0.25520   0.91441   0.56388   0.00000  Uiso   1.00
O503   O     0.18935   0.83821   0.55191   0.00000  Uiso   1.00
O504   O     0.31064   0.82845   0.44809   0.00000  Uiso   1.00
O505   O     0.18090   0.82843   0.44810   0.00000  Uiso   1.00
O506   O     0.31910   0.83824   0.55190   0.00000  Uiso   1.00
C507   C     0.74814   0.73324   0.48445   0.00000  Uiso   1.00
C508   C     0.59241   0.78798   0.49108   0.00000  Uiso   1.00
C509   C     0.88340   0.83057   0.49605   0.00000  Uiso   1.00
C510   C     0.61660   0.83609   0.50395   0.00000  Uiso   1.00
C511   C     0.90499   0.78225   0.48513   0.00000  Uiso   1.00
C512   C     0.59501   0.88441   0.51487   0.00000  Uiso   1.00
C513   C     0.95183   0.78267   0.47995   0.00000  Uiso   1.00
C514   C     0.54817   0.88399   0.52005   0.00000  Uiso   1.00
C515   C     0.97644   0.83224   0.49817   0.00000  Uiso   1.00
C516   C     0.52356   0.83443   0.50183   0.00000  Uiso   1.00
C517   C     0.95397   0.87984   0.51303   0.00000  Uiso   1.00
C518   C     0.75186   0.93342   0.51555   0.00000  Uiso   1.00
C519   C     0.54603   0.78683   0.48697   0.00000  Uiso   1.00
C520   C     0.97555   0.73629   0.45863   0.00000  Uiso   1.00
C521   C     0.52445   0.93037   0.54137   0.00000  Uiso   1.00
C522   C     0.52210   0.73868   0.46516   0.00000  Uiso   1.00
C523   C     0.97790   0.92799   0.53484   0.00000  Uiso   1.00
C524   C     0.74726   0.67723   0.47569   0.00000  Uiso   1.00
C525   C     0.75274   0.98943   0.52431   0.00000  Uiso   1.00
C526   C     0.66462   0.83455   0.50123   0.00000  Uiso   1.00
C527   C     0.83538   0.83212   0.49877   0.00000  Uiso   1.00
C528   C     0.90759   0.87869   0.50892   0.00000  Uiso   1.00
Cu529  Cu    0.75500   0.83913   0.56146   0.00000  Uiso   1.00
Cu530  Cu    0.74499   0.82754   0.43854   0.00000  Uiso   1.00
H531   H     0.89010   0.91533   0.51926   0.00000  Uiso   1.00
H532   H     0.60990   0.75134   0.48074   0.00000  Uiso   1.00
H533   H     0.53988   0.70288   0.44965   0.00000  Uiso   1.00
H534   H     0.96012   0.96378   0.55035   0.00000  Uiso   1.00
H535   H     0.74237   0.98664   0.42886   0.00000  Uiso   1.00
H536   H     0.75763   0.68003   0.57114   0.00000  Uiso   1.00
H537   H     0.71520   0.79282   0.64953   0.00000  Uiso   1.00
H538   H     0.78480   0.87385   0.35047   0.00000  Uiso   1.00
I539   I     0.86800   0.71466   0.49928   0.00000  Uiso   1.00
I540   I     0.63200   0.95201   0.50072   0.00000  Uiso   1.00
I541   I     0.94846   0.99775   0.39933   0.00000  Uiso   1.00
I542   I     0.55154   0.66892   0.60067   0.00000  Uiso   1.00
N543   N     0.73744   0.81881   0.34617   0.00000  Uiso   1.00
N544   N     0.76255   0.84786   0.65383   0.00000  Uiso   1.00
O545   O     0.75325   0.76204   0.53992   0.00000  Uiso   1.00
O546   O     0.74674   0.90462   0.46008   0.00000  Uiso   1.00
O547   O     0.74480   0.75226   0.43612   0.00000  Uiso   1.00
O548   O     0.75520   0.91441   0.56388   0.00000  Uiso   1.00
O549   O     0.68935   0.83821   0.55191   0.00000  Uiso   1.00
O550   O     0.81064   0.82845   0.44809   0.00000  Uiso   1.00
O551   O     0.68090   0.82843   0.44810   0.00000  Uiso   1.00
O552   O     0.81910   0.83824   0.55190   0.00000  Uiso   1.00
C553   C     0.24814   0.06658   0.81778   0.00000  Uiso   1.00
C554   C     0.09241   0.12131   0.82441   0.00000  Uiso   1.00
C555   C     0.38340   0.16391   0.82938   0.00000  Uiso   1.00
C556   C     0.11660   0.16943   0.83728   0.00000  Uiso   1.00
C557   C     0.40499   0.11559   0.81847   0.00000  Uiso   1.00
C558   C     0.09501   0.21774   0.84820   0.00000  Uiso   1.00
C559   C     0.45183   0.11601   0.81328   0.00000  Uiso   1.00
C560   C     0.04817   0.21733   0.85339   0.00000  Uiso   1.00
C561   C     0.47644   0.16557   0.83150   0.00000  Uiso   1.00
C562   C     0.02356   0.16776   0.83516   0.00000  Uiso   1.00
C563   C     0.45397   0.21317   0.84637   0.00000  Uiso   1.00
C564   C     0.25186   0.26676   0.84889   0.00000  Uiso   1.00
C565   C     0.04603   0.12016   0.82030   0.00000  Uiso   1.00
C566   C     0.47555   0.06963   0.79196   0.00000  Uiso   1.00
C567   C     0.02445   0.26371   0.87471   0.00000  Uiso   1.00
C568   C     0.02210   0.07201   0.79849   0.00000  Uiso   1.00
C569   C     0.47790   0.26132   0.86818   0.00000  Uiso   1.00
C570   C     0.24726   0.01057   0.80902   0.00000  Uiso   1.00
C571   C     0.25274   0.32277   0.85764   0.00000  Uiso   1.00
C572   C     0.16462   0.16788   0.83457   0.00000  Uiso   1.00
C573   C     0.33538   0.16545   0.83210   0.00000  Uiso   1.00
C574   C     0.40759   0.21202   0.84226   0.00000  Uiso   1.00
Cu575  Cu    0.25500   0.17246   0.89479   0.00000  Uiso   1.00
Cu576  Cu    0.24499   0.16087   0.77187   0.00000  Uiso   1.00
H577   H     0.39010   0.24866   0.85260   0.00000  Uiso   1.00
H578   H     0.10990   0.08467   0.81407   0.00000  Uiso   1.00
H579   H     0.03988   0.03622   0.78299   0.00000  Uiso   1.00
H580   H     0.46012   0.29712   0.88368   0.00000  Uiso   1.00
H581   H     0.24237   0.31997   0.76219   0.00000  Uiso   1.00
H582   H     0.25763   0.01336   0.90448   0.00000  Uiso   1.00
H583   H     0.21520   0.12615   0.98287   0.00000  Uiso   1.00
H584   H     0.28480   0.20718   0.68380   0.00000  Uiso   1.00
I585   I     0.36800   0.04799   0.83261   0.00000  Uiso   1.00
I586   I     0.13200   0.28534   0.83406   0.00000  Uiso   1.00
I587   I     0.44846   0.33108   0.73266   0.00000  Uiso   1.00
I588   I     0.05154   0.00225   0.93401   0.00000  Uiso   1.00
N589   N     0.23744   0.15214   0.67951   0.00000  Uiso   1.00
N590   N     0.26255   0.18119   0.98716   0.00000  Uiso   1.00
O591   O     0.25325   0.09538   0.87326   0.00000  Uiso   1.00
O592   O     0.24674   0.23796   0.79341   0.00000  Uiso   1.00
O593   O     0.24480   0.08559   0.76945   0.00000  Uiso   1.00
O594   O     0.25520   0.24774   0.89721   0.00000  Uiso   1.00
O595   O     0.18935   0.17155   0.88524   0.00000  Uiso   1.00
O596   O     0.31064   0.16179   0.78143   0.00000  Uiso   1.00
O597   O     0.18090   0.16176   0.78143   0.00000  Uiso   1.00
O598   O     0.31910   0.17157   0.88523   0.00000  Uiso   1.00
C599   C     0.74814   0.06658   0.81778   0.00000  Uiso   1.00
C600   C     0.59241   0.12131   0.82441   0.00000  Uiso   1.00
C601   C     0.88340   0.16391   0.82938   0.00000  Uiso   1.00
C602   C     0.61660   0.16943   0.83728   0.00000  Uiso   1.00
C603   C     0.90499   0.11559   0.81847   0.00000  Uiso   1.00
C604   C     0.59501   0.21774   0.84820   0.00000  Uiso   1.00
C605   C     0.95183   0.11601   0.81328   0.00000  Uiso   1.00
C606   C     0.54817   0.21733   0.85339   0.00000  Uiso   1.00
C607   C     0.97644   0.16557   0.83150   0.00000  Uiso   1.00
C608   C     0.52356   0.16776   0.83516   0.00000  Uiso   1.00
C609   C     0.95397   0.21317   0.84637   0.00000  Uiso   1.00
C610   C     0.75186   0.26676   0.84889   0.00000  Uiso   1.00
C611   C     0.54603   0.12016   0.82030   0.00000  Uiso   1.00
C612   C     0.97555   0.06963   0.79196   0.00000  Uiso   1.00
C613   C     0.52445   0.26371   0.87471   0.00000  Uiso   1.00
C614   C     0.52210   0.07201   0.79849   0.00000  Uiso   1.00
C615   C     0.97790   0.26132   0.86818   0.00000  Uiso   1.00
C616   C     0.74726   0.01057   0.80902   0.00000  Uiso   1.00
C617   C     0.75274   0.32277   0.85764   0.00000  Uiso   1.00
C618   C     0.66462   0.16788   0.83457   0.00000  Uiso   1.00
C619   C     0.83538   0.16545   0.83210   0.00000  Uiso   1.00
C620   C     0.90759   0.21202   0.84226   0.00000  Uiso   1.00
Cu621  Cu    0.75500   0.17246   0.89479   0.00000  Uiso   1.00
Cu622  Cu    0.74499   0.16087   0.77187   0.00000  Uiso   1.00
H623   H     0.89010   0.24866   0.85260   0.00000  Uiso   1.00
H624   H     0.60990   0.08467   0.81407   0.00000  Uiso   1.00
H625   H     0.53988   0.03622   0.78299   0.00000  Uiso   1.00
H626   H     0.96012   0.29712   0.88368   0.00000  Uiso   1.00
H627   H     0.74237   0.31997   0.76219   0.00000  Uiso   1.00
H628   H     0.75763   0.01336   0.90448   0.00000  Uiso   1.00
H629   H     0.71520   0.12615   0.98287   0.00000  Uiso   1.00
H630   H     0.78480   0.20718   0.68380   0.00000  Uiso   1.00
I631   I     0.86800   0.04799   0.83261   0.00000  Uiso   1.00
I632   I     0.63200   0.28534   0.83406   0.00000  Uiso   1.00
I633   I     0.94846   0.33108   0.73266   0.00000  Uiso   1.00
I634   I     0.55154   0.00225   0.93401   0.00000  Uiso   1.00
N635   N     0.73744   0.15214   0.67951   0.00000  Uiso   1.00
N636   N     0.76255   0.18119   0.98716   0.00000  Uiso   1.00
O637   O     0.75325   0.09538   0.87326   0.00000  Uiso   1.00
O638   O     0.74674   0.23796   0.79341   0.00000  Uiso   1.00
O639   O     0.74480   0.08559   0.76945   0.00000  Uiso   1.00
O640   O     0.75520   0.24774   0.89721   0.00000  Uiso   1.00
O641   O     0.68935   0.17155   0.88524   0.00000  Uiso   1.00
O642   O     0.81064   0.16179   0.78143   0.00000  Uiso   1.00
O643   O     0.68090   0.16176   0.78143   0.00000  Uiso   1.00
O644   O     0.81910   0.17157   0.88523   0.00000  Uiso   1.00
C645   C     0.24814   0.39991   0.81778   0.00000  Uiso   1.00
C646   C     0.09241   0.45465   0.82441   0.00000  Uiso   1.00
C647   C     0.38340   0.49724   0.82938   0.00000  Uiso   1.00
C648   C     0.11660   0.50276   0.83728   0.00000  Uiso   1.00
C649   C     0.40499   0.44892   0.81847   0.00000  Uiso   1.00
C650   C     0.09501   0.55108   0.84820   0.00000  Uiso   1.00
C651   C     0.45183   0.44934   0.81328   0.00000  Uiso   1.00
C652   C     0.04817   0.55066   0.85339   0.00000  Uiso   1.00
C653   C     0.47644   0.49891   0.83150   0.00000  Uiso   1.00
C654   C     0.02356   0.50109   0.83516   0.00000  Uiso   1.00
C655   C     0.45397   0.54650   0.84637   0.00000  Uiso   1.00
C656   C     0.25186   0.60009   0.84889   0.00000  Uiso   1.00
C657   C     0.04603   0.45350   0.82030   0.00000  Uiso   1.00
C658   C     0.47555   0.40296   0.79196   0.00000  Uiso   1.00
C659   C     0.02445   0.59704   0.87471   0.00000  Uiso   1.00
C660   C     0.02210   0.40535   0.79849   0.00000  Uiso   1.00
C661   C     0.47790   0.59465   0.86818   0.00000  Uiso   1.00
C662   C     0.24726   0.34390   0.80902   0.00000  Uiso   1.00
C663   C     0.25274   0.65610   0.85764   0.00000  Uiso   1.00
C664   C     0.16462   0.50121   0.83457   0.00000  Uiso   1.00
C665   C     0.33538   0.49879   0.83210   0.00000  Uiso   1.00
C666   C     0.40759   0.54535   0.84226   0.00000  Uiso   1.00
Cu667  Cu    0.25500   0.50579   0.89479   0.00000  Uiso   1.00
Cu668  Cu    0.24499   0.49421   0.77187   0.00000  Uiso   1.00
H669   H     0.39010   0.58199   0.85260   0.00000  Uiso   1.00
H670   H     0.10990   0.41801   0.81407   0.00000  Uiso   1.00
H671   H     0.03988   0.36955   0.78299   0.00000  Uiso   1.00
H672   H     0.46012   0.63045   0.88368   0.00000  Uiso   1.00
H673   H     0.24237   0.65331   0.76219   0.00000  Uiso   1.00
H674   H     0.25763   0.34669   0.90448   0.00000  Uiso   1.00
H675   H     0.21520   0.45948   0.98287   0.00000  Uiso   1.00
H676   H     0.28480   0.54052   0.68380   0.00000  Uiso   1.00
I677   I     0.36800   0.38132   0.83261   0.00000  Uiso   1.00
I678   I     0.13200   0.61868   0.83406   0.00000  Uiso   1.00
I679   I     0.44846   0.66442   0.73266   0.00000  Uiso   1.00
I680   I     0.05154   0.33558   0.93401   0.00000  Uiso   1.00
N681   N     0.23744   0.48547   0.67951   0.00000  Uiso   1.00
N682   N     0.26255   0.51453   0.98716   0.00000  Uiso   1.00
O683   O     0.25325   0.42871   0.87326   0.00000  Uiso   1.00
O684   O     0.24674   0.57129   0.79341   0.00000  Uiso   1.00
O685   O     0.24480   0.41892   0.76945   0.00000  Uiso   1.00
O686   O     0.25520   0.58108   0.89721   0.00000  Uiso   1.00
O687   O     0.18935   0.50488   0.88524   0.00000  Uiso   1.00
O688   O     0.31064   0.49512   0.78143   0.00000  Uiso   1.00
O689   O     0.18090   0.49510   0.78143   0.00000  Uiso   1.00
O690   O     0.31910   0.50490   0.88523   0.00000  Uiso   1.00
C691   C     0.74814   0.39991   0.81778   0.00000  Uiso   1.00
C692   C     0.59241   0.45465   0.82441   0.00000  Uiso   1.00
C693   C     0.88340   0.49724   0.82938   0.00000  Uiso   1.00
C694   C     0.61660   0.50276   0.83728   0.00000  Uiso   1.00
C695   C     0.90499   0.44892   0.81847   0.00000  Uiso   1.00
C696   C     0.59501   0.55108   0.84820   0.00000  Uiso   1.00
C697   C     0.95183   0.44934   0.81328   0.00000  Uiso   1.00
C698   C     0.54817   0.55066   0.85339   0.00000  Uiso   1.00
C699   C     0.97644   0.49891   0.83150   0.00000  Uiso   1.00
C700   C     0.52356   0.50109   0.83516   0.00000  Uiso   1.00
C701   C     0.95397   0.54650   0.84637   0.00000  Uiso   1.00
C702   C     0.75186   0.60009   0.84889   0.00000  Uiso   1.00
C703   C     0.54603   0.45350   0.82030   0.00000  Uiso   1.00
C704   C     0.97555   0.40296   0.79196   0.00000  Uiso   1.00
C705   C     0.52445   0.59704   0.87471   0.00000  Uiso   1.00
C706   C     0.52210   0.40535   0.79849   0.00000  Uiso   1.00
C707   C     0.97790   0.59465   0.86818   0.00000  Uiso   1.00
C708   C     0.74726   0.34390   0.80902   0.00000  Uiso   1.00
C709   C     0.75274   0.65610   0.85764   0.00000  Uiso   1.00
C710   C     0.66462   0.50121   0.83457   0.00000  Uiso   1.00
C711   C     0.83538   0.49879   0.83210   0.00000  Uiso   1.00
C712   C     0.90759   0.54535   0.84226   0.00000  Uiso   1.00
Cu713  Cu    0.75500   0.50579   0.89479   0.00000  Uiso   1.00
Cu714  Cu    0.74499   0.49421   0.77187   0.00000  Uiso   1.00
H715   H     0.89010   0.58199   0.85260   0.00000  Uiso   1.00
H716   H     0.60990   0.41801   0.81407   0.00000  Uiso   1.00
H717   H     0.53988   0.36955   0.78299   0.00000  Uiso   1.00
H718   H     0.96012   0.63045   0.88368   0.00000  Uiso   1.00
H719   H     0.74237   0.65331   0.76219   0.00000  Uiso   1.00
H720   H     0.75763   0.34669   0.90448   0.00000  Uiso   1.00
H721   H     0.71520   0.45948   0.98287   0.00000  Uiso   1.00
H722   H     0.78480   0.54052   0.68380   0.00000  Uiso   1.00
I723   I     0.86800   0.38132   0.83261   0.00000  Uiso   1.00
I724   I     0.63200   0.61868   0.83406   0.00000  Uiso   1.00
I725   I     0.94846   0.66442   0.73266   0.00000  Uiso   1.00
I726   I     0.55154   0.33558   0.93401   0.00000  Uiso   1.00
N727   N     0.73744   0.48547   0.67951   0.00000  Uiso   1.00
N728   N     0.76255   0.51453   0.98716   0.00000  Uiso   1.00
O729   O     0.75325   0.42871   0.87326   0.00000  Uiso   1.00
O730   O     0.74674   0.57129   0.79341   0.00000  Uiso   1.00
O731   O     0.74480   0.41892   0.76945   0.00000  Uiso   1.00
O732   O     0.75520   0.58108   0.89721   0.00000  Uiso   1.00
O733   O     0.68935   0.50488   0.88524   0.00000  Uiso   1.00
O734   O     0.81064   0.49512   0.78143   0.00000  Uiso   1.00
O735   O     0.68090   0.49510   0.78143   0.00000  Uiso   1.00
O736   O     0.81910   0.50490   0.88523   0.00000  Uiso   1.00
C737   C     0.24814   0.73324   0.81778   0.00000  Uiso   1.00
C738   C     0.09241   0.78798   0.82441   0.00000  Uiso   1.00
C739   C     0.38340   0.83057   0.82938   0.00000  Uiso   1.00
C740   C     0.11660   0.83609   0.83728   0.00000  Uiso   1.00
C741   C     0.40499   0.78225   0.81847   0.00000  Uiso   1.00
C742   C     0.09501   0.88441   0.84820   0.00000  Uiso   1.00
C743   C     0.45183   0.78267   0.81328   0.00000  Uiso   1.00
C744   C     0.04817   0.88399   0.85339   0.00000  Uiso   1.00
C745   C     0.47644   0.83224   0.83150   0.00000  Uiso   1.00
C746   C     0.02356   0.83443   0.83516   0.00000  Uiso   1.00
C747   C     0.45397   0.87984   0.84637   0.00000  Uiso   1.00
C748   C     0.25186   0.93342   0.84889   0.00000  Uiso   1.00
C749   C     0.04603   0.78683   0.82030   0.00000  Uiso   1.00
C750   C     0.47555   0.73629   0.79196   0.00000  Uiso   1.00
C751   C     0.02445   0.93037   0.87471   0.00000  Uiso   1.00
C752   C     0.02210   0.73868   0.79849   0.00000  Uiso   1.00
C753   C     0.47790   0.92799   0.86818   0.00000  Uiso   1.00
C754   C     0.24726   0.67723   0.80902   0.00000  Uiso   1.00
C755   C     0.25274   0.98943   0.85764   0.00000  Uiso   1.00
C756   C     0.16462   0.83455   0.83457   0.00000  Uiso   1.00
C757   C     0.33538   0.83212   0.83210   0.00000  Uiso   1.00
C758   C     0.40759   0.87869   0.84226   0.00000  Uiso   1.00
Cu759  Cu    0.25500   0.83913   0.89479   0.00000  Uiso   1.00
Cu760  Cu    0.24499   0.82754   0.77187   0.00000  Uiso   1.00
H761   H     0.39010   0.91533   0.85260   0.00000  Uiso   1.00
H762   H     0.10990   0.75134   0.81407   0.00000  Uiso   1.00
H763   H     0.03988   0.70288   0.78299   0.00000  Uiso   1.00
H764   H     0.46012   0.96378   0.88368   0.00000  Uiso   1.00
H765   H     0.24237   0.98664   0.76219   0.00000  Uiso   1.00
H766   H     0.25763   0.68003   0.90448   0.00000  Uiso   1.00
H767   H     0.21520   0.79282   0.98287   0.00000  Uiso   1.00
H768   H     0.28480   0.87385   0.68380   0.00000  Uiso   1.00
I769   I     0.36800   0.71466   0.83261   0.00000  Uiso   1.00
I770   I     0.13200   0.95201   0.83406   0.00000  Uiso   1.00
I771   I     0.44846   0.99775   0.73266   0.00000  Uiso   1.00
I772   I     0.05154   0.66892   0.93401   0.00000  Uiso   1.00
N773   N     0.23744   0.81881   0.67951   0.00000  Uiso   1.00
N774   N     0.26255   0.84786   0.98716   0.00000  Uiso   1.00
O775   O     0.25325   0.76204   0.87326   0.00000  Uiso   1.00
O776   O     0.24674   0.90462   0.79341   0.00000  Uiso   1.00
O777   O     0.24480   0.75226   0.76945   0.00000  Uiso   1.00
O778   O     0.25520   0.91441   0.89721   0.00000  Uiso   1.00
O779   O     0.18935   0.83821   0.88524   0.00000  Uiso   1.00
O780   O     0.31064   0.82845   0.78143   0.00000  Uiso   1.00
O781   O     0.18090   0.82843   0.78143   0.00000  Uiso   1.00
O782   O     0.31910   0.83824   0.88523   0.00000  Uiso   1.00
C783   C     0.74814   0.73324   0.81778   0.00000  Uiso   1.00
C784   C     0.59241   0.78798   0.82441   0.00000  Uiso   1.00
C785   C     0.88340   0.83057   0.82938   0.00000  Uiso   1.00
C786   C     0.61660   0.83609   0.83728   0.00000  Uiso   1.00
C787   C     0.90499   0.78225   0.81847   0.00000  Uiso   1.00
C788   C     0.59501   0.88441   0.84820   0.00000  Uiso   1.00
C789   C     0.95183   0.78267   0.81328   0.00000  Uiso   1.00
C790   C     0.54817   0.88399   0.85339   0.00000  Uiso   1.00
C791   C     0.97644   0.83224   0.83150   0.00000  Uiso   1.00
C792   C     0.52356   0.83443   0.83516   0.00000  Uiso   1.00
C793   C     0.95397   0.87984   0.84637   0.00000  Uiso   1.00
C794   C     0.75186   0.93342   0.84889   0.00000  Uiso   1.00
C795   C     0.54603   0.78683   0.82030   0.00000  Uiso   1.00
C796   C     0.97555   0.73629   0.79196   0.00000  Uiso   1.00
C797   C     0.52445   0.93037   0.87471   0.00000  Uiso   1.00
C798   C     0.52210   0.73868   0.79849   0.00000  Uiso   1.00
C799   C     0.97790   0.92799   0.86818   0.00000  Uiso   1.00
C800   C     0.74726   0.67723   0.80902   0.00000  Uiso   1.00
C801   C     0.75274   0.98943   0.85764   0.00000  Uiso   1.00
C802   C     0.66462   0.83455   0.83457   0.00000  Uiso   1.00
C803   C     0.83538   0.83212   0.83210   0.00000  Uiso   1.00
C804   C     0.90759   0.87869   0.84226   0.00000  Uiso   1.00
Cu805  Cu    0.75500   0.83913   0.89479   0.00000  Uiso   1.00
Cu806  Cu    0.74499   0.82754   0.77187   0.00000  Uiso   1.00
H807   H     0.89010   0.91533   0.85260   0.00000  Uiso   1.00
H808   H     0.60990   0.75134   0.81407   0.00000  Uiso   1.00
H809   H     0.53988   0.70288   0.78299   0.00000  Uiso   1.00
H810   H     0.96012   0.96378   0.88368   0.00000  Uiso   1.00
H811   H     0.74237   0.98664   0.76219   0.00000  Uiso   1.00
H812   H     0.75763   0.68003   0.90448   0.00000  Uiso   1.00
H813   H     0.71520   0.79282   0.98287   0.00000  Uiso   1.00
H814   H     0.78480   0.87385   0.68380   0.00000  Uiso   1.00
I815   I     0.86800   0.71466   0.83261   0.00000  Uiso   1.00
I816   I     0.63200   0.95201   0.83406   0.00000  Uiso   1.00
I817   I     0.94846   0.99775   0.73266   0.00000  Uiso   1.00
I818   I     0.55154   0.66892   0.93401   0.00000  Uiso   1.00
N819   N     0.73744   0.81881   0.67951   0.00000  Uiso   1.00
N820   N     0.76255   0.84786   0.98716   0.00000  Uiso   1.00
O821   O     0.75325   0.76204   0.87326   0.00000  Uiso   1.00
O822   O     0.74674   0.90462   0.79341   0.00000  Uiso   1.00
O823   O     0.74480   0.75226   0.76945   0.00000  Uiso   1.00
O824   O     0.75520   0.91441   0.89721   0.00000  Uiso   1.00
O825   O     0.68935   0.83821   0.88524   0.00000  Uiso   1.00
O826   O     0.81064   0.82845   0.78143   0.00000  Uiso   1.00
O827   O     0.68090   0.82843   0.78143   0.00000  Uiso   1.00
O828   O     0.81910   0.83824   0.88523   0.00000  Uiso   1.00
loop_
_geom_bond_atom_site_label_1
_geom_bond_atom_site_label_2
_geom_bond_distance
_geom_bond_site_symmetry_2
_ccdc_geom_bond_type
C1     C18     1.423   .     S
C1     O41     1.283   .     A
C1     O39     1.292   .     A
C2     C4      1.389   .     A
C2     H26     1.086   .     S
C2     C13     1.386   .     A
C3     C21     1.446   .     S
C3     C22     1.389   .     A
C3     C5      1.408   .     A
C4     C6      1.408   .     A
C4     C20     1.446   .     S
C5     C7      1.416   .     A
C5     I33     2.144   .     S
C6     I34     2.144   .     S
C6     C8      1.416   .     A
C7     C9      1.427   .     A
C7     C14     1.421   .     A
C8     C10     1.427   .     A
C8     C15     1.421   .     A
C9     C11     1.409   .     A
C9     C56     1.408   .     S
C10    C13     1.409   .     A
C10    C55     1.408   1_455 S
C11    C22     1.386   .     A
C11    C17     1.394   .     A
C12    O40     1.292   .     A
C12    O42     1.283   .     A
C12    C19     1.423   .     S
C13    C16     1.394   .     A
C14    C62     1.391   .     S
C14    I219    2.134   1_545 S
C15    C63     1.391   1_455 S
C15    I128    2.134   .     S
C16    H27     1.085   .     S
C16    C60     1.391   1_455 S
C17    H28     1.085   .     S
C17    C61     1.391   .     S
C18    C203    1.326   1_545 S
C18    H213    1.088   1_545 S
C19    C110    1.326   .     S
C19    H122    1.088   .     S
C20    O45     1.292   .     A
C20    O43     1.294   .     A
C21    O44     1.294   .     A
C21    O46     1.292   .     A
C22    H25     1.086   .     S
Cu23   Cu24    2.689   .     S
Cu23   O46     1.947   .     S
Cu23   O42     1.944   .     S
Cu23   O39     1.949   .     S
Cu23   N38     2.020   .     S
Cu23   O43     1.964   .     S
Cu24   N37     2.020   .     S
Cu24   O41     1.944   .     S
Cu24   O45     1.947   .     S
Cu24   O40     1.949   .     S
Cu24   O44     1.964   .     S
H29    C110    1.088   .     S
H30    C203    1.088   1_545 S
H31    N313    1.029   .     S
H32    N590    1.029   1_554 S
I35    C106    2.134   .     S
I36    C199    2.134   1_545 S
N37    H583    1.029   1_554 S
N37    N590    1.298   1_554 S
N38    H308    1.029   .     S
N38    N313    1.298   .     S
C47    C64     1.423   .     S
C47    O87     1.283   .     A
C47    O85     1.292   .     A
C48    C50     1.389   .     A
C48    H72     1.086   .     S
C48    C59     1.386   .     A
C49    C67     1.446   .     S
C49    C68     1.389   .     A
C49    C51     1.408   .     A
C50    C52     1.408   .     A
C50    C66     1.446   .     S
C51    C53     1.416   .     A
C51    I79     2.144   .     S
C52    I80     2.144   .     S
C52    C54     1.416   .     A
C53    C55     1.427   .     A
C53    C60     1.421   .     A
C54    C56     1.427   .     A
C54    C61     1.421   .     A
C55    C57     1.409   .     A
C55    C10     1.408   1_655 S
C56    C59     1.409   .     A
C57    C68     1.386   .     A
C57    C63     1.394   .     A
C58    O86     1.292   .     A
C58    O88     1.283   .     A
C58    C65     1.423   .     S
C59    C62     1.394   .     A
C60    C16     1.391   1_655 S
C60    I265    2.134   1_545 S
C61    I174    2.134   .     S
C62    H73     1.085   .     S
C63    H74     1.085   .     S
C63    C15     1.391   1_655 S
C64    C249    1.326   1_545 S
C64    H259    1.088   1_545 S
C65    C156    1.326   .     S
C65    H168    1.088   .     S
C66    O91     1.292   .     A
C66    O89     1.294   .     A
C67    O90     1.294   .     A
C67    O92     1.292   .     A
C68    H71     1.086   .     S
Cu69   Cu70    2.689   .     S
Cu69   O92     1.947   .     S
Cu69   O88     1.944   .     S
Cu69   O85     1.949   .     S
Cu69   N84     2.020   .     S
Cu69   O89     1.964   .     S
Cu70   N83     2.020   .     S
Cu70   O87     1.944   .     S
Cu70   O91     1.947   .     S
Cu70   O86     1.949   .     S
Cu70   O90     1.964   .     S
H75    C156    1.088   .     S
H76    C249    1.088   1_545 S
H77    N359    1.029   .     S
H78    N636    1.029   1_554 S
I81    C152    2.134   .     S
I82    C245    2.134   1_545 S
N83    H629    1.029   1_554 S
N83    N636    1.298   1_554 S
N84    H354    1.029   .     S
N84    N359    1.298   .     S
C93    C110    1.423   .     S
C93    O133    1.283   .     A
C93    O131    1.292   .     A
C94    C96     1.389   .     A
C94    H118    1.086   .     S
C94    C105    1.386   .     A
C95    C113    1.446   .     S
C95    C114    1.389   .     A
C95    C97     1.408   .     A
C96    C98     1.408   .     A
C96    C112    1.446   .     S
C97    C99     1.416   .     A
C97    I125    2.144   .     S
C98    I126    2.144   .     S
C98    C100    1.416   .     A
C99    C101    1.427   .     A
C99    C106    1.421   .     A
C100   C102    1.427   .     A
C100   C107    1.421   .     A
C101   C103    1.409   .     A
C101   C148    1.408   .     S
C102   C105    1.409   .     A
C102   C147    1.408   1_455 S
C103   C114    1.386   .     A
C103   C109    1.394   .     A
C104   O132    1.292   .     A
C104   O134    1.283   .     A
C104   C111    1.423   .     S
C105   C108    1.394   .     A
C106   C154    1.391   .     S
C107   C155    1.391   1_455 S
C107   I220    2.134   .     S
C108   H119    1.085   .     S
C108   C152    1.391   1_455 S
C109   H120    1.085   .     S
C109   C153    1.391   .     S
C111   C202    1.326   .     S
C111   H214    1.088   .     S
C112   O137    1.292   .     A
C112   O135    1.294   .     A
C113   O136    1.294   .     A
C113   O138    1.292   .     A
C114   H117    1.086   .     S
Cu115  Cu116   2.689   .     S
Cu115  O138    1.947   .     S
Cu115  O134    1.944   .     S
Cu115  O131    1.949   .     S
Cu115  N130    2.020   .     S
Cu115  O135    1.964   .     S
Cu116  N129    2.020   .     S
Cu116  O133    1.944   .     S
Cu116  O137    1.947   .     S
Cu116  O132    1.949   .     S
Cu116  O136    1.964   .     S
H121   C202    1.088   .     S
H123   N405    1.029   .     S
H124   N682    1.029   1_554 S
I127   C198    2.134   .     S
N129   H675    1.029   1_554 S
N129   N682    1.298   1_554 S
N130   H400    1.029   .     S
N130   N405    1.298   .     S
C139   C156    1.423   .     S
C139   O179    1.283   .     A
C139   O177    1.292   .     A
C140   C142    1.389   .     A
C140   H164    1.086   .     S
C140   C151    1.386   .     A
C141   C159    1.446   .     S
C141   C160    1.389   .     A
C141   C143    1.408   .     A
C142   C144    1.408   .     A
C142   C158    1.446   .     S
C143   C145    1.416   .     A
C143   I171    2.144   .     S
C144   I172    2.144   .     S
C144   C146    1.416   .     A
C145   C147    1.427   .     A
C145   C152    1.421   .     A
C146   C148    1.427   .     A
C146   C153    1.421   .     A
C147   C149    1.409   .     A
C147   C102    1.408   1_655 S
C148   C151    1.409   .     A
C149   C160    1.386   .     A
C149   C155    1.394   .     A
C150   O178    1.292   .     A
C150   O180    1.283   .     A
C150   C157    1.423   .     S
C151   C154    1.394   .     A
C152   C108    1.391   1_655 S
C153   I266    2.134   .     S
C154   H165    1.085   .     S
C155   H166    1.085   .     S
C155   C107    1.391   1_655 S
C157   C248    1.326   .     S
C157   H260    1.088   .     S
C158   O183    1.292   .     A
C158   O181    1.294   .     A
C159   O182    1.294   .     A
C159   O184    1.292   .     A
C160   H163    1.086   .     S
Cu161  Cu162   2.689   .     S
Cu161  O184    1.947   .     S
Cu161  O180    1.944   .     S
Cu161  O177    1.949   .     S
Cu161  N176    2.020   .     S
Cu161  O181    1.964   .     S
Cu162  N175    2.020   .     S
Cu162  O179    1.944   .     S
Cu162  O183    1.947   .     S
Cu162  O178    1.949   .     S
Cu162  O182    1.964   .     S
H167   C248    1.088   .     S
H169   N451    1.029   .     S
H170   N728    1.029   1_554 S
I173   C244    2.134   .     S
N175   H721    1.029   1_554 S
N175   N728    1.298   1_554 S
N176   H446    1.029   .     S
N176   N451    1.298   .     S
C185   C202    1.423   .     S
C185   O225    1.283   .     A
C185   O223    1.292   .     A
C186   C188    1.389   .     A
C186   H210    1.086   .     S
C186   C197    1.386   .     A
C187   C205    1.446   .     S
C187   C206    1.389   .     A
C187   C189    1.408   .     A
C188   C190    1.408   .     A
C188   C204    1.446   .     S
C189   C191    1.416   .     A
C189   I217    2.144   .     S
C190   I218    2.144   .     S
C190   C192    1.416   .     A
C191   C193    1.427   .     A
C191   C198    1.421   .     A
C192   C194    1.427   .     A
C192   C199    1.421   .     A
C193   C195    1.409   .     A
C193   C240    1.408   .     S
C194   C197    1.409   .     A
C194   C239    1.408   1_455 S
C195   C206    1.386   .     A
C195   C201    1.394   .     A
C196   O224    1.292   .     A
C196   O226    1.283   .     A
C196   C203    1.423   .     S
C197   C200    1.394   .     A
C198   C246    1.391   .     S
C199   C247    1.391   1_455 S
C199   I36     2.134   1_565 S
C200   H211    1.085   .     S
C200   C244    1.391   1_455 S
C201   H212    1.085   .     S
C201   C245    1.391   .     S
C203   C18     1.326   1_565 S
C203   H30     1.088   1_565 S
C204   O229    1.292   .     A
C204   O227    1.294   .     A
C205   O228    1.294   .     A
C205   O230    1.292   .     A
C206   H209    1.086   .     S
Cu207  Cu208   2.689   .     S
Cu207  O230    1.947   .     S
Cu207  O226    1.944   .     S
Cu207  O223    1.949   .     S
Cu207  N222    2.020   .     S
Cu207  O227    1.964   .     S
Cu208  N221    2.020   .     S
Cu208  O225    1.944   .     S
Cu208  O229    1.947   .     S
Cu208  O224    1.949   .     S
Cu208  O228    1.964   .     S
H213   C18     1.088   1_565 S
H215   N497    1.029   .     S
H216   N774    1.029   1_554 S
I219   C14     2.134   1_565 S
N221   H767    1.029   1_554 S
N221   N774    1.298   1_554 S
N222   H492    1.029   .     S
N222   N497    1.298   .     S
C231   C248    1.423   .     S
C231   O271    1.283   .     A
C231   O269    1.292   .     A
C232   C234    1.389   .     A
C232   H256    1.086   .     S
C232   C243    1.386   .     A
C233   C251    1.446   .     S
C233   C252    1.389   .     A
C233   C235    1.408   .     A
C234   C236    1.408   .     A
C234   C250    1.446   .     S
C235   C237    1.416   .     A
C235   I263    2.144   .     S
C236   I264    2.144   .     S
C236   C238    1.416   .     A
C237   C239    1.427   .     A
C237   C244    1.421   .     A
C238   C240    1.427   .     A
C238   C245    1.421   .     A
C239   C241    1.409   .     A
C239   C194    1.408   1_655 S
C240   C243    1.409   .     A
C241   C252    1.386   .     A
C241   C247    1.394   .     A
C242   O270    1.292   .     A
C242   O272    1.283   .     A
C242   C249    1.423   .     S
C243   C246    1.394   .     A
C244   C200    1.391   1_655 S
C245   I82     2.134   1_565 S
C246   H257    1.085   .     S
C247   H258    1.085   .     S
C247   C199    1.391   1_655 S
C249   C64     1.326   1_565 S
C249   H76     1.088   1_565 S
C250   O275    1.292   .     A
C250   O273    1.294   .     A
C251   O274    1.294   .     A
C251   O276    1.292   .     A
C252   H255    1.086   .     S
Cu253  Cu254   2.689   .     S
Cu253  O276    1.947   .     S
Cu253  O272    1.944   .     S
Cu253  O269    1.949   .     S
Cu253  N268    2.020   .     S
Cu253  O273    1.964   .     S
Cu254  N267    2.020   .     S
Cu254  O271    1.944   .     S
Cu254  O275    1.947   .     S
Cu254  O270    1.949   .     S
Cu254  O274    1.964   .     S
H259   C64     1.088   1_565 S
H261   N543    1.029   .     S
H262   N820    1.029   1_554 S
I265   C60     2.134   1_565 S
N267   H813    1.029   1_554 S
N267   N820    1.298   1_554 S
N268   H538    1.029   .     S
N268   N543    1.298   .     S
C277   C294    1.423   .     S
C277   O317    1.283   .     A
C277   O315    1.292   .     A
C278   C280    1.389   .     A
C278   H302    1.086   .     S
C278   C289    1.386   .     A
C279   C297    1.446   .     S
C279   C298    1.389   .     A
C279   C281    1.408   .     A
C280   C282    1.408   .     A
C280   C296    1.446   .     S
C281   C283    1.416   .     A
C281   I309    2.144   .     S
C282   I310    2.144   .     S
C282   C284    1.416   .     A
C283   C285    1.427   .     A
C283   C290    1.421   .     A
C284   C286    1.427   .     A
C284   C291    1.421   .     A
C285   C287    1.409   .     A
C285   C332    1.408   .     S
C286   C289    1.409   .     A
C286   C331    1.408   1_455 S
C287   C298    1.386   .     A
C287   C293    1.394   .     A
C288   O316    1.292   .     A
C288   O318    1.283   .     A
C288   C295    1.423   .     S
C289   C292    1.394   .     A
C290   C338    1.391   .     S
C290   I495    2.134   1_545 S
C291   C339    1.391   1_455 S
C291   I404    2.134   .     S
C292   H303    1.085   .     S
C292   C336    1.391   1_455 S
C293   H304    1.085   .     S
C293   C337    1.391   .     S
C294   C479    1.326   1_545 S
C294   H489    1.088   1_545 S
C295   C386    1.326   .     S
C295   H398    1.088   .     S
C296   O321    1.292   .     A
C296   O319    1.294   .     A
C297   O320    1.294   .     A
C297   O322    1.292   .     A
C298   H301    1.086   .     S
Cu299  Cu300   2.689   .     S
Cu299  O322    1.947   .     S
Cu299  O318    1.944   .     S
Cu299  O315    1.949   .     S
Cu299  N314    2.020   .     S
Cu299  O319    1.964   .     S
Cu300  N313    2.020   .     S
Cu300  O317    1.944   .     S
Cu300  O321    1.947   .     S
Cu300  O316    1.949   .     S
Cu300  O320    1.964   .     S
H305   C386    1.088   .     S
H306   C479    1.088   1_545 S
H307   N589    1.029   .     S
I311   C382    2.134   .     S
I312   C475    2.134   1_545 S
N314   H584    1.029   .     S
N314   N589    1.298   .     S
C323   C340    1.423   .     S
C323   O363    1.283   .     A
C323   O361    1.292   .     A
C324   C326    1.389   .     A
C324   H348    1.086   .     S
C324   C335    1.386   .     A
C325   C343    1.446   .     S
C325   C344    1.389   .     A
C325   C327    1.408   .     A
C326   C328    1.408   .     A
C326   C342    1.446   .     S
C327   C329    1.416   .     A
C327   I355    2.144   .     S
C328   I356    2.144   .     S
C328   C330    1.416   .     A
C329   C331    1.427   .     A
C329   C336    1.421   .     A
C330   C332    1.427   .     A
C330   C337    1.421   .     A
C331   C333    1.409   .     A
C331   C286    1.408   1_655 S
C332   C335    1.409   .     A
C333   C344    1.386   .     A
C333   C339    1.394   .     A
C334   O362    1.292   .     A
C334   O364    1.283   .     A
C334   C341    1.423   .     S
C335   C338    1.394   .     A
C336   C292    1.391   1_655 S
C336   I541    2.134   1_545 S
C337   I450    2.134   .     S
C338   H349    1.085   .     S
C339   H350    1.085   .     S
C339   C291    1.391   1_655 S
C340   C525    1.326   1_545 S
C340   H535    1.088   1_545 S
C341   C432    1.326   .     S
C341   H444    1.088   .     S
C342   O367    1.292   .     A
C342   O365    1.294   .     A
C343   O366    1.294   .     A
C343   O368    1.292   .     A
C344   H347    1.086   .     S
Cu345  Cu346   2.689   .     S
Cu345  O368    1.947   .     S
Cu345  O364    1.944   .     S
Cu345  O361    1.949   .     S
Cu345  N360    2.020   .     S
Cu345  O365    1.964   .     S
Cu346  N359    2.020   .     S
Cu346  O363    1.944   .     S
Cu346  O367    1.947   .     S
Cu346  O362    1.949   .     S
Cu346  O366    1.964   .     S
H351   C432    1.088   .     S
H352   C525    1.088   1_545 S
H353   N635    1.029   .     S
I357   C428    2.134   .     S
I358   C521    2.134   1_545 S
N360   H630    1.029   .     S
N360   N635    1.298   .     S
C369   C386    1.423   .     S
C369   O409    1.283   .     A
C369   O407    1.292   .     A
C370   C372    1.389   .     A
C370   H394    1.086   .     S
C370   C381    1.386   .     A
C371   C389    1.446   .     S
C371   C390    1.389   .     A
C371   C373    1.408   .     A
C372   C374    1.408   .     A
C372   C388    1.446   .     S
C373   C375    1.416   .     A
C373   I401    2.144   .     S
C374   I402    2.144   .     S
C374   C376    1.416   .     A
C375   C377    1.427   .     A
C375   C382    1.421   .     A
C376   C378    1.427   .     A
C376   C383    1.421   .     A
C377   C379    1.409   .     A
C377   C424    1.408   .     S
C378   C381    1.409   .     A
C378   C423    1.408   1_455 S
C379   C390    1.386   .     A
C379   C385    1.394   .     A
C380   O408    1.292   .     A
C380   O410    1.283   .     A
C380   C387    1.423   .     S
C381   C384    1.394   .     A
C382   C430    1.391   .     S
C383   C431    1.391   1_455 S
C383   I496    2.134   .     S
C384   H395    1.085   .     S
C384   C428    1.391   1_455 S
C385   H396    1.085   .     S
C385   C429    1.391   .     S
C387   C478    1.326   .     S
C387   H490    1.088   .     S
C388   O413    1.292   .     A
C388   O411    1.294   .     A
C389   O412    1.294   .     A
C389   O414    1.292   .     A
C390   H393    1.086   .     S
Cu391  Cu392   2.689   .     S
Cu391  O414    1.947   .     S
Cu391  O410    1.944   .     S
Cu391  O407    1.949   .     S
Cu391  N406    2.020   .     S
Cu391  O411    1.964   .     S
Cu392  N405    2.020   .     S
Cu392  O409    1.944   .     S
Cu392  O413    1.947   .     S
Cu392  O408    1.949   .     S
Cu392  O412    1.964   .     S
H397   C478    1.088   .     S
H399   N681    1.029   .     S
I403   C474    2.134   .     S
N406   H676    1.029   .     S
N406   N681    1.298   .     S
C415   C432    1.423   .     S
C415   O455    1.283   .     A
C415   O453    1.292   .     A
C416   C418    1.389   .     A
C416   H440    1.086   .     S
C416   C427    1.386   .     A
C417   C435    1.446   .     S
C417   C436    1.389   .     A
C417   C419    1.408   .     A
C418   C420    1.408   .     A
C418   C434    1.446   .     S
C419   C421    1.416   .     A
C419   I447    2.144   .     S
C420   I448    2.144   .     S
C420   C422    1.416   .     A
C421   C423    1.427   .     A
C421   C428    1.421   .     A
C422   C424    1.427   .     A
C422   C429    1.421   .     A
C423   C425    1.409   .     A
C423   C378    1.408   1_655 S
C424   C427    1.409   .     A
C425   C436    1.386   .     A
C425   C431    1.394   .     A
C426   O454    1.292   .     A
C426   O456    1.283   .     A
C426   C433    1.423   .     S
C427   C430    1.394   .     A
C428   C384    1.391   1_655 S
C429   I542    2.134   .     S
C430   H441    1.085   .     S
C431   H442    1.085   .     S
C431   C383    1.391   1_655 S
C433   C524    1.326   .     S
C433   H536    1.088   .     S
C434   O459    1.292   .     A
C434   O457    1.294   .     A
C435   O458    1.294   .     A
C435   O460    1.292   .     A
C436   H439    1.086   .     S
Cu437  Cu438   2.689   .     S
Cu437  O460    1.947   .     S
Cu437  O456    1.944   .     S
Cu437  O453    1.949   .     S
Cu437  N452    2.020   .     S
Cu437  O457    1.964   .     S
Cu438  N451    2.020   .     S
Cu438  O455    1.944   .     S
Cu438  O459    1.947   .     S
Cu438  O454    1.949   .     S
Cu438  O458    1.964   .     S
H443   C524    1.088   .     S
H445   N727    1.029   .     S
I449   C520    2.134   .     S
N452   H722    1.029   .     S
N452   N727    1.298   .     S
C461   C478    1.423   .     S
C461   O501    1.283   .     A
C461   O499    1.292   .     A
C462   C464    1.389   .     A
C462   H486    1.086   .     S
C462   C473    1.386   .     A
C463   C481    1.446   .     S
C463   C482    1.389   .     A
C463   C465    1.408   .     A
C464   C466    1.408   .     A
C464   C480    1.446   .     S
C465   C467    1.416   .     A
C465   I493    2.144   .     S
C466   I494    2.144   .     S
C466   C468    1.416   .     A
C467   C469    1.427   .     A
C467   C474    1.421   .     A
C468   C470    1.427   .     A
C468   C475    1.421   .     A
C469   C471    1.409   .     A
C469   C516    1.408   .     S
C470   C473    1.409   .     A
C470   C515    1.408   1_455 S
C471   C482    1.386   .     A
C471   C477    1.394   .     A
C472   O500    1.292   .     A
C472   O502    1.283   .     A
C472   C479    1.423   .     S
C473   C476    1.394   .     A
C474   C522    1.391   .     S
C475   C523    1.391   1_455 S
C475   I312    2.134   1_565 S
C476   H487    1.085   .     S
C476   C520    1.391   1_455 S
C477   H488    1.085   .     S
C477   C521    1.391   .     S
C479   C294    1.326   1_565 S
C479   H306    1.088   1_565 S
C480   O505    1.292   .     A
C480   O503    1.294   .     A
C481   O504    1.294   .     A
C481   O506    1.292   .     A
C482   H485    1.086   .     S
Cu483  Cu484   2.689   .     S
Cu483  O506    1.947   .     S
Cu483  O502    1.944   .     S
Cu483  O499    1.949   .     S
Cu483  N498    2.020   .     S
Cu483  O503    1.964   .     S
Cu484  N497    2.020   .     S
Cu484  O501    1.944   .     S
Cu484  O505    1.947   .     S
Cu484  O500    1.949   .     S
Cu484  O504    1.964   .     S
H489   C294    1.088   1_565 S
H491   N773    1.029   .     S
I495   C290    2.134   1_565 S
N498   H768    1.029   .     S
N498   N773    1.298   .     S
C507   C524    1.423   .     S
C507   O547    1.283   .     A
C507   O545    1.292   .     A
C508   C510    1.389   .     A
C508   H532    1.086   .     S
C508   C519    1.386   .     A
C509   C527    1.446   .     S
C509   C528    1.389   .     A
C509   C511    1.408   .     A
C510   C512    1.408   .     A
C510   C526    1.446   .     S
C511   C513    1.416   .     A
C511   I539    2.144   .     S
C512   I540    2.144   .     S
C512   C514    1.416   .     A
C513   C515    1.427   .     A
C513   C520    1.421   .     A
C514   C516    1.427   .     A
C514   C521    1.421   .     A
C515   C517    1.409   .     A
C515   C470    1.408   1_655 S
C516   C519    1.409   .     A
C517   C528    1.386   .     A
C517   C523    1.394   .     A
C518   O546    1.292   .     A
C518   O548    1.283   .     A
C518   C525    1.423   .     S
C519   C522    1.394   .     A
C520   C476    1.391   1_655 S
C521   I358    2.134   1_565 S
C522   H533    1.085   .     S
C523   H534    1.085   .     S
C523   C475    1.391   1_655 S
C525   C340    1.326   1_565 S
C525   H352    1.088   1_565 S
C526   O551    1.292   .     A
C526   O549    1.294   .     A
C527   O550    1.294   .     A
C527   O552    1.292   .     A
C528   H531    1.086   .     S
Cu529  Cu530   2.689   .     S
Cu529  O552    1.947   .     S
Cu529  O548    1.944   .     S
Cu529  O545    1.949   .     S
Cu529  N544    2.020   .     S
Cu529  O549    1.964   .     S
Cu530  N543    2.020   .     S
Cu530  O547    1.944   .     S
Cu530  O551    1.947   .     S
Cu530  O546    1.949   .     S
Cu530  O550    1.964   .     S
H535   C340    1.088   1_565 S
H537   N819    1.029   .     S
I541   C336    2.134   1_565 S
N544   H814    1.029   .     S
N544   N819    1.298   .     S
C553   C570    1.423   .     S
C553   O593    1.283   .     A
C553   O591    1.292   .     A
C554   C556    1.389   .     A
C554   H578    1.086   .     S
C554   C565    1.386   .     A
C555   C573    1.446   .     S
C555   C574    1.389   .     A
C555   C557    1.408   .     A
C556   C558    1.408   .     A
C556   C572    1.446   .     S
C557   C559    1.416   .     A
C557   I585    2.144   .     S
C558   I586    2.144   .     S
C558   C560    1.416   .     A
C559   C561    1.427   .     A
C559   C566    1.421   .     A
C560   C562    1.427   .     A
C560   C567    1.421   .     A
C561   C563    1.409   .     A
C561   C608    1.408   .     S
C562   C565    1.409   .     A
C562   C607    1.408   1_455 S
C563   C574    1.386   .     A
C563   C569    1.394   .     A
C564   O592    1.292   .     A
C564   O594    1.283   .     A
C564   C571    1.423   .     S
C565   C568    1.394   .     A
C566   C614    1.391   .     S
C566   I771    2.134   1_545 S
C567   C615    1.391   1_455 S
C567   I680    2.134   .     S
C568   H579    1.085   .     S
C568   C612    1.391   1_455 S
C569   H580    1.085   .     S
C569   C613    1.391   .     S
C570   C755    1.326   1_545 S
C570   H765    1.088   1_545 S
C571   C662    1.326   .     S
C571   H674    1.088   .     S
C572   O597    1.292   .     A
C572   O595    1.294   .     A
C573   O596    1.294   .     A
C573   O598    1.292   .     A
C574   H577    1.086   .     S
Cu575  Cu576   2.689   .     S
Cu575  O598    1.947   .     S
Cu575  O594    1.944   .     S
Cu575  O591    1.949   .     S
Cu575  N590    2.020   .     S
Cu575  O595    1.964   .     S
Cu576  N589    2.020   .     S
Cu576  O593    1.944   .     S
Cu576  O597    1.947   .     S
Cu576  O592    1.949   .     S
Cu576  O596    1.964   .     S
H581   C662    1.088   .     S
H582   C755    1.088   1_545 S
H583   N37     1.029   1_556 S
I587   C658    2.134   .     S
I588   C751    2.134   1_545 S
N590   H32     1.029   1_556 S
N590   N37     1.298   1_556 S
C599   C616    1.423   .     S
C599   O639    1.283   .     A
C599   O637    1.292   .     A
C600   C602    1.389   .     A
C600   H624    1.086   .     S
C600   C611    1.386   .     A
C601   C619    1.446   .     S
C601   C620    1.389   .     A
C601   C603    1.408   .     A
C602   C604    1.408   .     A
C602   C618    1.446   .     S
C603   C605    1.416   .     A
C603   I631    2.144   .     S
C604   I632    2.144   .     S
C604   C606    1.416   .     A
C605   C607    1.427   .     A
C605   C612    1.421   .     A
C606   C608    1.427   .     A
C606   C613    1.421   .     A
C607   C609    1.409   .     A
C607   C562    1.408   1_655 S
C608   C611    1.409   .     A
C609   C620    1.386   .     A
C609   C615    1.394   .     A
C610   O638    1.292   .     A
C610   O640    1.283   .     A
C610   C617    1.423   .     S
C611   C614    1.394   .     A
C612   C568    1.391   1_655 S
C612   I817    2.134   1_545 S
C613   I726    2.134   .     S
C614   H625    1.085   .     S
C615   H626    1.085   .     S
C615   C567    1.391   1_655 S
C616   C801    1.326   1_545 S
C616   H811    1.088   1_545 S
C617   C708    1.326   .     S
C617   H720    1.088   .     S
C618   O643    1.292   .     A
C618   O641    1.294   .     A
C619   O642    1.294   .     A
C619   O644    1.292   .     A
C620   H623    1.086   .     S
Cu621  Cu622   2.689   .     S
Cu621  O644    1.947   .     S
Cu621  O640    1.944   .     S
Cu621  O637    1.949   .     S
Cu621  N636    2.020   .     S
Cu621  O641    1.964   .     S
Cu622  N635    2.020   .     S
Cu622  O639    1.944   .     S
Cu622  O643    1.947   .     S
Cu622  O638    1.949   .     S
Cu622  O642    1.964   .     S
H627   C708    1.088   .     S
H628   C801    1.088   1_545 S
H629   N83     1.029   1_556 S
I633   C704    2.134   .     S
I634   C797    2.134   1_545 S
N636   H78     1.029   1_556 S
N636   N83     1.298   1_556 S
C645   C662    1.423   .     S
C645   O685    1.283   .     A
C645   O683    1.292   .     A
C646   C648    1.389   .     A
C646   H670    1.086   .     S
C646   C657    1.386   .     A
C647   C665    1.446   .     S
C647   C666    1.389   .     A
C647   C649    1.408   .     A
C648   C650    1.408   .     A
C648   C664    1.446   .     S
C649   C651    1.416   .     A
C649   I677    2.144   .     S
C650   I678    2.144   .     S
C650   C652    1.416   .     A
C651   C653    1.427   .     A
C651   C658    1.421   .     A
C652   C654    1.427   .     A
C652   C659    1.421   .     A
C653   C655    1.409   .     A
C653   C700    1.408   .     S
C654   C657    1.409   .     A
C654   C699    1.408   1_455 S
C655   C666    1.386   .     A
C655   C661    1.394   .     A
C656   O684    1.292   .     A
C656   O686    1.283   .     A
C656   C663    1.423   .     S
C657   C660    1.394   .     A
C658   C706    1.391   .     S
C659   C707    1.391   1_455 S
C659   I772    2.134   .     S
C660   H671    1.085   .     S
C660   C704    1.391   1_455 S
C661   H672    1.085   .     S
C661   C705    1.391   .     S
C663   C754    1.326   .     S
C663   H766    1.088   .     S
C664   O689    1.292   .     A
C664   O687    1.294   .     A
C665   O688    1.294   .     A
C665   O690    1.292   .     A
C666   H669    1.086   .     S
Cu667  Cu668   2.689   .     S
Cu667  O690    1.947   .     S
Cu667  O686    1.944   .     S
Cu667  O683    1.949   .     S
Cu667  N682    2.020   .     S
Cu667  O687    1.964   .     S
Cu668  N681    2.020   .     S
Cu668  O685    1.944   .     S
Cu668  O689    1.947   .     S
Cu668  O684    1.949   .     S
Cu668  O688    1.964   .     S
H673   C754    1.088   .     S
H675   N129    1.029   1_556 S
I679   C750    2.134   .     S
N682   H124    1.029   1_556 S
N682   N129    1.298   1_556 S
C691   C708    1.423   .     S
C691   O731    1.283   .     A
C691   O729    1.292   .     A
C692   C694    1.389   .     A
C692   H716    1.086   .     S
C692   C703    1.386   .     A
C693   C711    1.446   .     S
C693   C712    1.389   .     A
C693   C695    1.408   .     A
C694   C696    1.408   .     A
C694   C710    1.446   .     S
C695   C697    1.416   .     A
C695   I723    2.144   .     S
C696   I724    2.144   .     S
C696   C698    1.416   .     A
C697   C699    1.427   .     A
C697   C704    1.421   .     A
C698   C700    1.427   .     A
C698   C705    1.421   .     A
C699   C701    1.409   .     A
C699   C654    1.408   1_655 S
C700   C703    1.409   .     A
C701   C712    1.386   .     A
C701   C707    1.394   .     A
C702   O730    1.292   .     A
C702   O732    1.283   .     A
C702   C709    1.423   .     S
C703   C706    1.394   .     A
C704   C660    1.391   1_655 S
C705   I818    2.134   .     S
C706   H717    1.085   .     S
C707   H718    1.085   .     S
C707   C659    1.391   1_655 S
C709   C800    1.326   .     S
C709   H812    1.088   .     S
C710   O735    1.292   .     A
C710   O733    1.294   .     A
C711   O734    1.294   .     A
C711   O736    1.292   .     A
C712   H715    1.086   .     S
Cu713  Cu714   2.689   .     S
Cu713  O736    1.947   .     S
Cu713  O732    1.944   .     S
Cu713  O729    1.949   .     S
Cu713  N728    2.020   .     S
Cu713  O733    1.964   .     S
Cu714  N727    2.020   .     S
Cu714  O731    1.944   .     S
Cu714  O735    1.947   .     S
Cu714  O730    1.949   .     S
Cu714  O734    1.964   .     S
H719   C800    1.088   .     S
H721   N175    1.029   1_556 S
I725   C796    2.134   .     S
N728   H170    1.029   1_556 S
N728   N175    1.298   1_556 S
C737   C754    1.423   .     S
C737   O777    1.283   .     A
C737   O775    1.292   .     A
C738   C740    1.389   .     A
C738   H762    1.086   .     S
C738   C749    1.386   .     A
C739   C757    1.446   .     S
C739   C758    1.389   .     A
C739   C741    1.408   .     A
C740   C742    1.408   .     A
C740   C756    1.446   .     S
C741   C743    1.416   .     A
C741   I769    2.144   .     S
C742   I770    2.144   .     S
C742   C744    1.416   .     A
C743   C745    1.427   .     A
C743   C750    1.421   .     A
C744   C746    1.427   .     A
C744   C751    1.421   .     A
C745   C747    1.409   .     A
C745   C792    1.408   .     S
C746   C749    1.409   .     A
C746   C791    1.408   1_455 S
C747   C758    1.386   .     A
C747   C753    1.394   .     A
C748   O776    1.292   .     A
C748   O778    1.283   .     A
C748   C755    1.423   .     S
C749   C752    1.394   .     A
C750   C798    1.391   .     S
C751   C799    1.391   1_455 S
C751   I588    2.134   1_565 S
C752   H763    1.085   .     S
C752   C796    1.391   1_455 S
C753   H764    1.085   .     S
C753   C797    1.391   .     S
C755   C570    1.326   1_565 S
C755   H582    1.088   1_565 S
C756   O781    1.292   .     A
C756   O779    1.294   .     A
C757   O780    1.294   .     A
C757   O782    1.292   .     A
C758   H761    1.086   .     S
Cu759  Cu760   2.689   .     S
Cu759  O782    1.947   .     S
Cu759  O778    1.944   .     S
Cu759  O775    1.949   .     S
Cu759  N774    2.020   .     S
Cu759  O779    1.964   .     S
Cu760  N773    2.020   .     S
Cu760  O777    1.944   .     S
Cu760  O781    1.947   .     S
Cu760  O776    1.949   .     S
Cu760  O780    1.964   .     S
H765   C570    1.088   1_565 S
H767   N221    1.029   1_556 S
I771   C566    2.134   1_565 S
N774   H216    1.029   1_556 S
N774   N221    1.298   1_556 S
C783   C800    1.423   .     S
C783   O823    1.283   .     A
C783   O821    1.292   .     A
C784   C786    1.389   .     A
C784   H808    1.086   .     S
C784   C795    1.386   .     A
C785   C803    1.446   .     S
C785   C804    1.389   .     A
C785   C787    1.408   .     A
C786   C788    1.408   .     A
C786   C802    1.446   .     S
C787   C789    1.416   .     A
C787   I815    2.144   .     S
C788   I816    2.144   .     S
C788   C790    1.416   .     A
C789   C791    1.427   .     A
C789   C796    1.421   .     A
C790   C792    1.427   .     A
C790   C797    1.421   .     A
C791   C793    1.409   .     A
C791   C746    1.408   1_655 S
C792   C795    1.409   .     A
C793   C804    1.386   .     A
C793   C799    1.394   .     A
C794   O822    1.292   .     A
C794   O824    1.283   .     A
C794   C801    1.423   .     S
C795   C798    1.394   .     A
C796   C752    1.391   1_655 S
C797   I634    2.134   1_565 S
C798   H809    1.085   .     S
C799   H810    1.085   .     S
C799   C751    1.391   1_655 S
C801   C616    1.326   1_565 S
C801   H628    1.088   1_565 S
C802   O827    1.292   .     A
C802   O825    1.294   .     A
C803   O826    1.294   .     A
C803   O828    1.292   .     A
C804   H807    1.086   .     S
Cu805  Cu806   2.689   .     S
Cu805  O828    1.947   .     S
Cu805  O824    1.944   .     S
Cu805  O821    1.949   .     S
Cu805  N820    2.020   .     S
Cu805  O825    1.964   .     S
Cu806  N819    2.020   .     S
Cu806  O823    1.944   .     S
Cu806  O827    1.947   .     S
Cu806  O822    1.949   .     S
Cu806  O826    1.964   .     S
H811   C616    1.088   1_565 S
H813   N267    1.029   1_556 S
I817   C612    2.134   1_565 S
N820   H262    1.029   1_556 S
N820   N267    1.298   1_556 S
