data_str_m2_o1_o10_pcu_sym.28
_audit_creation_date              2020-01-03
_audit_creation_method            'Materials Studio'
_symmetry_space_group_name_H-M    'P1'
_symmetry_Int_Tables_number       1
_symmetry_cell_setting            triclinic
loop_
_symmetry_equiv_pos_as_xyz
  x,y,z
_cell_length_a                    26.4397
_cell_length_b                    32.5272
_cell_length_c                    28.9110
_cell_angle_alpha                 88.1100
_cell_angle_beta                  95.5140
_cell_angle_gamma                 92.4348
loop_
_atom_site_label
_atom_site_type_symbol
_atom_site_fract_x
_atom_site_fract_y
_atom_site_fract_z
_atom_site_U_iso_or_equiv
_atom_site_adp_type
_atom_site_occupancy
C1     C     0.16567   0.08751   0.16685   0.00000  Uiso   1.00
C2     C     0.12410   0.01897   0.17997   0.00000  Uiso   1.00
C3     C     0.16742   0.29050   0.16684   0.00000  Uiso   1.00
C4     C     0.16591   0.04283   0.16650   0.00000  Uiso   1.00
C5     C     0.13042   0.14504   0.02314   0.00000  Uiso   1.00
C6     C     0.20291   0.18829   0.31019   0.00000  Uiso   1.00
C7     C     0.13006   0.14502   0.30754   0.00000  Uiso   1.00
C8     C     0.20327   0.18831   0.02579   0.00000  Uiso   1.00
C9     C     0.16766   0.24582   0.16648   0.00000  Uiso   1.00
C10    C     0.06829   0.16621   0.15519   0.00000  Uiso   1.00
C11    C     0.26504   0.16712   0.17814   0.00000  Uiso   1.00
C12    C     0.01353   0.16450   0.14883   0.00000  Uiso   1.00
C13    C     0.31980   0.16884   0.18450   0.00000  Uiso   1.00
C14    C     0.20711   0.02385   0.15007   0.00000  Uiso   1.00
C15    C     0.12622   0.30949   0.18327   0.00000  Uiso   1.00
C16    C     0.20924   0.31436   0.15337   0.00000  Uiso   1.00
Cu17   Cu    0.16667   0.16667   0.21355   0.00000  Uiso   1.00
Cu18   Cu    0.16667   0.16666   0.11978   0.00000  Uiso   1.00
H19    H     0.32860   0.15929   0.11412   0.00000  Uiso   1.00
H20    H     0.00473   0.17404   0.21921   0.00000  Uiso   1.00
H21    H     0.10146   0.12762   0.04029   0.00000  Uiso   1.00
H22    H     0.23187   0.20572   0.29304   0.00000  Uiso   1.00
I23    I     0.26218   0.05902   0.11403   0.00000  Uiso   1.00
I24    I     0.07116   0.27431   0.21931   0.00000  Uiso   1.00
I25    I     0.28036   0.28747   0.15318   0.00000  Uiso   1.00
I26    I     0.05298   0.04586   0.18017   0.00000  Uiso   1.00
I27    I     0.06859   0.10974   0.27726   0.00000  Uiso   1.00
I28    I     0.26474   0.22360   0.05608   0.00000  Uiso   1.00
N29    N     0.16668   0.16668   0.28403   0.00000  Uiso   1.00
N30    N     0.16665   0.16666   0.04931   0.00000  Uiso   1.00
O31    O     0.16666   0.10655   0.20625   0.00000  Uiso   1.00
O32    O     0.16667   0.22678   0.12709   0.00000  Uiso   1.00
O33    O     0.16666   0.10654   0.12706   0.00000  Uiso   1.00
O34    O     0.16667   0.22679   0.20628   0.00000  Uiso   1.00
O35    O     0.09161   0.16667   0.19712   0.00000  Uiso   1.00
O36    O     0.24172   0.16666   0.13621   0.00000  Uiso   1.00
O37    O     0.09161   0.16666   0.11793   0.00000  Uiso   1.00
O38    O     0.24172   0.16667   0.21540   0.00000  Uiso   1.00
C39    C     0.49900   0.08751   0.16685   0.00000  Uiso   1.00
C40    C     0.45743   0.01897   0.17997   0.00000  Uiso   1.00
C41    C     0.50076   0.29050   0.16684   0.00000  Uiso   1.00
C42    C     0.49924   0.04283   0.16650   0.00000  Uiso   1.00
C43    C     0.46375   0.14504   0.02314   0.00000  Uiso   1.00
C44    C     0.53625   0.18829   0.31019   0.00000  Uiso   1.00
C45    C     0.46339   0.14502   0.30754   0.00000  Uiso   1.00
C46    C     0.53661   0.18831   0.02579   0.00000  Uiso   1.00
C47    C     0.50100   0.24582   0.16648   0.00000  Uiso   1.00
C48    C     0.40162   0.16621   0.15519   0.00000  Uiso   1.00
C49    C     0.59838   0.16712   0.17814   0.00000  Uiso   1.00
C50    C     0.34686   0.16450   0.14883   0.00000  Uiso   1.00
C51    C     0.65314   0.16884   0.18450   0.00000  Uiso   1.00
C52    C     0.54044   0.02385   0.15007   0.00000  Uiso   1.00
C53    C     0.45956   0.30949   0.18327   0.00000  Uiso   1.00
C54    C     0.54257   0.31436   0.15337   0.00000  Uiso   1.00
Cu55   Cu    0.50000   0.16667   0.21355   0.00000  Uiso   1.00
Cu56   Cu    0.50000   0.16666   0.11978   0.00000  Uiso   1.00
H57    H     0.66193   0.15929   0.11412   0.00000  Uiso   1.00
H58    H     0.33807   0.17404   0.21921   0.00000  Uiso   1.00
H59    H     0.43479   0.12762   0.04029   0.00000  Uiso   1.00
H60    H     0.56521   0.20572   0.29304   0.00000  Uiso   1.00
I61    I     0.59552   0.05902   0.11403   0.00000  Uiso   1.00
I62    I     0.40449   0.27431   0.21931   0.00000  Uiso   1.00
I63    I     0.61369   0.28747   0.15318   0.00000  Uiso   1.00
I64    I     0.38631   0.04586   0.18017   0.00000  Uiso   1.00
I65    I     0.40192   0.10974   0.27726   0.00000  Uiso   1.00
I66    I     0.59807   0.22360   0.05608   0.00000  Uiso   1.00
N67    N     0.50001   0.16668   0.28403   0.00000  Uiso   1.00
N68    N     0.49999   0.16666   0.04931   0.00000  Uiso   1.00
O69    O     0.50000   0.10655   0.20625   0.00000  Uiso   1.00
O70    O     0.50000   0.22678   0.12709   0.00000  Uiso   1.00
O71    O     0.50000   0.10654   0.12706   0.00000  Uiso   1.00
O72    O     0.50000   0.22679   0.20628   0.00000  Uiso   1.00
O73    O     0.42495   0.16667   0.19712   0.00000  Uiso   1.00
O74    O     0.57505   0.16666   0.13621   0.00000  Uiso   1.00
O75    O     0.42494   0.16666   0.11793   0.00000  Uiso   1.00
O76    O     0.57506   0.16667   0.21540   0.00000  Uiso   1.00
C77    C     0.83234   0.08751   0.16685   0.00000  Uiso   1.00
C78    C     0.79077   0.01897   0.17997   0.00000  Uiso   1.00
C79    C     0.83409   0.29050   0.16684   0.00000  Uiso   1.00
C80    C     0.83258   0.04283   0.16650   0.00000  Uiso   1.00
C81    C     0.79709   0.14504   0.02314   0.00000  Uiso   1.00
C82    C     0.86958   0.18829   0.31019   0.00000  Uiso   1.00
C83    C     0.79673   0.14502   0.30754   0.00000  Uiso   1.00
C84    C     0.86994   0.18831   0.02579   0.00000  Uiso   1.00
C85    C     0.83433   0.24582   0.16648   0.00000  Uiso   1.00
C86    C     0.73496   0.16621   0.15519   0.00000  Uiso   1.00
C87    C     0.93171   0.16712   0.17814   0.00000  Uiso   1.00
C88    C     0.68019   0.16450   0.14883   0.00000  Uiso   1.00
C89    C     0.98647   0.16884   0.18450   0.00000  Uiso   1.00
C90    C     0.87378   0.02385   0.15007   0.00000  Uiso   1.00
C91    C     0.79289   0.30949   0.18327   0.00000  Uiso   1.00
C92    C     0.87590   0.31436   0.15337   0.00000  Uiso   1.00
Cu93   Cu    0.83333   0.16667   0.21355   0.00000  Uiso   1.00
Cu94   Cu    0.83333   0.16666   0.11978   0.00000  Uiso   1.00
H95    H     0.99527   0.15929   0.11412   0.00000  Uiso   1.00
H96    H     0.67140   0.17404   0.21921   0.00000  Uiso   1.00
H97    H     0.76813   0.12762   0.04029   0.00000  Uiso   1.00
H98    H     0.89854   0.20572   0.29304   0.00000  Uiso   1.00
I99    I     0.92885   0.05902   0.11403   0.00000  Uiso   1.00
I100   I     0.73782   0.27431   0.21931   0.00000  Uiso   1.00
I101   I     0.94703   0.28747   0.15318   0.00000  Uiso   1.00
I102   I     0.71965   0.04586   0.18017   0.00000  Uiso   1.00
I103   I     0.73526   0.10974   0.27726   0.00000  Uiso   1.00
I104   I     0.93141   0.22360   0.05608   0.00000  Uiso   1.00
N105   N     0.83335   0.16668   0.28403   0.00000  Uiso   1.00
N106   N     0.83332   0.16666   0.04931   0.00000  Uiso   1.00
O107   O     0.83333   0.10655   0.20625   0.00000  Uiso   1.00
O108   O     0.83334   0.22678   0.12709   0.00000  Uiso   1.00
O109   O     0.83333   0.10654   0.12706   0.00000  Uiso   1.00
O110   O     0.83334   0.22679   0.20628   0.00000  Uiso   1.00
O111   O     0.75828   0.16667   0.19712   0.00000  Uiso   1.00
O112   O     0.90839   0.16666   0.13621   0.00000  Uiso   1.00
O113   O     0.75828   0.16666   0.11793   0.00000  Uiso   1.00
O114   O     0.90839   0.16667   0.21540   0.00000  Uiso   1.00
C115   C     0.16567   0.42084   0.16685   0.00000  Uiso   1.00
C116   C     0.12410   0.35231   0.17997   0.00000  Uiso   1.00
C117   C     0.16742   0.62384   0.16684   0.00000  Uiso   1.00
C118   C     0.16591   0.37616   0.16650   0.00000  Uiso   1.00
C119   C     0.13042   0.47837   0.02314   0.00000  Uiso   1.00
C120   C     0.20291   0.52163   0.31019   0.00000  Uiso   1.00
C121   C     0.13006   0.47836   0.30754   0.00000  Uiso   1.00
C122   C     0.20327   0.52164   0.02579   0.00000  Uiso   1.00
C123   C     0.16766   0.57916   0.16648   0.00000  Uiso   1.00
C124   C     0.06829   0.49954   0.15519   0.00000  Uiso   1.00
C125   C     0.26504   0.50046   0.17814   0.00000  Uiso   1.00
C126   C     0.01353   0.49783   0.14883   0.00000  Uiso   1.00
C127   C     0.31980   0.50217   0.18450   0.00000  Uiso   1.00
C128   C     0.20711   0.35718   0.15007   0.00000  Uiso   1.00
C129   C     0.12622   0.64282   0.18327   0.00000  Uiso   1.00
C130   C     0.20924   0.64769   0.15337   0.00000  Uiso   1.00
Cu131  Cu    0.16667   0.50001   0.21355   0.00000  Uiso   1.00
Cu132  Cu    0.16667   0.49999   0.11978   0.00000  Uiso   1.00
H133   H     0.32860   0.49262   0.11412   0.00000  Uiso   1.00
H134   H     0.00473   0.50738   0.21921   0.00000  Uiso   1.00
H135   H     0.10146   0.46095   0.04029   0.00000  Uiso   1.00
H136   H     0.23187   0.53905   0.29304   0.00000  Uiso   1.00
I137   I     0.26218   0.39236   0.11403   0.00000  Uiso   1.00
I138   I     0.07116   0.60764   0.21931   0.00000  Uiso   1.00
I139   I     0.28036   0.62081   0.15318   0.00000  Uiso   1.00
I140   I     0.05298   0.37919   0.18017   0.00000  Uiso   1.00
I141   I     0.06859   0.44307   0.27726   0.00000  Uiso   1.00
I142   I     0.26474   0.55693   0.05608   0.00000  Uiso   1.00
N143   N     0.16668   0.50001   0.28403   0.00000  Uiso   1.00
N144   N     0.16665   0.49999   0.04931   0.00000  Uiso   1.00
O145   O     0.16666   0.43989   0.20625   0.00000  Uiso   1.00
O146   O     0.16667   0.56011   0.12709   0.00000  Uiso   1.00
O147   O     0.16666   0.43988   0.12706   0.00000  Uiso   1.00
O148   O     0.16667   0.56012   0.20628   0.00000  Uiso   1.00
O149   O     0.09161   0.50000   0.19712   0.00000  Uiso   1.00
O150   O     0.24172   0.50000   0.13621   0.00000  Uiso   1.00
O151   O     0.09161   0.49999   0.11793   0.00000  Uiso   1.00
O152   O     0.24172   0.50001   0.21540   0.00000  Uiso   1.00
C153   C     0.49900   0.42084   0.16685   0.00000  Uiso   1.00
C154   C     0.45743   0.35231   0.17997   0.00000  Uiso   1.00
C155   C     0.50076   0.62384   0.16684   0.00000  Uiso   1.00
C156   C     0.49924   0.37616   0.16650   0.00000  Uiso   1.00
C157   C     0.46375   0.47837   0.02314   0.00000  Uiso   1.00
C158   C     0.53625   0.52163   0.31019   0.00000  Uiso   1.00
C159   C     0.46339   0.47836   0.30754   0.00000  Uiso   1.00
C160   C     0.53661   0.52164   0.02579   0.00000  Uiso   1.00
C161   C     0.50100   0.57916   0.16648   0.00000  Uiso   1.00
C162   C     0.40162   0.49954   0.15519   0.00000  Uiso   1.00
C163   C     0.59838   0.50046   0.17814   0.00000  Uiso   1.00
C164   C     0.34686   0.49783   0.14883   0.00000  Uiso   1.00
C165   C     0.65314   0.50217   0.18450   0.00000  Uiso   1.00
C166   C     0.54044   0.35718   0.15007   0.00000  Uiso   1.00
C167   C     0.45956   0.64282   0.18327   0.00000  Uiso   1.00
C168   C     0.54257   0.64769   0.15337   0.00000  Uiso   1.00
Cu169  Cu    0.50000   0.50001   0.21355   0.00000  Uiso   1.00
Cu170  Cu    0.50000   0.49999   0.11978   0.00000  Uiso   1.00
H171   H     0.66193   0.49262   0.11412   0.00000  Uiso   1.00
H172   H     0.33807   0.50738   0.21921   0.00000  Uiso   1.00
H173   H     0.43479   0.46095   0.04029   0.00000  Uiso   1.00
H174   H     0.56521   0.53905   0.29304   0.00000  Uiso   1.00
I175   I     0.59552   0.39236   0.11403   0.00000  Uiso   1.00
I176   I     0.40449   0.60764   0.21931   0.00000  Uiso   1.00
I177   I     0.61369   0.62081   0.15318   0.00000  Uiso   1.00
I178   I     0.38631   0.37919   0.18017   0.00000  Uiso   1.00
I179   I     0.40192   0.44307   0.27726   0.00000  Uiso   1.00
I180   I     0.59807   0.55693   0.05608   0.00000  Uiso   1.00
N181   N     0.50001   0.50001   0.28403   0.00000  Uiso   1.00
N182   N     0.49999   0.49999   0.04931   0.00000  Uiso   1.00
O183   O     0.50000   0.43989   0.20625   0.00000  Uiso   1.00
O184   O     0.50000   0.56011   0.12709   0.00000  Uiso   1.00
O185   O     0.50000   0.43988   0.12706   0.00000  Uiso   1.00
O186   O     0.50000   0.56012   0.20628   0.00000  Uiso   1.00
O187   O     0.42495   0.50000   0.19712   0.00000  Uiso   1.00
O188   O     0.57505   0.50000   0.13621   0.00000  Uiso   1.00
O189   O     0.42494   0.49999   0.11793   0.00000  Uiso   1.00
O190   O     0.57506   0.50001   0.21540   0.00000  Uiso   1.00
C191   C     0.83234   0.42084   0.16685   0.00000  Uiso   1.00
C192   C     0.79077   0.35231   0.17997   0.00000  Uiso   1.00
C193   C     0.83409   0.62384   0.16684   0.00000  Uiso   1.00
C194   C     0.83258   0.37616   0.16650   0.00000  Uiso   1.00
C195   C     0.79709   0.47837   0.02314   0.00000  Uiso   1.00
C196   C     0.86958   0.52163   0.31019   0.00000  Uiso   1.00
C197   C     0.79673   0.47836   0.30754   0.00000  Uiso   1.00
C198   C     0.86994   0.52164   0.02579   0.00000  Uiso   1.00
C199   C     0.83433   0.57916   0.16648   0.00000  Uiso   1.00
C200   C     0.73496   0.49954   0.15519   0.00000  Uiso   1.00
C201   C     0.93171   0.50046   0.17814   0.00000  Uiso   1.00
C202   C     0.68019   0.49783   0.14883   0.00000  Uiso   1.00
C203   C     0.98647   0.50217   0.18450   0.00000  Uiso   1.00
C204   C     0.87378   0.35718   0.15007   0.00000  Uiso   1.00
C205   C     0.79289   0.64282   0.18327   0.00000  Uiso   1.00
C206   C     0.87590   0.64769   0.15337   0.00000  Uiso   1.00
Cu207  Cu    0.83333   0.50001   0.21355   0.00000  Uiso   1.00
Cu208  Cu    0.83333   0.49999   0.11978   0.00000  Uiso   1.00
H209   H     0.99527   0.49262   0.11412   0.00000  Uiso   1.00
H210   H     0.67140   0.50738   0.21921   0.00000  Uiso   1.00
H211   H     0.76813   0.46095   0.04029   0.00000  Uiso   1.00
H212   H     0.89854   0.53905   0.29304   0.00000  Uiso   1.00
I213   I     0.92885   0.39236   0.11403   0.00000  Uiso   1.00
I214   I     0.73782   0.60764   0.21931   0.00000  Uiso   1.00
I215   I     0.94703   0.62081   0.15318   0.00000  Uiso   1.00
I216   I     0.71965   0.37919   0.18017   0.00000  Uiso   1.00
I217   I     0.73526   0.44307   0.27726   0.00000  Uiso   1.00
I218   I     0.93141   0.55693   0.05608   0.00000  Uiso   1.00
N219   N     0.83335   0.50001   0.28403   0.00000  Uiso   1.00
N220   N     0.83332   0.49999   0.04931   0.00000  Uiso   1.00
O221   O     0.83333   0.43989   0.20625   0.00000  Uiso   1.00
O222   O     0.83334   0.56011   0.12709   0.00000  Uiso   1.00
O223   O     0.83333   0.43988   0.12706   0.00000  Uiso   1.00
O224   O     0.83334   0.56012   0.20628   0.00000  Uiso   1.00
O225   O     0.75828   0.50000   0.19712   0.00000  Uiso   1.00
O226   O     0.90839   0.50000   0.13621   0.00000  Uiso   1.00
O227   O     0.75828   0.49999   0.11793   0.00000  Uiso   1.00
O228   O     0.90839   0.50001   0.21540   0.00000  Uiso   1.00
C229   C     0.16567   0.75418   0.16685   0.00000  Uiso   1.00
C230   C     0.12410   0.68564   0.17997   0.00000  Uiso   1.00
C231   C     0.16742   0.95717   0.16684   0.00000  Uiso   1.00
C232   C     0.16591   0.70950   0.16650   0.00000  Uiso   1.00
C233   C     0.13042   0.81171   0.02314   0.00000  Uiso   1.00
C234   C     0.20291   0.85496   0.31019   0.00000  Uiso   1.00
C235   C     0.13006   0.81169   0.30754   0.00000  Uiso   1.00
C236   C     0.20327   0.85498   0.02579   0.00000  Uiso   1.00
C237   C     0.16766   0.91249   0.16648   0.00000  Uiso   1.00
C238   C     0.06829   0.83288   0.15519   0.00000  Uiso   1.00
C239   C     0.26504   0.83379   0.17814   0.00000  Uiso   1.00
C240   C     0.01353   0.83116   0.14883   0.00000  Uiso   1.00
C241   C     0.31980   0.83550   0.18450   0.00000  Uiso   1.00
C242   C     0.20711   0.69051   0.15007   0.00000  Uiso   1.00
C243   C     0.12622   0.97615   0.18327   0.00000  Uiso   1.00
C244   C     0.20924   0.98103   0.15337   0.00000  Uiso   1.00
Cu245  Cu    0.16667   0.83334   0.21355   0.00000  Uiso   1.00
Cu246  Cu    0.16667   0.83333   0.11978   0.00000  Uiso   1.00
H247   H     0.32860   0.82596   0.11412   0.00000  Uiso   1.00
H248   H     0.00473   0.84071   0.21921   0.00000  Uiso   1.00
H249   H     0.10146   0.79428   0.04029   0.00000  Uiso   1.00
H250   H     0.23187   0.87239   0.29304   0.00000  Uiso   1.00
I251   I     0.26218   0.72569   0.11403   0.00000  Uiso   1.00
I252   I     0.07116   0.94098   0.21931   0.00000  Uiso   1.00
I253   I     0.28036   0.95414   0.15318   0.00000  Uiso   1.00
I254   I     0.05298   0.71253   0.18017   0.00000  Uiso   1.00
I255   I     0.06859   0.77641   0.27726   0.00000  Uiso   1.00
I256   I     0.26474   0.89027   0.05608   0.00000  Uiso   1.00
N257   N     0.16668   0.83334   0.28403   0.00000  Uiso   1.00
N258   N     0.16665   0.83332   0.04931   0.00000  Uiso   1.00
O259   O     0.16666   0.77322   0.20625   0.00000  Uiso   1.00
O260   O     0.16667   0.89345   0.12709   0.00000  Uiso   1.00
O261   O     0.16666   0.77321   0.12706   0.00000  Uiso   1.00
O262   O     0.16667   0.89346   0.20628   0.00000  Uiso   1.00
O263   O     0.09161   0.83334   0.19712   0.00000  Uiso   1.00
O264   O     0.24172   0.83333   0.13621   0.00000  Uiso   1.00
O265   O     0.09161   0.83333   0.11793   0.00000  Uiso   1.00
O266   O     0.24172   0.83334   0.21540   0.00000  Uiso   1.00
C267   C     0.49900   0.75418   0.16685   0.00000  Uiso   1.00
C268   C     0.45743   0.68564   0.17997   0.00000  Uiso   1.00
C269   C     0.50076   0.95717   0.16684   0.00000  Uiso   1.00
C270   C     0.49924   0.70950   0.16650   0.00000  Uiso   1.00
C271   C     0.46375   0.81171   0.02314   0.00000  Uiso   1.00
C272   C     0.53625   0.85496   0.31019   0.00000  Uiso   1.00
C273   C     0.46339   0.81169   0.30754   0.00000  Uiso   1.00
C274   C     0.53661   0.85498   0.02579   0.00000  Uiso   1.00
C275   C     0.50100   0.91249   0.16648   0.00000  Uiso   1.00
C276   C     0.40162   0.83288   0.15519   0.00000  Uiso   1.00
C277   C     0.59838   0.83379   0.17814   0.00000  Uiso   1.00
C278   C     0.34686   0.83116   0.14883   0.00000  Uiso   1.00
C279   C     0.65314   0.83550   0.18450   0.00000  Uiso   1.00
C280   C     0.54044   0.69051   0.15007   0.00000  Uiso   1.00
C281   C     0.45956   0.97615   0.18327   0.00000  Uiso   1.00
C282   C     0.54257   0.98103   0.15337   0.00000  Uiso   1.00
Cu283  Cu    0.50000   0.83334   0.21355   0.00000  Uiso   1.00
Cu284  Cu    0.50000   0.83333   0.11978   0.00000  Uiso   1.00
H285   H     0.66193   0.82596   0.11412   0.00000  Uiso   1.00
H286   H     0.33807   0.84071   0.21921   0.00000  Uiso   1.00
H287   H     0.43479   0.79428   0.04029   0.00000  Uiso   1.00
H288   H     0.56521   0.87239   0.29304   0.00000  Uiso   1.00
I289   I     0.59552   0.72569   0.11403   0.00000  Uiso   1.00
I290   I     0.40449   0.94098   0.21931   0.00000  Uiso   1.00
I291   I     0.61369   0.95414   0.15318   0.00000  Uiso   1.00
I292   I     0.38631   0.71253   0.18017   0.00000  Uiso   1.00
I293   I     0.40192   0.77641   0.27726   0.00000  Uiso   1.00
I294   I     0.59807   0.89027   0.05608   0.00000  Uiso   1.00
N295   N     0.50001   0.83334   0.28403   0.00000  Uiso   1.00
N296   N     0.49999   0.83332   0.04931   0.00000  Uiso   1.00
O297   O     0.50000   0.77322   0.20625   0.00000  Uiso   1.00
O298   O     0.50000   0.89345   0.12709   0.00000  Uiso   1.00
O299   O     0.50000   0.77321   0.12706   0.00000  Uiso   1.00
O300   O     0.50000   0.89346   0.20628   0.00000  Uiso   1.00
O301   O     0.42495   0.83334   0.19712   0.00000  Uiso   1.00
O302   O     0.57505   0.83333   0.13621   0.00000  Uiso   1.00
O303   O     0.42494   0.83333   0.11793   0.00000  Uiso   1.00
O304   O     0.57506   0.83334   0.21540   0.00000  Uiso   1.00
C305   C     0.83234   0.75418   0.16685   0.00000  Uiso   1.00
C306   C     0.79077   0.68564   0.17997   0.00000  Uiso   1.00
C307   C     0.83409   0.95717   0.16684   0.00000  Uiso   1.00
C308   C     0.83258   0.70950   0.16650   0.00000  Uiso   1.00
C309   C     0.79709   0.81171   0.02314   0.00000  Uiso   1.00
C310   C     0.86958   0.85496   0.31019   0.00000  Uiso   1.00
C311   C     0.79673   0.81169   0.30754   0.00000  Uiso   1.00
C312   C     0.86994   0.85498   0.02579   0.00000  Uiso   1.00
C313   C     0.83433   0.91249   0.16648   0.00000  Uiso   1.00
C314   C     0.73496   0.83288   0.15519   0.00000  Uiso   1.00
C315   C     0.93171   0.83379   0.17814   0.00000  Uiso   1.00
C316   C     0.68019   0.83116   0.14883   0.00000  Uiso   1.00
C317   C     0.98647   0.83550   0.18450   0.00000  Uiso   1.00
C318   C     0.87378   0.69051   0.15007   0.00000  Uiso   1.00
C319   C     0.79289   0.97615   0.18327   0.00000  Uiso   1.00
C320   C     0.87590   0.98103   0.15337   0.00000  Uiso   1.00
Cu321  Cu    0.83333   0.83334   0.21355   0.00000  Uiso   1.00
Cu322  Cu    0.83333   0.83333   0.11978   0.00000  Uiso   1.00
H323   H     0.99527   0.82596   0.11412   0.00000  Uiso   1.00
H324   H     0.67140   0.84071   0.21921   0.00000  Uiso   1.00
H325   H     0.76813   0.79428   0.04029   0.00000  Uiso   1.00
H326   H     0.89854   0.87239   0.29304   0.00000  Uiso   1.00
I327   I     0.92885   0.72569   0.11403   0.00000  Uiso   1.00
I328   I     0.73782   0.94098   0.21931   0.00000  Uiso   1.00
I329   I     0.94703   0.95414   0.15318   0.00000  Uiso   1.00
I330   I     0.71965   0.71253   0.18017   0.00000  Uiso   1.00
I331   I     0.73526   0.77641   0.27726   0.00000  Uiso   1.00
I332   I     0.93141   0.89027   0.05608   0.00000  Uiso   1.00
N333   N     0.83335   0.83334   0.28403   0.00000  Uiso   1.00
N334   N     0.83332   0.83332   0.04931   0.00000  Uiso   1.00
O335   O     0.83333   0.77322   0.20625   0.00000  Uiso   1.00
O336   O     0.83334   0.89345   0.12709   0.00000  Uiso   1.00
O337   O     0.83333   0.77321   0.12706   0.00000  Uiso   1.00
O338   O     0.83334   0.89346   0.20628   0.00000  Uiso   1.00
O339   O     0.75828   0.83334   0.19712   0.00000  Uiso   1.00
O340   O     0.90839   0.83333   0.13621   0.00000  Uiso   1.00
O341   O     0.75828   0.83333   0.11793   0.00000  Uiso   1.00
O342   O     0.90839   0.83334   0.21540   0.00000  Uiso   1.00
C343   C     0.16567   0.08751   0.50019   0.00000  Uiso   1.00
C344   C     0.12410   0.01897   0.51330   0.00000  Uiso   1.00
C345   C     0.16742   0.29050   0.50017   0.00000  Uiso   1.00
C346   C     0.16591   0.04283   0.49983   0.00000  Uiso   1.00
C347   C     0.13042   0.14504   0.35647   0.00000  Uiso   1.00
C348   C     0.20291   0.18829   0.64353   0.00000  Uiso   1.00
C349   C     0.13006   0.14502   0.64087   0.00000  Uiso   1.00
C350   C     0.20327   0.18831   0.35913   0.00000  Uiso   1.00
C351   C     0.16766   0.24582   0.49981   0.00000  Uiso   1.00
C352   C     0.06829   0.16621   0.48853   0.00000  Uiso   1.00
C353   C     0.26504   0.16712   0.51147   0.00000  Uiso   1.00
C354   C     0.01353   0.16450   0.48216   0.00000  Uiso   1.00
C355   C     0.31980   0.16884   0.51784   0.00000  Uiso   1.00
C356   C     0.20711   0.02385   0.48340   0.00000  Uiso   1.00
C357   C     0.12622   0.30949   0.51660   0.00000  Uiso   1.00
C358   C     0.20924   0.31436   0.48670   0.00000  Uiso   1.00
Cu359  Cu    0.16667   0.16667   0.54689   0.00000  Uiso   1.00
Cu360  Cu    0.16667   0.16666   0.45311   0.00000  Uiso   1.00
H361   H     0.32860   0.15929   0.44745   0.00000  Uiso   1.00
H362   H     0.00473   0.17404   0.55255   0.00000  Uiso   1.00
H363   H     0.10146   0.12762   0.37363   0.00000  Uiso   1.00
H364   H     0.23187   0.20572   0.62637   0.00000  Uiso   1.00
I365   I     0.26218   0.05902   0.44736   0.00000  Uiso   1.00
I366   I     0.07116   0.27431   0.55265   0.00000  Uiso   1.00
I367   I     0.28036   0.28747   0.48652   0.00000  Uiso   1.00
I368   I     0.05298   0.04586   0.51350   0.00000  Uiso   1.00
I369   I     0.06859   0.10974   0.61059   0.00000  Uiso   1.00
I370   I     0.26474   0.22360   0.38941   0.00000  Uiso   1.00
N371   N     0.16668   0.16668   0.61736   0.00000  Uiso   1.00
N372   N     0.16665   0.16666   0.38264   0.00000  Uiso   1.00
O373   O     0.16666   0.10655   0.53958   0.00000  Uiso   1.00
O374   O     0.16667   0.22678   0.46042   0.00000  Uiso   1.00
O375   O     0.16666   0.10654   0.46039   0.00000  Uiso   1.00
O376   O     0.16667   0.22679   0.53961   0.00000  Uiso   1.00
O377   O     0.09161   0.16667   0.53046   0.00000  Uiso   1.00
O378   O     0.24172   0.16666   0.46954   0.00000  Uiso   1.00
O379   O     0.09161   0.16666   0.45127   0.00000  Uiso   1.00
O380   O     0.24172   0.16667   0.54873   0.00000  Uiso   1.00
C381   C     0.49900   0.08751   0.50019   0.00000  Uiso   1.00
C382   C     0.45743   0.01897   0.51330   0.00000  Uiso   1.00
C383   C     0.50076   0.29050   0.50017   0.00000  Uiso   1.00
C384   C     0.49924   0.04283   0.49983   0.00000  Uiso   1.00
C385   C     0.46375   0.14504   0.35647   0.00000  Uiso   1.00
C386   C     0.53625   0.18829   0.64353   0.00000  Uiso   1.00
C387   C     0.46339   0.14502   0.64087   0.00000  Uiso   1.00
C388   C     0.53661   0.18831   0.35913   0.00000  Uiso   1.00
C389   C     0.50100   0.24582   0.49981   0.00000  Uiso   1.00
C390   C     0.40162   0.16621   0.48853   0.00000  Uiso   1.00
C391   C     0.59838   0.16712   0.51147   0.00000  Uiso   1.00
C392   C     0.34686   0.16450   0.48216   0.00000  Uiso   1.00
C393   C     0.65314   0.16884   0.51784   0.00000  Uiso   1.00
C394   C     0.54044   0.02385   0.48340   0.00000  Uiso   1.00
C395   C     0.45956   0.30949   0.51660   0.00000  Uiso   1.00
C396   C     0.54257   0.31436   0.48670   0.00000  Uiso   1.00
Cu397  Cu    0.50000   0.16667   0.54689   0.00000  Uiso   1.00
Cu398  Cu    0.50000   0.16666   0.45311   0.00000  Uiso   1.00
H399   H     0.66193   0.15929   0.44745   0.00000  Uiso   1.00
H400   H     0.33807   0.17404   0.55255   0.00000  Uiso   1.00
H401   H     0.43479   0.12762   0.37363   0.00000  Uiso   1.00
H402   H     0.56521   0.20572   0.62637   0.00000  Uiso   1.00
I403   I     0.59552   0.05902   0.44736   0.00000  Uiso   1.00
I404   I     0.40449   0.27431   0.55265   0.00000  Uiso   1.00
I405   I     0.61369   0.28747   0.48652   0.00000  Uiso   1.00
I406   I     0.38631   0.04586   0.51350   0.00000  Uiso   1.00
I407   I     0.40192   0.10974   0.61059   0.00000  Uiso   1.00
I408   I     0.59807   0.22360   0.38941   0.00000  Uiso   1.00
N409   N     0.50001   0.16668   0.61736   0.00000  Uiso   1.00
N410   N     0.49999   0.16666   0.38264   0.00000  Uiso   1.00
O411   O     0.50000   0.10655   0.53958   0.00000  Uiso   1.00
O412   O     0.50000   0.22678   0.46042   0.00000  Uiso   1.00
O413   O     0.50000   0.10654   0.46039   0.00000  Uiso   1.00
O414   O     0.50000   0.22679   0.53961   0.00000  Uiso   1.00
O415   O     0.42495   0.16667   0.53046   0.00000  Uiso   1.00
O416   O     0.57505   0.16666   0.46954   0.00000  Uiso   1.00
O417   O     0.42494   0.16666   0.45127   0.00000  Uiso   1.00
O418   O     0.57506   0.16667   0.54873   0.00000  Uiso   1.00
C419   C     0.83234   0.08751   0.50019   0.00000  Uiso   1.00
C420   C     0.79077   0.01897   0.51330   0.00000  Uiso   1.00
C421   C     0.83409   0.29050   0.50017   0.00000  Uiso   1.00
C422   C     0.83258   0.04283   0.49983   0.00000  Uiso   1.00
C423   C     0.79709   0.14504   0.35647   0.00000  Uiso   1.00
C424   C     0.86958   0.18829   0.64353   0.00000  Uiso   1.00
C425   C     0.79673   0.14502   0.64087   0.00000  Uiso   1.00
C426   C     0.86994   0.18831   0.35913   0.00000  Uiso   1.00
C427   C     0.83433   0.24582   0.49981   0.00000  Uiso   1.00
C428   C     0.73496   0.16621   0.48853   0.00000  Uiso   1.00
C429   C     0.93171   0.16712   0.51147   0.00000  Uiso   1.00
C430   C     0.68019   0.16450   0.48216   0.00000  Uiso   1.00
C431   C     0.98647   0.16884   0.51784   0.00000  Uiso   1.00
C432   C     0.87378   0.02385   0.48340   0.00000  Uiso   1.00
C433   C     0.79289   0.30949   0.51660   0.00000  Uiso   1.00
C434   C     0.87590   0.31436   0.48670   0.00000  Uiso   1.00
Cu435  Cu    0.83333   0.16667   0.54689   0.00000  Uiso   1.00
Cu436  Cu    0.83333   0.16666   0.45311   0.00000  Uiso   1.00
H437   H     0.99527   0.15929   0.44745   0.00000  Uiso   1.00
H438   H     0.67140   0.17404   0.55255   0.00000  Uiso   1.00
H439   H     0.76813   0.12762   0.37363   0.00000  Uiso   1.00
H440   H     0.89854   0.20572   0.62637   0.00000  Uiso   1.00
I441   I     0.92885   0.05902   0.44736   0.00000  Uiso   1.00
I442   I     0.73782   0.27431   0.55265   0.00000  Uiso   1.00
I443   I     0.94703   0.28747   0.48652   0.00000  Uiso   1.00
I444   I     0.71965   0.04586   0.51350   0.00000  Uiso   1.00
I445   I     0.73526   0.10974   0.61059   0.00000  Uiso   1.00
I446   I     0.93141   0.22360   0.38941   0.00000  Uiso   1.00
N447   N     0.83335   0.16668   0.61736   0.00000  Uiso   1.00
N448   N     0.83332   0.16666   0.38264   0.00000  Uiso   1.00
O449   O     0.83333   0.10655   0.53958   0.00000  Uiso   1.00
O450   O     0.83334   0.22678   0.46042   0.00000  Uiso   1.00
O451   O     0.83333   0.10654   0.46039   0.00000  Uiso   1.00
O452   O     0.83334   0.22679   0.53961   0.00000  Uiso   1.00
O453   O     0.75828   0.16667   0.53046   0.00000  Uiso   1.00
O454   O     0.90839   0.16666   0.46954   0.00000  Uiso   1.00
O455   O     0.75828   0.16666   0.45127   0.00000  Uiso   1.00
O456   O     0.90839   0.16667   0.54873   0.00000  Uiso   1.00
C457   C     0.16567   0.42084   0.50019   0.00000  Uiso   1.00
C458   C     0.12410   0.35231   0.51330   0.00000  Uiso   1.00
C459   C     0.16742   0.62384   0.50017   0.00000  Uiso   1.00
C460   C     0.16591   0.37616   0.49983   0.00000  Uiso   1.00
C461   C     0.13042   0.47837   0.35647   0.00000  Uiso   1.00
C462   C     0.20291   0.52163   0.64353   0.00000  Uiso   1.00
C463   C     0.13006   0.47836   0.64087   0.00000  Uiso   1.00
C464   C     0.20327   0.52164   0.35913   0.00000  Uiso   1.00
C465   C     0.16766   0.57916   0.49981   0.00000  Uiso   1.00
C466   C     0.06829   0.49954   0.48853   0.00000  Uiso   1.00
C467   C     0.26504   0.50046   0.51147   0.00000  Uiso   1.00
C468   C     0.01353   0.49783   0.48216   0.00000  Uiso   1.00
C469   C     0.31980   0.50217   0.51784   0.00000  Uiso   1.00
C470   C     0.20711   0.35718   0.48340   0.00000  Uiso   1.00
C471   C     0.12622   0.64282   0.51660   0.00000  Uiso   1.00
C472   C     0.20924   0.64769   0.48670   0.00000  Uiso   1.00
Cu473  Cu    0.16667   0.50001   0.54689   0.00000  Uiso   1.00
Cu474  Cu    0.16667   0.49999   0.45311   0.00000  Uiso   1.00
H475   H     0.32860   0.49262   0.44745   0.00000  Uiso   1.00
H476   H     0.00473   0.50738   0.55255   0.00000  Uiso   1.00
H477   H     0.10146   0.46095   0.37363   0.00000  Uiso   1.00
H478   H     0.23187   0.53905   0.62637   0.00000  Uiso   1.00
I479   I     0.26218   0.39236   0.44736   0.00000  Uiso   1.00
I480   I     0.07116   0.60764   0.55265   0.00000  Uiso   1.00
I481   I     0.28036   0.62081   0.48652   0.00000  Uiso   1.00
I482   I     0.05298   0.37919   0.51350   0.00000  Uiso   1.00
I483   I     0.06859   0.44307   0.61059   0.00000  Uiso   1.00
I484   I     0.26474   0.55693   0.38941   0.00000  Uiso   1.00
N485   N     0.16668   0.50001   0.61736   0.00000  Uiso   1.00
N486   N     0.16665   0.49999   0.38264   0.00000  Uiso   1.00
O487   O     0.16666   0.43989   0.53958   0.00000  Uiso   1.00
O488   O     0.16667   0.56011   0.46042   0.00000  Uiso   1.00
O489   O     0.16666   0.43988   0.46039   0.00000  Uiso   1.00
O490   O     0.16667   0.56012   0.53961   0.00000  Uiso   1.00
O491   O     0.09161   0.50000   0.53046   0.00000  Uiso   1.00
O492   O     0.24172   0.50000   0.46954   0.00000  Uiso   1.00
O493   O     0.09161   0.49999   0.45127   0.00000  Uiso   1.00
O494   O     0.24172   0.50001   0.54873   0.00000  Uiso   1.00
C495   C     0.49900   0.42084   0.50019   0.00000  Uiso   1.00
C496   C     0.45743   0.35231   0.51330   0.00000  Uiso   1.00
C497   C     0.50076   0.62384   0.50017   0.00000  Uiso   1.00
C498   C     0.49924   0.37616   0.49983   0.00000  Uiso   1.00
C499   C     0.46375   0.47837   0.35647   0.00000  Uiso   1.00
C500   C     0.53625   0.52163   0.64353   0.00000  Uiso   1.00
C501   C     0.46339   0.47836   0.64087   0.00000  Uiso   1.00
C502   C     0.53661   0.52164   0.35913   0.00000  Uiso   1.00
C503   C     0.50100   0.57916   0.49981   0.00000  Uiso   1.00
C504   C     0.40162   0.49954   0.48853   0.00000  Uiso   1.00
C505   C     0.59838   0.50046   0.51147   0.00000  Uiso   1.00
C506   C     0.34686   0.49783   0.48216   0.00000  Uiso   1.00
C507   C     0.65314   0.50217   0.51784   0.00000  Uiso   1.00
C508   C     0.54044   0.35718   0.48340   0.00000  Uiso   1.00
C509   C     0.45956   0.64282   0.51660   0.00000  Uiso   1.00
C510   C     0.54257   0.64769   0.48670   0.00000  Uiso   1.00
Cu511  Cu    0.50000   0.50001   0.54689   0.00000  Uiso   1.00
Cu512  Cu    0.50000   0.49999   0.45311   0.00000  Uiso   1.00
H513   H     0.66193   0.49262   0.44745   0.00000  Uiso   1.00
H514   H     0.33807   0.50738   0.55255   0.00000  Uiso   1.00
H515   H     0.43479   0.46095   0.37363   0.00000  Uiso   1.00
H516   H     0.56521   0.53905   0.62637   0.00000  Uiso   1.00
I517   I     0.59552   0.39236   0.44736   0.00000  Uiso   1.00
I518   I     0.40449   0.60764   0.55265   0.00000  Uiso   1.00
I519   I     0.61369   0.62081   0.48652   0.00000  Uiso   1.00
I520   I     0.38631   0.37919   0.51350   0.00000  Uiso   1.00
I521   I     0.40192   0.44307   0.61059   0.00000  Uiso   1.00
I522   I     0.59807   0.55693   0.38941   0.00000  Uiso   1.00
N523   N     0.50001   0.50001   0.61736   0.00000  Uiso   1.00
N524   N     0.49999   0.49999   0.38264   0.00000  Uiso   1.00
O525   O     0.50000   0.43989   0.53958   0.00000  Uiso   1.00
O526   O     0.50000   0.56011   0.46042   0.00000  Uiso   1.00
O527   O     0.50000   0.43988   0.46039   0.00000  Uiso   1.00
O528   O     0.50000   0.56012   0.53961   0.00000  Uiso   1.00
O529   O     0.42495   0.50000   0.53046   0.00000  Uiso   1.00
O530   O     0.57505   0.50000   0.46954   0.00000  Uiso   1.00
O531   O     0.42494   0.49999   0.45127   0.00000  Uiso   1.00
O532   O     0.57506   0.50001   0.54873   0.00000  Uiso   1.00
C533   C     0.83234   0.42084   0.50019   0.00000  Uiso   1.00
C534   C     0.79077   0.35231   0.51330   0.00000  Uiso   1.00
C535   C     0.83409   0.62384   0.50017   0.00000  Uiso   1.00
C536   C     0.83258   0.37616   0.49983   0.00000  Uiso   1.00
C537   C     0.79709   0.47837   0.35647   0.00000  Uiso   1.00
C538   C     0.86958   0.52163   0.64353   0.00000  Uiso   1.00
C539   C     0.79673   0.47836   0.64087   0.00000  Uiso   1.00
C540   C     0.86994   0.52164   0.35913   0.00000  Uiso   1.00
C541   C     0.83433   0.57916   0.49981   0.00000  Uiso   1.00
C542   C     0.73496   0.49954   0.48853   0.00000  Uiso   1.00
C543   C     0.93171   0.50046   0.51147   0.00000  Uiso   1.00
C544   C     0.68019   0.49783   0.48216   0.00000  Uiso   1.00
C545   C     0.98647   0.50217   0.51784   0.00000  Uiso   1.00
C546   C     0.87378   0.35718   0.48340   0.00000  Uiso   1.00
C547   C     0.79289   0.64282   0.51660   0.00000  Uiso   1.00
C548   C     0.87590   0.64769   0.48670   0.00000  Uiso   1.00
Cu549  Cu    0.83333   0.50001   0.54689   0.00000  Uiso   1.00
Cu550  Cu    0.83333   0.49999   0.45311   0.00000  Uiso   1.00
H551   H     0.99527   0.49262   0.44745   0.00000  Uiso   1.00
H552   H     0.67140   0.50738   0.55255   0.00000  Uiso   1.00
H553   H     0.76813   0.46095   0.37363   0.00000  Uiso   1.00
H554   H     0.89854   0.53905   0.62637   0.00000  Uiso   1.00
I555   I     0.92885   0.39236   0.44736   0.00000  Uiso   1.00
I556   I     0.73782   0.60764   0.55265   0.00000  Uiso   1.00
I557   I     0.94703   0.62081   0.48652   0.00000  Uiso   1.00
I558   I     0.71965   0.37919   0.51350   0.00000  Uiso   1.00
I559   I     0.73526   0.44307   0.61059   0.00000  Uiso   1.00
I560   I     0.93141   0.55693   0.38941   0.00000  Uiso   1.00
N561   N     0.83335   0.50001   0.61736   0.00000  Uiso   1.00
N562   N     0.83332   0.49999   0.38264   0.00000  Uiso   1.00
O563   O     0.83333   0.43989   0.53958   0.00000  Uiso   1.00
O564   O     0.83334   0.56011   0.46042   0.00000  Uiso   1.00
O565   O     0.83333   0.43988   0.46039   0.00000  Uiso   1.00
O566   O     0.83334   0.56012   0.53961   0.00000  Uiso   1.00
O567   O     0.75828   0.50000   0.53046   0.00000  Uiso   1.00
O568   O     0.90839   0.50000   0.46954   0.00000  Uiso   1.00
O569   O     0.75828   0.49999   0.45127   0.00000  Uiso   1.00
O570   O     0.90839   0.50001   0.54873   0.00000  Uiso   1.00
C571   C     0.16567   0.75418   0.50019   0.00000  Uiso   1.00
C572   C     0.12410   0.68564   0.51330   0.00000  Uiso   1.00
C573   C     0.16742   0.95717   0.50017   0.00000  Uiso   1.00
C574   C     0.16591   0.70950   0.49983   0.00000  Uiso   1.00
C575   C     0.13042   0.81171   0.35647   0.00000  Uiso   1.00
C576   C     0.20291   0.85496   0.64353   0.00000  Uiso   1.00
C577   C     0.13006   0.81169   0.64087   0.00000  Uiso   1.00
C578   C     0.20327   0.85498   0.35913   0.00000  Uiso   1.00
C579   C     0.16766   0.91249   0.49981   0.00000  Uiso   1.00
C580   C     0.06829   0.83288   0.48853   0.00000  Uiso   1.00
C581   C     0.26504   0.83379   0.51147   0.00000  Uiso   1.00
C582   C     0.01353   0.83116   0.48216   0.00000  Uiso   1.00
C583   C     0.31980   0.83550   0.51784   0.00000  Uiso   1.00
C584   C     0.20711   0.69051   0.48340   0.00000  Uiso   1.00
C585   C     0.12622   0.97615   0.51660   0.00000  Uiso   1.00
C586   C     0.20924   0.98103   0.48670   0.00000  Uiso   1.00
Cu587  Cu    0.16667   0.83334   0.54689   0.00000  Uiso   1.00
Cu588  Cu    0.16667   0.83333   0.45311   0.00000  Uiso   1.00
H589   H     0.32860   0.82596   0.44745   0.00000  Uiso   1.00
H590   H     0.00473   0.84071   0.55255   0.00000  Uiso   1.00
H591   H     0.10146   0.79428   0.37363   0.00000  Uiso   1.00
H592   H     0.23187   0.87239   0.62637   0.00000  Uiso   1.00
I593   I     0.26218   0.72569   0.44736   0.00000  Uiso   1.00
I594   I     0.07116   0.94098   0.55265   0.00000  Uiso   1.00
I595   I     0.28036   0.95414   0.48652   0.00000  Uiso   1.00
I596   I     0.05298   0.71253   0.51350   0.00000  Uiso   1.00
I597   I     0.06859   0.77641   0.61059   0.00000  Uiso   1.00
I598   I     0.26474   0.89027   0.38941   0.00000  Uiso   1.00
N599   N     0.16668   0.83334   0.61736   0.00000  Uiso   1.00
N600   N     0.16665   0.83332   0.38264   0.00000  Uiso   1.00
O601   O     0.16666   0.77322   0.53958   0.00000  Uiso   1.00
O602   O     0.16667   0.89345   0.46042   0.00000  Uiso   1.00
O603   O     0.16666   0.77321   0.46039   0.00000  Uiso   1.00
O604   O     0.16667   0.89346   0.53961   0.00000  Uiso   1.00
O605   O     0.09161   0.83334   0.53046   0.00000  Uiso   1.00
O606   O     0.24172   0.83333   0.46954   0.00000  Uiso   1.00
O607   O     0.09161   0.83333   0.45127   0.00000  Uiso   1.00
O608   O     0.24172   0.83334   0.54873   0.00000  Uiso   1.00
C609   C     0.49900   0.75418   0.50019   0.00000  Uiso   1.00
C610   C     0.45743   0.68564   0.51330   0.00000  Uiso   1.00
C611   C     0.50076   0.95717   0.50017   0.00000  Uiso   1.00
C612   C     0.49924   0.70950   0.49983   0.00000  Uiso   1.00
C613   C     0.46375   0.81171   0.35647   0.00000  Uiso   1.00
C614   C     0.53625   0.85496   0.64353   0.00000  Uiso   1.00
C615   C     0.46339   0.81169   0.64087   0.00000  Uiso   1.00
C616   C     0.53661   0.85498   0.35913   0.00000  Uiso   1.00
C617   C     0.50100   0.91249   0.49981   0.00000  Uiso   1.00
C618   C     0.40162   0.83288   0.48853   0.00000  Uiso   1.00
C619   C     0.59838   0.83379   0.51147   0.00000  Uiso   1.00
C620   C     0.34686   0.83116   0.48216   0.00000  Uiso   1.00
C621   C     0.65314   0.83550   0.51784   0.00000  Uiso   1.00
C622   C     0.54044   0.69051   0.48340   0.00000  Uiso   1.00
C623   C     0.45956   0.97615   0.51660   0.00000  Uiso   1.00
C624   C     0.54257   0.98103   0.48670   0.00000  Uiso   1.00
Cu625  Cu    0.50000   0.83334   0.54689   0.00000  Uiso   1.00
Cu626  Cu    0.50000   0.83333   0.45311   0.00000  Uiso   1.00
H627   H     0.66193   0.82596   0.44745   0.00000  Uiso   1.00
H628   H     0.33807   0.84071   0.55255   0.00000  Uiso   1.00
H629   H     0.43479   0.79428   0.37363   0.00000  Uiso   1.00
H630   H     0.56521   0.87239   0.62637   0.00000  Uiso   1.00
I631   I     0.59552   0.72569   0.44736   0.00000  Uiso   1.00
I632   I     0.40449   0.94098   0.55265   0.00000  Uiso   1.00
I633   I     0.61369   0.95414   0.48652   0.00000  Uiso   1.00
I634   I     0.38631   0.71253   0.51350   0.00000  Uiso   1.00
I635   I     0.40192   0.77641   0.61059   0.00000  Uiso   1.00
I636   I     0.59807   0.89027   0.38941   0.00000  Uiso   1.00
N637   N     0.50001   0.83334   0.61736   0.00000  Uiso   1.00
N638   N     0.49999   0.83332   0.38264   0.00000  Uiso   1.00
O639   O     0.50000   0.77322   0.53958   0.00000  Uiso   1.00
O640   O     0.50000   0.89345   0.46042   0.00000  Uiso   1.00
O641   O     0.50000   0.77321   0.46039   0.00000  Uiso   1.00
O642   O     0.50000   0.89346   0.53961   0.00000  Uiso   1.00
O643   O     0.42495   0.83334   0.53046   0.00000  Uiso   1.00
O644   O     0.57505   0.83333   0.46954   0.00000  Uiso   1.00
O645   O     0.42494   0.83333   0.45127   0.00000  Uiso   1.00
O646   O     0.57506   0.83334   0.54873   0.00000  Uiso   1.00
C647   C     0.83234   0.75418   0.50019   0.00000  Uiso   1.00
C648   C     0.79077   0.68564   0.51330   0.00000  Uiso   1.00
C649   C     0.83409   0.95717   0.50017   0.00000  Uiso   1.00
C650   C     0.83258   0.70950   0.49983   0.00000  Uiso   1.00
C651   C     0.79709   0.81171   0.35647   0.00000  Uiso   1.00
C652   C     0.86958   0.85496   0.64353   0.00000  Uiso   1.00
C653   C     0.79673   0.81169   0.64087   0.00000  Uiso   1.00
C654   C     0.86994   0.85498   0.35913   0.00000  Uiso   1.00
C655   C     0.83433   0.91249   0.49981   0.00000  Uiso   1.00
C656   C     0.73496   0.83288   0.48853   0.00000  Uiso   1.00
C657   C     0.93171   0.83379   0.51147   0.00000  Uiso   1.00
C658   C     0.68019   0.83116   0.48216   0.00000  Uiso   1.00
C659   C     0.98647   0.83550   0.51784   0.00000  Uiso   1.00
C660   C     0.87378   0.69051   0.48340   0.00000  Uiso   1.00
C661   C     0.79289   0.97615   0.51660   0.00000  Uiso   1.00
C662   C     0.87590   0.98103   0.48670   0.00000  Uiso   1.00
Cu663  Cu    0.83333   0.83334   0.54689   0.00000  Uiso   1.00
Cu664  Cu    0.83333   0.83333   0.45311   0.00000  Uiso   1.00
H665   H     0.99527   0.82596   0.44745   0.00000  Uiso   1.00
H666   H     0.67140   0.84071   0.55255   0.00000  Uiso   1.00
H667   H     0.76813   0.79428   0.37363   0.00000  Uiso   1.00
H668   H     0.89854   0.87239   0.62637   0.00000  Uiso   1.00
I669   I     0.92885   0.72569   0.44736   0.00000  Uiso   1.00
I670   I     0.73782   0.94098   0.55265   0.00000  Uiso   1.00
I671   I     0.94703   0.95414   0.48652   0.00000  Uiso   1.00
I672   I     0.71965   0.71253   0.51350   0.00000  Uiso   1.00
I673   I     0.73526   0.77641   0.61059   0.00000  Uiso   1.00
I674   I     0.93141   0.89027   0.38941   0.00000  Uiso   1.00
N675   N     0.83335   0.83334   0.61736   0.00000  Uiso   1.00
N676   N     0.83332   0.83332   0.38264   0.00000  Uiso   1.00
O677   O     0.83333   0.77322   0.53958   0.00000  Uiso   1.00
O678   O     0.83334   0.89345   0.46042   0.00000  Uiso   1.00
O679   O     0.83333   0.77321   0.46039   0.00000  Uiso   1.00
O680   O     0.83334   0.89346   0.53961   0.00000  Uiso   1.00
O681   O     0.75828   0.83334   0.53046   0.00000  Uiso   1.00
O682   O     0.90839   0.83333   0.46954   0.00000  Uiso   1.00
O683   O     0.75828   0.83333   0.45127   0.00000  Uiso   1.00
O684   O     0.90839   0.83334   0.54873   0.00000  Uiso   1.00
C685   C     0.16567   0.08751   0.83352   0.00000  Uiso   1.00
C686   C     0.12410   0.01897   0.84663   0.00000  Uiso   1.00
C687   C     0.16742   0.29050   0.83350   0.00000  Uiso   1.00
C688   C     0.16591   0.04283   0.83316   0.00000  Uiso   1.00
C689   C     0.13042   0.14504   0.68981   0.00000  Uiso   1.00
C690   C     0.20291   0.18829   0.97686   0.00000  Uiso   1.00
C691   C     0.13006   0.14502   0.97421   0.00000  Uiso   1.00
C692   C     0.20327   0.18831   0.69246   0.00000  Uiso   1.00
C693   C     0.16766   0.24582   0.83315   0.00000  Uiso   1.00
C694   C     0.06829   0.16621   0.82186   0.00000  Uiso   1.00
C695   C     0.26504   0.16712   0.84481   0.00000  Uiso   1.00
C696   C     0.01353   0.16450   0.81550   0.00000  Uiso   1.00
C697   C     0.31980   0.16884   0.85117   0.00000  Uiso   1.00
C698   C     0.20711   0.02385   0.81673   0.00000  Uiso   1.00
C699   C     0.12622   0.30949   0.84994   0.00000  Uiso   1.00
C700   C     0.20924   0.31436   0.82004   0.00000  Uiso   1.00
Cu701  Cu    0.16667   0.16667   0.88022   0.00000  Uiso   1.00
Cu702  Cu    0.16667   0.16666   0.78645   0.00000  Uiso   1.00
H703   H     0.32860   0.15929   0.78078   0.00000  Uiso   1.00
H704   H     0.00473   0.17404   0.88588   0.00000  Uiso   1.00
H705   H     0.10146   0.12762   0.70696   0.00000  Uiso   1.00
H706   H     0.23187   0.20572   0.95971   0.00000  Uiso   1.00
I707   I     0.26218   0.05902   0.78069   0.00000  Uiso   1.00
I708   I     0.07116   0.27431   0.88598   0.00000  Uiso   1.00
I709   I     0.28036   0.28747   0.81985   0.00000  Uiso   1.00
I710   I     0.05298   0.04586   0.84683   0.00000  Uiso   1.00
I711   I     0.06859   0.10974   0.94393   0.00000  Uiso   1.00
I712   I     0.26474   0.22360   0.72274   0.00000  Uiso   1.00
N713   N     0.16668   0.16668   0.95069   0.00000  Uiso   1.00
N714   N     0.16665   0.16666   0.71597   0.00000  Uiso   1.00
O715   O     0.16666   0.10655   0.87291   0.00000  Uiso   1.00
O716   O     0.16667   0.22678   0.79375   0.00000  Uiso   1.00
O717   O     0.16666   0.10654   0.79372   0.00000  Uiso   1.00
O718   O     0.16667   0.22679   0.87294   0.00000  Uiso   1.00
O719   O     0.09161   0.16667   0.86379   0.00000  Uiso   1.00
O720   O     0.24172   0.16666   0.80288   0.00000  Uiso   1.00
O721   O     0.09161   0.16666   0.78460   0.00000  Uiso   1.00
O722   O     0.24172   0.16667   0.88207   0.00000  Uiso   1.00
C723   C     0.49900   0.08751   0.83352   0.00000  Uiso   1.00
C724   C     0.45743   0.01897   0.84663   0.00000  Uiso   1.00
C725   C     0.50076   0.29050   0.83350   0.00000  Uiso   1.00
C726   C     0.49924   0.04283   0.83316   0.00000  Uiso   1.00
C727   C     0.46375   0.14504   0.68981   0.00000  Uiso   1.00
C728   C     0.53625   0.18829   0.97686   0.00000  Uiso   1.00
C729   C     0.46339   0.14502   0.97421   0.00000  Uiso   1.00
C730   C     0.53661   0.18831   0.69246   0.00000  Uiso   1.00
C731   C     0.50100   0.24582   0.83315   0.00000  Uiso   1.00
C732   C     0.40162   0.16621   0.82186   0.00000  Uiso   1.00
C733   C     0.59838   0.16712   0.84481   0.00000  Uiso   1.00
C734   C     0.34686   0.16450   0.81550   0.00000  Uiso   1.00
C735   C     0.65314   0.16884   0.85117   0.00000  Uiso   1.00
C736   C     0.54044   0.02385   0.81673   0.00000  Uiso   1.00
C737   C     0.45956   0.30949   0.84994   0.00000  Uiso   1.00
C738   C     0.54257   0.31436   0.82004   0.00000  Uiso   1.00
Cu739  Cu    0.50000   0.16667   0.88022   0.00000  Uiso   1.00
Cu740  Cu    0.50000   0.16666   0.78645   0.00000  Uiso   1.00
H741   H     0.66193   0.15929   0.78078   0.00000  Uiso   1.00
H742   H     0.33807   0.17404   0.88588   0.00000  Uiso   1.00
H743   H     0.43479   0.12762   0.70696   0.00000  Uiso   1.00
H744   H     0.56521   0.20572   0.95971   0.00000  Uiso   1.00
I745   I     0.59552   0.05902   0.78069   0.00000  Uiso   1.00
I746   I     0.40449   0.27431   0.88598   0.00000  Uiso   1.00
I747   I     0.61369   0.28747   0.81985   0.00000  Uiso   1.00
I748   I     0.38631   0.04586   0.84683   0.00000  Uiso   1.00
I749   I     0.40192   0.10974   0.94393   0.00000  Uiso   1.00
I750   I     0.59807   0.22360   0.72274   0.00000  Uiso   1.00
N751   N     0.50001   0.16668   0.95069   0.00000  Uiso   1.00
N752   N     0.49999   0.16666   0.71597   0.00000  Uiso   1.00
O753   O     0.50000   0.10655   0.87291   0.00000  Uiso   1.00
O754   O     0.50000   0.22678   0.79375   0.00000  Uiso   1.00
O755   O     0.50000   0.10654   0.79372   0.00000  Uiso   1.00
O756   O     0.50000   0.22679   0.87294   0.00000  Uiso   1.00
O757   O     0.42495   0.16667   0.86379   0.00000  Uiso   1.00
O758   O     0.57505   0.16666   0.80288   0.00000  Uiso   1.00
O759   O     0.42494   0.16666   0.78460   0.00000  Uiso   1.00
O760   O     0.57506   0.16667   0.88207   0.00000  Uiso   1.00
C761   C     0.83234   0.08751   0.83352   0.00000  Uiso   1.00
C762   C     0.79077   0.01897   0.84663   0.00000  Uiso   1.00
C763   C     0.83409   0.29050   0.83350   0.00000  Uiso   1.00
C764   C     0.83258   0.04283   0.83316   0.00000  Uiso   1.00
C765   C     0.79709   0.14504   0.68981   0.00000  Uiso   1.00
C766   C     0.86958   0.18829   0.97686   0.00000  Uiso   1.00
C767   C     0.79673   0.14502   0.97421   0.00000  Uiso   1.00
C768   C     0.86994   0.18831   0.69246   0.00000  Uiso   1.00
C769   C     0.83433   0.24582   0.83315   0.00000  Uiso   1.00
C770   C     0.73496   0.16621   0.82186   0.00000  Uiso   1.00
C771   C     0.93171   0.16712   0.84481   0.00000  Uiso   1.00
C772   C     0.68019   0.16450   0.81550   0.00000  Uiso   1.00
C773   C     0.98647   0.16884   0.85117   0.00000  Uiso   1.00
C774   C     0.87378   0.02385   0.81673   0.00000  Uiso   1.00
C775   C     0.79289   0.30949   0.84994   0.00000  Uiso   1.00
C776   C     0.87590   0.31436   0.82004   0.00000  Uiso   1.00
Cu777  Cu    0.83333   0.16667   0.88022   0.00000  Uiso   1.00
Cu778  Cu    0.83333   0.16666   0.78645   0.00000  Uiso   1.00
H779   H     0.99527   0.15929   0.78078   0.00000  Uiso   1.00
H780   H     0.67140   0.17404   0.88588   0.00000  Uiso   1.00
H781   H     0.76813   0.12762   0.70696   0.00000  Uiso   1.00
H782   H     0.89854   0.20572   0.95971   0.00000  Uiso   1.00
I783   I     0.92885   0.05902   0.78069   0.00000  Uiso   1.00
I784   I     0.73782   0.27431   0.88598   0.00000  Uiso   1.00
I785   I     0.94703   0.28747   0.81985   0.00000  Uiso   1.00
I786   I     0.71965   0.04586   0.84683   0.00000  Uiso   1.00
I787   I     0.73526   0.10974   0.94393   0.00000  Uiso   1.00
I788   I     0.93141   0.22360   0.72274   0.00000  Uiso   1.00
N789   N     0.83335   0.16668   0.95069   0.00000  Uiso   1.00
N790   N     0.83332   0.16666   0.71597   0.00000  Uiso   1.00
O791   O     0.83333   0.10655   0.87291   0.00000  Uiso   1.00
O792   O     0.83334   0.22678   0.79375   0.00000  Uiso   1.00
O793   O     0.83333   0.10654   0.79372   0.00000  Uiso   1.00
O794   O     0.83334   0.22679   0.87294   0.00000  Uiso   1.00
O795   O     0.75828   0.16667   0.86379   0.00000  Uiso   1.00
O796   O     0.90839   0.16666   0.80288   0.00000  Uiso   1.00
O797   O     0.75828   0.16666   0.78460   0.00000  Uiso   1.00
O798   O     0.90839   0.16667   0.88207   0.00000  Uiso   1.00
C799   C     0.16567   0.42084   0.83352   0.00000  Uiso   1.00
C800   C     0.12410   0.35231   0.84663   0.00000  Uiso   1.00
C801   C     0.16742   0.62384   0.83350   0.00000  Uiso   1.00
C802   C     0.16591   0.37616   0.83316   0.00000  Uiso   1.00
C803   C     0.13042   0.47837   0.68981   0.00000  Uiso   1.00
C804   C     0.20291   0.52163   0.97686   0.00000  Uiso   1.00
C805   C     0.13006   0.47836   0.97421   0.00000  Uiso   1.00
C806   C     0.20327   0.52164   0.69246   0.00000  Uiso   1.00
C807   C     0.16766   0.57916   0.83315   0.00000  Uiso   1.00
C808   C     0.06829   0.49954   0.82186   0.00000  Uiso   1.00
C809   C     0.26504   0.50046   0.84481   0.00000  Uiso   1.00
C810   C     0.01353   0.49783   0.81550   0.00000  Uiso   1.00
C811   C     0.31980   0.50217   0.85117   0.00000  Uiso   1.00
C812   C     0.20711   0.35718   0.81673   0.00000  Uiso   1.00
C813   C     0.12622   0.64282   0.84994   0.00000  Uiso   1.00
C814   C     0.20924   0.64769   0.82004   0.00000  Uiso   1.00
Cu815  Cu    0.16667   0.50001   0.88022   0.00000  Uiso   1.00
Cu816  Cu    0.16667   0.49999   0.78645   0.00000  Uiso   1.00
H817   H     0.32860   0.49262   0.78078   0.00000  Uiso   1.00
H818   H     0.00473   0.50738   0.88588   0.00000  Uiso   1.00
H819   H     0.10146   0.46095   0.70696   0.00000  Uiso   1.00
H820   H     0.23187   0.53905   0.95971   0.00000  Uiso   1.00
I821   I     0.26218   0.39236   0.78069   0.00000  Uiso   1.00
I822   I     0.07116   0.60764   0.88598   0.00000  Uiso   1.00
I823   I     0.28036   0.62081   0.81985   0.00000  Uiso   1.00
I824   I     0.05298   0.37919   0.84683   0.00000  Uiso   1.00
I825   I     0.06859   0.44307   0.94393   0.00000  Uiso   1.00
I826   I     0.26474   0.55693   0.72274   0.00000  Uiso   1.00
N827   N     0.16668   0.50001   0.95069   0.00000  Uiso   1.00
N828   N     0.16665   0.49999   0.71597   0.00000  Uiso   1.00
O829   O     0.16666   0.43989   0.87291   0.00000  Uiso   1.00
O830   O     0.16667   0.56011   0.79375   0.00000  Uiso   1.00
O831   O     0.16666   0.43988   0.79372   0.00000  Uiso   1.00
O832   O     0.16667   0.56012   0.87294   0.00000  Uiso   1.00
O833   O     0.09161   0.50000   0.86379   0.00000  Uiso   1.00
O834   O     0.24172   0.50000   0.80288   0.00000  Uiso   1.00
O835   O     0.09161   0.49999   0.78460   0.00000  Uiso   1.00
O836   O     0.24172   0.50001   0.88207   0.00000  Uiso   1.00
C837   C     0.49900   0.42084   0.83352   0.00000  Uiso   1.00
C838   C     0.45743   0.35231   0.84663   0.00000  Uiso   1.00
C839   C     0.50076   0.62384   0.83350   0.00000  Uiso   1.00
C840   C     0.49924   0.37616   0.83316   0.00000  Uiso   1.00
C841   C     0.46375   0.47837   0.68981   0.00000  Uiso   1.00
C842   C     0.53625   0.52163   0.97686   0.00000  Uiso   1.00
C843   C     0.46339   0.47836   0.97421   0.00000  Uiso   1.00
C844   C     0.53661   0.52164   0.69246   0.00000  Uiso   1.00
C845   C     0.50100   0.57916   0.83315   0.00000  Uiso   1.00
C846   C     0.40162   0.49954   0.82186   0.00000  Uiso   1.00
C847   C     0.59838   0.50046   0.84481   0.00000  Uiso   1.00
C848   C     0.34686   0.49783   0.81550   0.00000  Uiso   1.00
C849   C     0.65314   0.50217   0.85117   0.00000  Uiso   1.00
C850   C     0.54044   0.35718   0.81673   0.00000  Uiso   1.00
C851   C     0.45956   0.64282   0.84994   0.00000  Uiso   1.00
C852   C     0.54257   0.64769   0.82004   0.00000  Uiso   1.00
Cu853  Cu    0.50000   0.50001   0.88022   0.00000  Uiso   1.00
Cu854  Cu    0.50000   0.49999   0.78645   0.00000  Uiso   1.00
H855   H     0.66193   0.49262   0.78078   0.00000  Uiso   1.00
H856   H     0.33807   0.50738   0.88588   0.00000  Uiso   1.00
H857   H     0.43479   0.46095   0.70696   0.00000  Uiso   1.00
H858   H     0.56521   0.53905   0.95971   0.00000  Uiso   1.00
I859   I     0.59552   0.39236   0.78069   0.00000  Uiso   1.00
I860   I     0.40449   0.60764   0.88598   0.00000  Uiso   1.00
I861   I     0.61369   0.62081   0.81985   0.00000  Uiso   1.00
I862   I     0.38631   0.37919   0.84683   0.00000  Uiso   1.00
I863   I     0.40192   0.44307   0.94393   0.00000  Uiso   1.00
I864   I     0.59807   0.55693   0.72274   0.00000  Uiso   1.00
N865   N     0.50001   0.50001   0.95069   0.00000  Uiso   1.00
N866   N     0.49999   0.49999   0.71597   0.00000  Uiso   1.00
O867   O     0.50000   0.43989   0.87291   0.00000  Uiso   1.00
O868   O     0.50000   0.56011   0.79375   0.00000  Uiso   1.00
O869   O     0.50000   0.43988   0.79372   0.00000  Uiso   1.00
O870   O     0.50000   0.56012   0.87294   0.00000  Uiso   1.00
O871   O     0.42495   0.50000   0.86379   0.00000  Uiso   1.00
O872   O     0.57505   0.50000   0.80288   0.00000  Uiso   1.00
O873   O     0.42494   0.49999   0.78460   0.00000  Uiso   1.00
O874   O     0.57506   0.50001   0.88207   0.00000  Uiso   1.00
C875   C     0.83234   0.42084   0.83352   0.00000  Uiso   1.00
C876   C     0.79077   0.35231   0.84663   0.00000  Uiso   1.00
C877   C     0.83409   0.62384   0.83350   0.00000  Uiso   1.00
C878   C     0.83258   0.37616   0.83316   0.00000  Uiso   1.00
C879   C     0.79709   0.47837   0.68981   0.00000  Uiso   1.00
C880   C     0.86958   0.52163   0.97686   0.00000  Uiso   1.00
C881   C     0.79673   0.47836   0.97421   0.00000  Uiso   1.00
C882   C     0.86994   0.52164   0.69246   0.00000  Uiso   1.00
C883   C     0.83433   0.57916   0.83315   0.00000  Uiso   1.00
C884   C     0.73496   0.49954   0.82186   0.00000  Uiso   1.00
C885   C     0.93171   0.50046   0.84481   0.00000  Uiso   1.00
C886   C     0.68019   0.49783   0.81550   0.00000  Uiso   1.00
C887   C     0.98647   0.50217   0.85117   0.00000  Uiso   1.00
C888   C     0.87378   0.35718   0.81673   0.00000  Uiso   1.00
C889   C     0.79289   0.64282   0.84994   0.00000  Uiso   1.00
C890   C     0.87590   0.64769   0.82004   0.00000  Uiso   1.00
Cu891  Cu    0.83333   0.50001   0.88022   0.00000  Uiso   1.00
Cu892  Cu    0.83333   0.49999   0.78645   0.00000  Uiso   1.00
H893   H     0.99527   0.49262   0.78078   0.00000  Uiso   1.00
H894   H     0.67140   0.50738   0.88588   0.00000  Uiso   1.00
H895   H     0.76813   0.46095   0.70696   0.00000  Uiso   1.00
H896   H     0.89854   0.53905   0.95971   0.00000  Uiso   1.00
I897   I     0.92885   0.39236   0.78069   0.00000  Uiso   1.00
I898   I     0.73782   0.60764   0.88598   0.00000  Uiso   1.00
I899   I     0.94703   0.62081   0.81985   0.00000  Uiso   1.00
I900   I     0.71965   0.37919   0.84683   0.00000  Uiso   1.00
I901   I     0.73526   0.44307   0.94393   0.00000  Uiso   1.00
I902   I     0.93141   0.55693   0.72274   0.00000  Uiso   1.00
N903   N     0.83335   0.50001   0.95069   0.00000  Uiso   1.00
N904   N     0.83332   0.49999   0.71597   0.00000  Uiso   1.00
O905   O     0.83333   0.43989   0.87291   0.00000  Uiso   1.00
O906   O     0.83334   0.56011   0.79375   0.00000  Uiso   1.00
O907   O     0.83333   0.43988   0.79372   0.00000  Uiso   1.00
O908   O     0.83334   0.56012   0.87294   0.00000  Uiso   1.00
O909   O     0.75828   0.50000   0.86379   0.00000  Uiso   1.00
O910   O     0.90839   0.50000   0.80288   0.00000  Uiso   1.00
O911   O     0.75828   0.49999   0.78460   0.00000  Uiso   1.00
O912   O     0.90839   0.50001   0.88207   0.00000  Uiso   1.00
C913   C     0.16567   0.75418   0.83352   0.00000  Uiso   1.00
C914   C     0.12410   0.68564   0.84663   0.00000  Uiso   1.00
C915   C     0.16742   0.95717   0.83350   0.00000  Uiso   1.00
C916   C     0.16591   0.70950   0.83316   0.00000  Uiso   1.00
C917   C     0.13042   0.81171   0.68981   0.00000  Uiso   1.00
C918   C     0.20291   0.85496   0.97686   0.00000  Uiso   1.00
C919   C     0.13006   0.81169   0.97421   0.00000  Uiso   1.00
C920   C     0.20327   0.85498   0.69246   0.00000  Uiso   1.00
C921   C     0.16766   0.91249   0.83315   0.00000  Uiso   1.00
C922   C     0.06829   0.83288   0.82186   0.00000  Uiso   1.00
C923   C     0.26504   0.83379   0.84481   0.00000  Uiso   1.00
C924   C     0.01353   0.83116   0.81550   0.00000  Uiso   1.00
C925   C     0.31980   0.83550   0.85117   0.00000  Uiso   1.00
C926   C     0.20711   0.69051   0.81673   0.00000  Uiso   1.00
C927   C     0.12622   0.97615   0.84994   0.00000  Uiso   1.00
C928   C     0.20924   0.98103   0.82004   0.00000  Uiso   1.00
Cu929  Cu    0.16667   0.83334   0.88022   0.00000  Uiso   1.00
Cu930  Cu    0.16667   0.83333   0.78645   0.00000  Uiso   1.00
H931   H     0.32860   0.82596   0.78078   0.00000  Uiso   1.00
H932   H     0.00473   0.84071   0.88588   0.00000  Uiso   1.00
H933   H     0.10146   0.79428   0.70696   0.00000  Uiso   1.00
H934   H     0.23187   0.87239   0.95971   0.00000  Uiso   1.00
I935   I     0.26218   0.72569   0.78069   0.00000  Uiso   1.00
I936   I     0.07116   0.94098   0.88598   0.00000  Uiso   1.00
I937   I     0.28036   0.95414   0.81985   0.00000  Uiso   1.00
I938   I     0.05298   0.71253   0.84683   0.00000  Uiso   1.00
I939   I     0.06859   0.77641   0.94393   0.00000  Uiso   1.00
I940   I     0.26474   0.89027   0.72274   0.00000  Uiso   1.00
N941   N     0.16668   0.83334   0.95069   0.00000  Uiso   1.00
N942   N     0.16665   0.83332   0.71597   0.00000  Uiso   1.00
O943   O     0.16666   0.77322   0.87291   0.00000  Uiso   1.00
O944   O     0.16667   0.89345   0.79375   0.00000  Uiso   1.00
O945   O     0.16666   0.77321   0.79372   0.00000  Uiso   1.00
O946   O     0.16667   0.89346   0.87294   0.00000  Uiso   1.00
O947   O     0.09161   0.83334   0.86379   0.00000  Uiso   1.00
O948   O     0.24172   0.83333   0.80288   0.00000  Uiso   1.00
O949   O     0.09161   0.83333   0.78460   0.00000  Uiso   1.00
O950   O     0.24172   0.83334   0.88207   0.00000  Uiso   1.00
C951   C     0.49900   0.75418   0.83352   0.00000  Uiso   1.00
C952   C     0.45743   0.68564   0.84663   0.00000  Uiso   1.00
C953   C     0.50076   0.95717   0.83350   0.00000  Uiso   1.00
C954   C     0.49924   0.70950   0.83316   0.00000  Uiso   1.00
C955   C     0.46375   0.81171   0.68981   0.00000  Uiso   1.00
C956   C     0.53625   0.85496   0.97686   0.00000  Uiso   1.00
C957   C     0.46339   0.81169   0.97421   0.00000  Uiso   1.00
C958   C     0.53661   0.85498   0.69246   0.00000  Uiso   1.00
C959   C     0.50100   0.91249   0.83315   0.00000  Uiso   1.00
C960   C     0.40162   0.83288   0.82186   0.00000  Uiso   1.00
C961   C     0.59838   0.83379   0.84481   0.00000  Uiso   1.00
C962   C     0.34686   0.83116   0.81550   0.00000  Uiso   1.00
C963   C     0.65314   0.83550   0.85117   0.00000  Uiso   1.00
C964   C     0.54044   0.69051   0.81673   0.00000  Uiso   1.00
C965   C     0.45956   0.97615   0.84994   0.00000  Uiso   1.00
C966   C     0.54257   0.98103   0.82004   0.00000  Uiso   1.00
Cu967  Cu    0.50000   0.83334   0.88022   0.00000  Uiso   1.00
Cu968  Cu    0.50000   0.83333   0.78645   0.00000  Uiso   1.00
H969   H     0.66193   0.82596   0.78078   0.00000  Uiso   1.00
H970   H     0.33807   0.84071   0.88588   0.00000  Uiso   1.00
H971   H     0.43479   0.79428   0.70696   0.00000  Uiso   1.00
H972   H     0.56521   0.87239   0.95971   0.00000  Uiso   1.00
I973   I     0.59552   0.72569   0.78069   0.00000  Uiso   1.00
I974   I     0.40449   0.94098   0.88598   0.00000  Uiso   1.00
I975   I     0.61369   0.95414   0.81985   0.00000  Uiso   1.00
I976   I     0.38631   0.71253   0.84683   0.00000  Uiso   1.00
I977   I     0.40192   0.77641   0.94393   0.00000  Uiso   1.00
I978   I     0.59807   0.89027   0.72274   0.00000  Uiso   1.00
N979   N     0.50001   0.83334   0.95069   0.00000  Uiso   1.00
N980   N     0.49999   0.83332   0.71597   0.00000  Uiso   1.00
O981   O     0.50000   0.77322   0.87291   0.00000  Uiso   1.00
O982   O     0.50000   0.89345   0.79375   0.00000  Uiso   1.00
O983   O     0.50000   0.77321   0.79372   0.00000  Uiso   1.00
O984   O     0.50000   0.89346   0.87294   0.00000  Uiso   1.00
O985   O     0.42495   0.83334   0.86379   0.00000  Uiso   1.00
O986   O     0.57505   0.83333   0.80288   0.00000  Uiso   1.00
O987   O     0.42494   0.83333   0.78460   0.00000  Uiso   1.00
O988   O     0.57506   0.83334   0.88207   0.00000  Uiso   1.00
C989   C     0.83234   0.75418   0.83352   0.00000  Uiso   1.00
C990   C     0.79077   0.68564   0.84663   0.00000  Uiso   1.00
C991   C     0.83409   0.95717   0.83350   0.00000  Uiso   1.00
C992   C     0.83258   0.70950   0.83316   0.00000  Uiso   1.00
C993   C     0.79709   0.81171   0.68981   0.00000  Uiso   1.00
C994   C     0.86958   0.85496   0.97686   0.00000  Uiso   1.00
C995   C     0.79673   0.81169   0.97421   0.00000  Uiso   1.00
C996   C     0.86994   0.85498   0.69246   0.00000  Uiso   1.00
C997   C     0.83433   0.91249   0.83315   0.00000  Uiso   1.00
C998   C     0.73496   0.83288   0.82186   0.00000  Uiso   1.00
C999   C     0.93171   0.83379   0.84481   0.00000  Uiso   1.00
C1000  C     0.68019   0.83116   0.81550   0.00000  Uiso   1.00
C1001  C     0.98647   0.83550   0.85117   0.00000  Uiso   1.00
C1002  C     0.87378   0.69051   0.81673   0.00000  Uiso   1.00
C1003  C     0.79289   0.97615   0.84994   0.00000  Uiso   1.00
C1004  C     0.87590   0.98103   0.82004   0.00000  Uiso   1.00
Cu1005 Cu    0.83333   0.83334   0.88022   0.00000  Uiso   1.00
Cu1006 Cu    0.83333   0.83333   0.78645   0.00000  Uiso   1.00
H1007  H     0.99527   0.82596   0.78078   0.00000  Uiso   1.00
H1008  H     0.67140   0.84071   0.88588   0.00000  Uiso   1.00
H1009  H     0.76813   0.79428   0.70696   0.00000  Uiso   1.00
H1010  H     0.89854   0.87239   0.95971   0.00000  Uiso   1.00
I1011  I     0.92885   0.72569   0.78069   0.00000  Uiso   1.00
I1012  I     0.73782   0.94098   0.88598   0.00000  Uiso   1.00
I1013  I     0.94703   0.95414   0.81985   0.00000  Uiso   1.00
I1014  I     0.71965   0.71253   0.84683   0.00000  Uiso   1.00
I1015  I     0.73526   0.77641   0.94393   0.00000  Uiso   1.00
I1016  I     0.93141   0.89027   0.72274   0.00000  Uiso   1.00
N1017  N     0.83335   0.83334   0.95069   0.00000  Uiso   1.00
N1018  N     0.83332   0.83332   0.71597   0.00000  Uiso   1.00
O1019  O     0.83333   0.77322   0.87291   0.00000  Uiso   1.00
O1020  O     0.83334   0.89345   0.79375   0.00000  Uiso   1.00
O1021  O     0.83333   0.77321   0.79372   0.00000  Uiso   1.00
O1022  O     0.83334   0.89346   0.87294   0.00000  Uiso   1.00
O1023  O     0.75828   0.83334   0.86379   0.00000  Uiso   1.00
O1024  O     0.90839   0.83333   0.80288   0.00000  Uiso   1.00
O1025  O     0.75828   0.83333   0.78460   0.00000  Uiso   1.00
O1026  O     0.90839   0.83334   0.88207   0.00000  Uiso   1.00
loop_
_geom_bond_atom_site_label_1
_geom_bond_atom_site_label_2
_geom_bond_distance
_geom_bond_site_symmetry_2
_ccdc_geom_bond_type
C1     C4      1.454   .     S
C1     O33     1.290   .     A
C1     O31     1.312   .     A
C2     C4      1.402   .     A
C2     I26     2.108   .     S
C2     C243    1.396   1_545 S
C3     C9      1.454   .     S
C3     C15     1.403   .     A
C3     C16     1.402   .     A
C4     C14     1.403   .     A
C5     N30     1.350   .     A
C5     H21     1.082   .     S
C5     C691    1.414   1_554 S
C6     H22     1.082   .     S
C6     N29     1.350   .     A
C6     C350    1.414   .     S
C7     N29     1.390   .     A
C7     I27     2.088   .     S
C7     C347    1.414   .     S
C8     N30     1.390   .     A
C8     I28     2.088   .     S
C8     C690    1.414   1_554 S
C9     O34     1.290   .     A
C9     O32     1.312   .     A
C10    O35     1.306   .     A
C10    C12     1.441   .     S
C10    O37     1.291   .     A
C11    O38     1.291   .     A
C11    C13     1.441   .     S
C11    O36     1.306   .     A
C12    C89     1.325   1_455 S
C12    H95     1.086   1_455 S
C13    C50     1.325   .     S
C13    H58     1.086   .     S
C14    I23     2.142   .     S
C14    C244    1.396   1_545 S
C15    I24     2.142   .     S
C15    C116    1.396   .     S
C16    I25     2.108   .     S
C16    C128    1.396   .     S
Cu17   N29     2.037   .     S
Cu17   Cu18    2.711   .     S
Cu17   O38     1.980   .     S
Cu17   O31     1.974   .     S
Cu17   O34     1.960   .     S
Cu17   O35     1.996   .     S
Cu18   N30     2.037   .     S
Cu18   O37     1.980   .     S
Cu18   O33     1.960   .     S
Cu18   O32     1.974   .     S
Cu18   O36     1.996   .     S
H19    C50     1.086   .     S
H20    C89     1.086   1_455 S
C39    C42     1.454   .     S
C39    O71     1.290   .     A
C39    O69     1.312   .     A
C40    C42     1.402   .     A
C40    I64     2.108   .     S
C40    C281    1.396   1_545 S
C41    C47     1.454   .     S
C41    C53     1.403   .     A
C41    C54     1.402   .     A
C42    C52     1.403   .     A
C43    N68     1.350   .     A
C43    H59     1.082   .     S
C43    C729    1.414   1_554 S
C44    H60     1.082   .     S
C44    N67     1.350   .     A
C44    C388    1.414   .     S
C45    N67     1.390   .     A
C45    I65     2.088   .     S
C45    C385    1.414   .     S
C46    N68     1.390   .     A
C46    I66     2.088   .     S
C46    C728    1.414   1_554 S
C47    O72     1.290   .     A
C47    O70     1.312   .     A
C48    O73     1.306   .     A
C48    C50     1.441   .     S
C48    O75     1.291   .     A
C49    O76     1.291   .     A
C49    C51     1.441   .     S
C49    O74     1.306   .     A
C51    C88     1.325   .     S
C51    H96     1.086   .     S
C52    I61     2.142   .     S
C52    C282    1.396   1_545 S
C53    I62     2.142   .     S
C53    C154    1.396   .     S
C54    I63     2.108   .     S
C54    C166    1.396   .     S
Cu55   N67     2.037   .     S
Cu55   Cu56    2.711   .     S
Cu55   O76     1.980   .     S
Cu55   O69     1.974   .     S
Cu55   O72     1.960   .     S
Cu55   O73     1.996   .     S
Cu56   N68     2.037   .     S
Cu56   O75     1.980   .     S
Cu56   O71     1.960   .     S
Cu56   O70     1.974   .     S
Cu56   O74     1.996   .     S
H57    C88     1.086   .     S
C77    C80     1.454   .     S
C77    O109    1.290   .     A
C77    O107    1.312   .     A
C78    C80     1.402   .     A
C78    I102    2.108   .     S
C78    C319    1.396   1_545 S
C79    C85     1.454   .     S
C79    C91     1.403   .     A
C79    C92     1.402   .     A
C80    C90     1.403   .     A
C81    N106    1.350   .     A
C81    H97     1.082   .     S
C81    C767    1.414   1_554 S
C82    H98     1.082   .     S
C82    N105    1.350   .     A
C82    C426    1.414   .     S
C83    N105    1.390   .     A
C83    I103    2.088   .     S
C83    C423    1.414   .     S
C84    N106    1.390   .     A
C84    I104    2.088   .     S
C84    C766    1.414   1_554 S
C85    O110    1.290   .     A
C85    O108    1.312   .     A
C86    O111    1.306   .     A
C86    C88     1.441   .     S
C86    O113    1.291   .     A
C87    O114    1.291   .     A
C87    C89     1.441   .     S
C87    O112    1.306   .     A
C89    C12     1.325   1_655 S
C89    H20     1.086   1_655 S
C90    I99     2.142   .     S
C90    C320    1.396   1_545 S
C91    I100    2.142   .     S
C91    C192    1.396   .     S
C92    I101    2.108   .     S
C92    C204    1.396   .     S
Cu93   N105    2.037   .     S
Cu93   Cu94    2.711   .     S
Cu93   O114    1.980   .     S
Cu93   O107    1.974   .     S
Cu93   O110    1.960   .     S
Cu93   O111    1.996   .     S
Cu94   N106    2.037   .     S
Cu94   O113    1.980   .     S
Cu94   O109    1.960   .     S
Cu94   O108    1.974   .     S
Cu94   O112    1.996   .     S
H95    C12     1.086   1_655 S
C115   C118    1.454   .     S
C115   O147    1.290   .     A
C115   O145    1.312   .     A
C116   C118    1.402   .     A
C116   I140    2.108   .     S
C117   C123    1.454   .     S
C117   C129    1.403   .     A
C117   C130    1.402   .     A
C118   C128    1.403   .     A
C119   N144    1.350   .     A
C119   H135    1.082   .     S
C119   C805    1.414   1_554 S
C120   H136    1.082   .     S
C120   N143    1.350   .     A
C120   C464    1.414   .     S
C121   N143    1.390   .     A
C121   I141    2.088   .     S
C121   C461    1.414   .     S
C122   N144    1.390   .     A
C122   I142    2.088   .     S
C122   C804    1.414   1_554 S
C123   O148    1.290   .     A
C123   O146    1.312   .     A
C124   O149    1.306   .     A
C124   C126    1.441   .     S
C124   O151    1.291   .     A
C125   O152    1.291   .     A
C125   C127    1.441   .     S
C125   O150    1.306   .     A
C126   C203    1.325   1_455 S
C126   H209    1.086   1_455 S
C127   C164    1.325   .     S
C127   H172    1.086   .     S
C128   I137    2.142   .     S
C129   I138    2.142   .     S
C129   C230    1.396   .     S
C130   I139    2.108   .     S
C130   C242    1.396   .     S
Cu131  N143    2.037   .     S
Cu131  Cu132   2.711   .     S
Cu131  O152    1.980   .     S
Cu131  O145    1.974   .     S
Cu131  O148    1.960   .     S
Cu131  O149    1.996   .     S
Cu132  N144    2.037   .     S
Cu132  O151    1.980   .     S
Cu132  O147    1.960   .     S
Cu132  O146    1.974   .     S
Cu132  O150    1.996   .     S
H133   C164    1.086   .     S
H134   C203    1.086   1_455 S
C153   C156    1.454   .     S
C153   O185    1.290   .     A
C153   O183    1.312   .     A
C154   C156    1.402   .     A
C154   I178    2.108   .     S
C155   C161    1.454   .     S
C155   C167    1.403   .     A
C155   C168    1.402   .     A
C156   C166    1.403   .     A
C157   N182    1.350   .     A
C157   H173    1.082   .     S
C157   C843    1.414   1_554 S
C158   H174    1.082   .     S
C158   N181    1.350   .     A
C158   C502    1.414   .     S
C159   N181    1.390   .     A
C159   I179    2.088   .     S
C159   C499    1.414   .     S
C160   N182    1.390   .     A
C160   I180    2.088   .     S
C160   C842    1.414   1_554 S
C161   O186    1.290   .     A
C161   O184    1.312   .     A
C162   O187    1.306   .     A
C162   C164    1.441   .     S
C162   O189    1.291   .     A
C163   O190    1.291   .     A
C163   C165    1.441   .     S
C163   O188    1.306   .     A
C165   C202    1.325   .     S
C165   H210    1.086   .     S
C166   I175    2.142   .     S
C167   I176    2.142   .     S
C167   C268    1.396   .     S
C168   I177    2.108   .     S
C168   C280    1.396   .     S
Cu169  N181    2.037   .     S
Cu169  Cu170   2.711   .     S
Cu169  O190    1.980   .     S
Cu169  O183    1.974   .     S
Cu169  O186    1.960   .     S
Cu169  O187    1.996   .     S
Cu170  N182    2.037   .     S
Cu170  O189    1.980   .     S
Cu170  O185    1.960   .     S
Cu170  O184    1.974   .     S
Cu170  O188    1.996   .     S
H171   C202    1.086   .     S
C191   C194    1.454   .     S
C191   O223    1.290   .     A
C191   O221    1.312   .     A
C192   C194    1.402   .     A
C192   I216    2.108   .     S
C193   C199    1.454   .     S
C193   C205    1.403   .     A
C193   C206    1.402   .     A
C194   C204    1.403   .     A
C195   N220    1.350   .     A
C195   H211    1.082   .     S
C195   C881    1.414   1_554 S
C196   H212    1.082   .     S
C196   N219    1.350   .     A
C196   C540    1.414   .     S
C197   N219    1.390   .     A
C197   I217    2.088   .     S
C197   C537    1.414   .     S
C198   N220    1.390   .     A
C198   I218    2.088   .     S
C198   C880    1.414   1_554 S
C199   O224    1.290   .     A
C199   O222    1.312   .     A
C200   O225    1.306   .     A
C200   C202    1.441   .     S
C200   O227    1.291   .     A
C201   O228    1.291   .     A
C201   C203    1.441   .     S
C201   O226    1.306   .     A
C203   C126    1.325   1_655 S
C203   H134    1.086   1_655 S
C204   I213    2.142   .     S
C205   I214    2.142   .     S
C205   C306    1.396   .     S
C206   I215    2.108   .     S
C206   C318    1.396   .     S
Cu207  N219    2.037   .     S
Cu207  Cu208   2.711   .     S
Cu207  O228    1.980   .     S
Cu207  O221    1.974   .     S
Cu207  O224    1.960   .     S
Cu207  O225    1.996   .     S
Cu208  N220    2.037   .     S
Cu208  O227    1.980   .     S
Cu208  O223    1.960   .     S
Cu208  O222    1.974   .     S
Cu208  O226    1.996   .     S
H209   C126    1.086   1_655 S
C229   C232    1.454   .     S
C229   O261    1.290   .     A
C229   O259    1.312   .     A
C230   C232    1.402   .     A
C230   I254    2.108   .     S
C231   C237    1.454   .     S
C231   C243    1.403   .     A
C231   C244    1.402   .     A
C232   C242    1.403   .     A
C233   N258    1.350   .     A
C233   H249    1.082   .     S
C233   C919    1.414   1_554 S
C234   H250    1.082   .     S
C234   N257    1.350   .     A
C234   C578    1.414   .     S
C235   N257    1.390   .     A
C235   I255    2.088   .     S
C235   C575    1.414   .     S
C236   N258    1.390   .     A
C236   I256    2.088   .     S
C236   C918    1.414   1_554 S
C237   O262    1.290   .     A
C237   O260    1.312   .     A
C238   O263    1.306   .     A
C238   C240    1.441   .     S
C238   O265    1.291   .     A
C239   O266    1.291   .     A
C239   C241    1.441   .     S
C239   O264    1.306   .     A
C240   C317    1.325   1_455 S
C240   H323    1.086   1_455 S
C241   C278    1.325   .     S
C241   H286    1.086   .     S
C242   I251    2.142   .     S
C243   I252    2.142   .     S
C243   C2      1.396   1_565 S
C244   I253    2.108   .     S
C244   C14     1.396   1_565 S
Cu245  N257    2.037   .     S
Cu245  Cu246   2.711   .     S
Cu245  O266    1.980   .     S
Cu245  O259    1.974   .     S
Cu245  O262    1.960   .     S
Cu245  O263    1.996   .     S
Cu246  N258    2.037   .     S
Cu246  O265    1.980   .     S
Cu246  O261    1.960   .     S
Cu246  O260    1.974   .     S
Cu246  O264    1.996   .     S
H247   C278    1.086   .     S
H248   C317    1.086   1_455 S
C267   C270    1.454   .     S
C267   O299    1.290   .     A
C267   O297    1.312   .     A
C268   C270    1.402   .     A
C268   I292    2.108   .     S
C269   C275    1.454   .     S
C269   C281    1.403   .     A
C269   C282    1.402   .     A
C270   C280    1.403   .     A
C271   N296    1.350   .     A
C271   H287    1.082   .     S
C271   C957    1.414   1_554 S
C272   H288    1.082   .     S
C272   N295    1.350   .     A
C272   C616    1.414   .     S
C273   N295    1.390   .     A
C273   I293    2.088   .     S
C273   C613    1.414   .     S
C274   N296    1.390   .     A
C274   I294    2.088   .     S
C274   C956    1.414   1_554 S
C275   O300    1.290   .     A
C275   O298    1.312   .     A
C276   O301    1.306   .     A
C276   C278    1.441   .     S
C276   O303    1.291   .     A
C277   O304    1.291   .     A
C277   C279    1.441   .     S
C277   O302    1.306   .     A
C279   C316    1.325   .     S
C279   H324    1.086   .     S
C280   I289    2.142   .     S
C281   I290    2.142   .     S
C281   C40     1.396   1_565 S
C282   I291    2.108   .     S
C282   C52     1.396   1_565 S
Cu283  N295    2.037   .     S
Cu283  Cu284   2.711   .     S
Cu283  O304    1.980   .     S
Cu283  O297    1.974   .     S
Cu283  O300    1.960   .     S
Cu283  O301    1.996   .     S
Cu284  N296    2.037   .     S
Cu284  O303    1.980   .     S
Cu284  O299    1.960   .     S
Cu284  O298    1.974   .     S
Cu284  O302    1.996   .     S
H285   C316    1.086   .     S
C305   C308    1.454   .     S
C305   O337    1.290   .     A
C305   O335    1.312   .     A
C306   C308    1.402   .     A
C306   I330    2.108   .     S
C307   C313    1.454   .     S
C307   C319    1.403   .     A
C307   C320    1.402   .     A
C308   C318    1.403   .     A
C309   N334    1.350   .     A
C309   H325    1.082   .     S
C309   C995    1.414   1_554 S
C310   H326    1.082   .     S
C310   N333    1.350   .     A
C310   C654    1.414   .     S
C311   N333    1.390   .     A
C311   I331    2.088   .     S
C311   C651    1.414   .     S
C312   N334    1.390   .     A
C312   I332    2.088   .     S
C312   C994    1.414   1_554 S
C313   O338    1.290   .     A
C313   O336    1.312   .     A
C314   O339    1.306   .     A
C314   C316    1.441   .     S
C314   O341    1.291   .     A
C315   O342    1.291   .     A
C315   C317    1.441   .     S
C315   O340    1.306   .     A
C317   C240    1.325   1_655 S
C317   H248    1.086   1_655 S
C318   I327    2.142   .     S
C319   I328    2.142   .     S
C319   C78     1.396   1_565 S
C320   I329    2.108   .     S
C320   C90     1.396   1_565 S
Cu321  N333    2.037   .     S
Cu321  Cu322   2.711   .     S
Cu321  O342    1.980   .     S
Cu321  O335    1.974   .     S
Cu321  O338    1.960   .     S
Cu321  O339    1.996   .     S
Cu322  N334    2.037   .     S
Cu322  O341    1.980   .     S
Cu322  O337    1.960   .     S
Cu322  O336    1.974   .     S
Cu322  O340    1.996   .     S
H323   C240    1.086   1_655 S
C343   C346    1.454   .     S
C343   O375    1.290   .     A
C343   O373    1.312   .     A
C344   C346    1.402   .     A
C344   I368    2.108   .     S
C344   C585    1.396   1_545 S
C345   C351    1.454   .     S
C345   C357    1.403   .     A
C345   C358    1.402   .     A
C346   C356    1.403   .     A
C347   N372    1.350   .     A
C347   H363    1.082   .     S
C348   H364    1.082   .     S
C348   N371    1.350   .     A
C348   C692    1.414   .     S
C349   N371    1.390   .     A
C349   I369    2.088   .     S
C349   C689    1.414   .     S
C350   N372    1.390   .     A
C350   I370    2.088   .     S
C351   O376    1.290   .     A
C351   O374    1.312   .     A
C352   O377    1.306   .     A
C352   C354    1.441   .     S
C352   O379    1.291   .     A
C353   O380    1.291   .     A
C353   C355    1.441   .     S
C353   O378    1.306   .     A
C354   C431    1.325   1_455 S
C354   H437    1.086   1_455 S
C355   C392    1.325   .     S
C355   H400    1.086   .     S
C356   I365    2.142   .     S
C356   C586    1.396   1_545 S
C357   I366    2.142   .     S
C357   C458    1.396   .     S
C358   I367    2.108   .     S
C358   C470    1.396   .     S
Cu359  N371    2.037   .     S
Cu359  Cu360   2.711   .     S
Cu359  O380    1.980   .     S
Cu359  O373    1.974   .     S
Cu359  O376    1.960   .     S
Cu359  O377    1.996   .     S
Cu360  N372    2.037   .     S
Cu360  O379    1.980   .     S
Cu360  O375    1.960   .     S
Cu360  O374    1.974   .     S
Cu360  O378    1.996   .     S
H361   C392    1.086   .     S
H362   C431    1.086   1_455 S
C381   C384    1.454   .     S
C381   O413    1.290   .     A
C381   O411    1.312   .     A
C382   C384    1.402   .     A
C382   I406    2.108   .     S
C382   C623    1.396   1_545 S
C383   C389    1.454   .     S
C383   C395    1.403   .     A
C383   C396    1.402   .     A
C384   C394    1.403   .     A
C385   N410    1.350   .     A
C385   H401    1.082   .     S
C386   H402    1.082   .     S
C386   N409    1.350   .     A
C386   C730    1.414   .     S
C387   N409    1.390   .     A
C387   I407    2.088   .     S
C387   C727    1.414   .     S
C388   N410    1.390   .     A
C388   I408    2.088   .     S
C389   O414    1.290   .     A
C389   O412    1.312   .     A
C390   O415    1.306   .     A
C390   C392    1.441   .     S
C390   O417    1.291   .     A
C391   O418    1.291   .     A
C391   C393    1.441   .     S
C391   O416    1.306   .     A
C393   C430    1.325   .     S
C393   H438    1.086   .     S
C394   I403    2.142   .     S
C394   C624    1.396   1_545 S
C395   I404    2.142   .     S
C395   C496    1.396   .     S
C396   I405    2.108   .     S
C396   C508    1.396   .     S
Cu397  N409    2.037   .     S
Cu397  Cu398   2.711   .     S
Cu397  O418    1.980   .     S
Cu397  O411    1.974   .     S
Cu397  O414    1.960   .     S
Cu397  O415    1.996   .     S
Cu398  N410    2.037   .     S
Cu398  O417    1.980   .     S
Cu398  O413    1.960   .     S
Cu398  O412    1.974   .     S
Cu398  O416    1.996   .     S
H399   C430    1.086   .     S
C419   C422    1.454   .     S
C419   O451    1.290   .     A
C419   O449    1.312   .     A
C420   C422    1.402   .     A
C420   I444    2.108   .     S
C420   C661    1.396   1_545 S
C421   C427    1.454   .     S
C421   C433    1.403   .     A
C421   C434    1.402   .     A
C422   C432    1.403   .     A
C423   N448    1.350   .     A
C423   H439    1.082   .     S
C424   H440    1.082   .     S
C424   N447    1.350   .     A
C424   C768    1.414   .     S
C425   N447    1.390   .     A
C425   I445    2.088   .     S
C425   C765    1.414   .     S
C426   N448    1.390   .     A
C426   I446    2.088   .     S
C427   O452    1.290   .     A
C427   O450    1.312   .     A
C428   O453    1.306   .     A
C428   C430    1.441   .     S
C428   O455    1.291   .     A
C429   O456    1.291   .     A
C429   C431    1.441   .     S
C429   O454    1.306   .     A
C431   C354    1.325   1_655 S
C431   H362    1.086   1_655 S
C432   I441    2.142   .     S
C432   C662    1.396   1_545 S
C433   I442    2.142   .     S
C433   C534    1.396   .     S
C434   I443    2.108   .     S
C434   C546    1.396   .     S
Cu435  N447    2.037   .     S
Cu435  Cu436   2.711   .     S
Cu435  O456    1.980   .     S
Cu435  O449    1.974   .     S
Cu435  O452    1.960   .     S
Cu435  O453    1.996   .     S
Cu436  N448    2.037   .     S
Cu436  O455    1.980   .     S
Cu436  O451    1.960   .     S
Cu436  O450    1.974   .     S
Cu436  O454    1.996   .     S
H437   C354    1.086   1_655 S
C457   C460    1.454   .     S
C457   O489    1.290   .     A
C457   O487    1.312   .     A
C458   C460    1.402   .     A
C458   I482    2.108   .     S
C459   C465    1.454   .     S
C459   C471    1.403   .     A
C459   C472    1.402   .     A
C460   C470    1.403   .     A
C461   N486    1.350   .     A
C461   H477    1.082   .     S
C462   H478    1.082   .     S
C462   N485    1.350   .     A
C462   C806    1.414   .     S
C463   N485    1.390   .     A
C463   I483    2.088   .     S
C463   C803    1.414   .     S
C464   N486    1.390   .     A
C464   I484    2.088   .     S
C465   O490    1.290   .     A
C465   O488    1.312   .     A
C466   O491    1.306   .     A
C466   C468    1.441   .     S
C466   O493    1.291   .     A
C467   O494    1.291   .     A
C467   C469    1.441   .     S
C467   O492    1.306   .     A
C468   C545    1.325   1_455 S
C468   H551    1.086   1_455 S
C469   C506    1.325   .     S
C469   H514    1.086   .     S
C470   I479    2.142   .     S
C471   I480    2.142   .     S
C471   C572    1.396   .     S
C472   I481    2.108   .     S
C472   C584    1.396   .     S
Cu473  N485    2.037   .     S
Cu473  Cu474   2.711   .     S
Cu473  O494    1.980   .     S
Cu473  O487    1.974   .     S
Cu473  O490    1.960   .     S
Cu473  O491    1.996   .     S
Cu474  N486    2.037   .     S
Cu474  O493    1.980   .     S
Cu474  O489    1.960   .     S
Cu474  O488    1.974   .     S
Cu474  O492    1.996   .     S
H475   C506    1.086   .     S
H476   C545    1.086   1_455 S
C495   C498    1.454   .     S
C495   O527    1.290   .     A
C495   O525    1.312   .     A
C496   C498    1.402   .     A
C496   I520    2.108   .     S
C497   C503    1.454   .     S
C497   C509    1.403   .     A
C497   C510    1.402   .     A
C498   C508    1.403   .     A
C499   N524    1.350   .     A
C499   H515    1.082   .     S
C500   H516    1.082   .     S
C500   N523    1.350   .     A
C500   C844    1.414   .     S
C501   N523    1.390   .     A
C501   I521    2.088   .     S
C501   C841    1.414   .     S
C502   N524    1.390   .     A
C502   I522    2.088   .     S
C503   O528    1.290   .     A
C503   O526    1.312   .     A
C504   O529    1.306   .     A
C504   C506    1.441   .     S
C504   O531    1.291   .     A
C505   O532    1.291   .     A
C505   C507    1.441   .     S
C505   O530    1.306   .     A
C507   C544    1.325   .     S
C507   H552    1.086   .     S
C508   I517    2.142   .     S
C509   I518    2.142   .     S
C509   C610    1.396   .     S
C510   I519    2.108   .     S
C510   C622    1.396   .     S
Cu511  N523    2.037   .     S
Cu511  Cu512   2.711   .     S
Cu511  O532    1.980   .     S
Cu511  O525    1.974   .     S
Cu511  O528    1.960   .     S
Cu511  O529    1.996   .     S
Cu512  N524    2.037   .     S
Cu512  O531    1.980   .     S
Cu512  O527    1.960   .     S
Cu512  O526    1.974   .     S
Cu512  O530    1.996   .     S
H513   C544    1.086   .     S
C533   C536    1.454   .     S
C533   O565    1.290   .     A
C533   O563    1.312   .     A
C534   C536    1.402   .     A
C534   I558    2.108   .     S
C535   C541    1.454   .     S
C535   C547    1.403   .     A
C535   C548    1.402   .     A
C536   C546    1.403   .     A
C537   N562    1.350   .     A
C537   H553    1.082   .     S
C538   H554    1.082   .     S
C538   N561    1.350   .     A
C538   C882    1.414   .     S
C539   N561    1.390   .     A
C539   I559    2.088   .     S
C539   C879    1.414   .     S
C540   N562    1.390   .     A
C540   I560    2.088   .     S
C541   O566    1.290   .     A
C541   O564    1.312   .     A
C542   O567    1.306   .     A
C542   C544    1.441   .     S
C542   O569    1.291   .     A
C543   O570    1.291   .     A
C543   C545    1.441   .     S
C543   O568    1.306   .     A
C545   C468    1.325   1_655 S
C545   H476    1.086   1_655 S
C546   I555    2.142   .     S
C547   I556    2.142   .     S
C547   C648    1.396   .     S
C548   I557    2.108   .     S
C548   C660    1.396   .     S
Cu549  N561    2.037   .     S
Cu549  Cu550   2.711   .     S
Cu549  O570    1.980   .     S
Cu549  O563    1.974   .     S
Cu549  O566    1.960   .     S
Cu549  O567    1.996   .     S
Cu550  N562    2.037   .     S
Cu550  O569    1.980   .     S
Cu550  O565    1.960   .     S
Cu550  O564    1.974   .     S
Cu550  O568    1.996   .     S
H551   C468    1.086   1_655 S
C571   C574    1.454   .     S
C571   O603    1.290   .     A
C571   O601    1.312   .     A
C572   C574    1.402   .     A
C572   I596    2.108   .     S
C573   C579    1.454   .     S
C573   C585    1.403   .     A
C573   C586    1.402   .     A
C574   C584    1.403   .     A
C575   N600    1.350   .     A
C575   H591    1.082   .     S
C576   H592    1.082   .     S
C576   N599    1.350   .     A
C576   C920    1.414   .     S
C577   N599    1.390   .     A
C577   I597    2.088   .     S
C577   C917    1.414   .     S
C578   N600    1.390   .     A
C578   I598    2.088   .     S
C579   O604    1.290   .     A
C579   O602    1.312   .     A
C580   O605    1.306   .     A
C580   C582    1.441   .     S
C580   O607    1.291   .     A
C581   O608    1.291   .     A
C581   C583    1.441   .     S
C581   O606    1.306   .     A
C582   C659    1.325   1_455 S
C582   H665    1.086   1_455 S
C583   C620    1.325   .     S
C583   H628    1.086   .     S
C584   I593    2.142   .     S
C585   I594    2.142   .     S
C585   C344    1.396   1_565 S
C586   I595    2.108   .     S
C586   C356    1.396   1_565 S
Cu587  N599    2.037   .     S
Cu587  Cu588   2.711   .     S
Cu587  O608    1.980   .     S
Cu587  O601    1.974   .     S
Cu587  O604    1.960   .     S
Cu587  O605    1.996   .     S
Cu588  N600    2.037   .     S
Cu588  O607    1.980   .     S
Cu588  O603    1.960   .     S
Cu588  O602    1.974   .     S
Cu588  O606    1.996   .     S
H589   C620    1.086   .     S
H590   C659    1.086   1_455 S
C609   C612    1.454   .     S
C609   O641    1.290   .     A
C609   O639    1.312   .     A
C610   C612    1.402   .     A
C610   I634    2.108   .     S
C611   C617    1.454   .     S
C611   C623    1.403   .     A
C611   C624    1.402   .     A
C612   C622    1.403   .     A
C613   N638    1.350   .     A
C613   H629    1.082   .     S
C614   H630    1.082   .     S
C614   N637    1.350   .     A
C614   C958    1.414   .     S
C615   N637    1.390   .     A
C615   I635    2.088   .     S
C615   C955    1.414   .     S
C616   N638    1.390   .     A
C616   I636    2.088   .     S
C617   O642    1.290   .     A
C617   O640    1.312   .     A
C618   O643    1.306   .     A
C618   C620    1.441   .     S
C618   O645    1.291   .     A
C619   O646    1.291   .     A
C619   C621    1.441   .     S
C619   O644    1.306   .     A
C621   C658    1.325   .     S
C621   H666    1.086   .     S
C622   I631    2.142   .     S
C623   I632    2.142   .     S
C623   C382    1.396   1_565 S
C624   I633    2.108   .     S
C624   C394    1.396   1_565 S
Cu625  N637    2.037   .     S
Cu625  Cu626   2.711   .     S
Cu625  O646    1.980   .     S
Cu625  O639    1.974   .     S
Cu625  O642    1.960   .     S
Cu625  O643    1.996   .     S
Cu626  N638    2.037   .     S
Cu626  O645    1.980   .     S
Cu626  O641    1.960   .     S
Cu626  O640    1.974   .     S
Cu626  O644    1.996   .     S
H627   C658    1.086   .     S
C647   C650    1.454   .     S
C647   O679    1.290   .     A
C647   O677    1.312   .     A
C648   C650    1.402   .     A
C648   I672    2.108   .     S
C649   C655    1.454   .     S
C649   C661    1.403   .     A
C649   C662    1.402   .     A
C650   C660    1.403   .     A
C651   N676    1.350   .     A
C651   H667    1.082   .     S
C652   H668    1.082   .     S
C652   N675    1.350   .     A
C652   C996    1.414   .     S
C653   N675    1.390   .     A
C653   I673    2.088   .     S
C653   C993    1.414   .     S
C654   N676    1.390   .     A
C654   I674    2.088   .     S
C655   O680    1.290   .     A
C655   O678    1.312   .     A
C656   O681    1.306   .     A
C656   C658    1.441   .     S
C656   O683    1.291   .     A
C657   O684    1.291   .     A
C657   C659    1.441   .     S
C657   O682    1.306   .     A
C659   C582    1.325   1_655 S
C659   H590    1.086   1_655 S
C660   I669    2.142   .     S
C661   I670    2.142   .     S
C661   C420    1.396   1_565 S
C662   I671    2.108   .     S
C662   C432    1.396   1_565 S
Cu663  N675    2.037   .     S
Cu663  Cu664   2.711   .     S
Cu663  O684    1.980   .     S
Cu663  O677    1.974   .     S
Cu663  O680    1.960   .     S
Cu663  O681    1.996   .     S
Cu664  N676    2.037   .     S
Cu664  O683    1.980   .     S
Cu664  O679    1.960   .     S
Cu664  O678    1.974   .     S
Cu664  O682    1.996   .     S
H665   C582    1.086   1_655 S
C685   C688    1.454   .     S
C685   O717    1.290   .     A
C685   O715    1.312   .     A
C686   C688    1.402   .     A
C686   I710    2.108   .     S
C686   C927    1.396   1_545 S
C687   C693    1.454   .     S
C687   C699    1.403   .     A
C687   C700    1.402   .     A
C688   C698    1.403   .     A
C689   N714    1.350   .     A
C689   H705    1.082   .     S
C690   H706    1.082   .     S
C690   N713    1.350   .     A
C690   C8      1.414   1_556 S
C691   N713    1.390   .     A
C691   I711    2.088   .     S
C691   C5      1.414   1_556 S
C692   N714    1.390   .     A
C692   I712    2.088   .     S
C693   O718    1.290   .     A
C693   O716    1.312   .     A
C694   O719    1.306   .     A
C694   C696    1.441   .     S
C694   O721    1.291   .     A
C695   O722    1.291   .     A
C695   C697    1.441   .     S
C695   O720    1.306   .     A
C696   C773    1.325   1_455 S
C696   H779    1.086   1_455 S
C697   C734    1.325   .     S
C697   H742    1.086   .     S
C698   I707    2.142   .     S
C698   C928    1.396   1_545 S
C699   I708    2.142   .     S
C699   C800    1.396   .     S
C700   I709    2.108   .     S
C700   C812    1.396   .     S
Cu701  N713    2.037   .     S
Cu701  Cu702   2.711   .     S
Cu701  O722    1.980   .     S
Cu701  O715    1.974   .     S
Cu701  O718    1.960   .     S
Cu701  O719    1.996   .     S
Cu702  N714    2.037   .     S
Cu702  O721    1.980   .     S
Cu702  O717    1.960   .     S
Cu702  O716    1.974   .     S
Cu702  O720    1.996   .     S
H703   C734    1.086   .     S
H704   C773    1.086   1_455 S
C723   C726    1.454   .     S
C723   O755    1.290   .     A
C723   O753    1.312   .     A
C724   C726    1.402   .     A
C724   I748    2.108   .     S
C724   C965    1.396   1_545 S
C725   C731    1.454   .     S
C725   C737    1.403   .     A
C725   C738    1.402   .     A
C726   C736    1.403   .     A
C727   N752    1.350   .     A
C727   H743    1.082   .     S
C728   H744    1.082   .     S
C728   N751    1.350   .     A
C728   C46     1.414   1_556 S
C729   N751    1.390   .     A
C729   I749    2.088   .     S
C729   C43     1.414   1_556 S
C730   N752    1.390   .     A
C730   I750    2.088   .     S
C731   O756    1.290   .     A
C731   O754    1.312   .     A
C732   O757    1.306   .     A
C732   C734    1.441   .     S
C732   O759    1.291   .     A
C733   O760    1.291   .     A
C733   C735    1.441   .     S
C733   O758    1.306   .     A
C735   C772    1.325   .     S
C735   H780    1.086   .     S
C736   I745    2.142   .     S
C736   C966    1.396   1_545 S
C737   I746    2.142   .     S
C737   C838    1.396   .     S
C738   I747    2.108   .     S
C738   C850    1.396   .     S
Cu739  N751    2.037   .     S
Cu739  Cu740   2.711   .     S
Cu739  O760    1.980   .     S
Cu739  O753    1.974   .     S
Cu739  O756    1.960   .     S
Cu739  O757    1.996   .     S
Cu740  N752    2.037   .     S
Cu740  O759    1.980   .     S
Cu740  O755    1.960   .     S
Cu740  O754    1.974   .     S
Cu740  O758    1.996   .     S
H741   C772    1.086   .     S
C761   C764    1.454   .     S
C761   O793    1.290   .     A
C761   O791    1.312   .     A
C762   C764    1.402   .     A
C762   I786    2.108   .     S
C762   C1003   1.396   1_545 S
C763   C769    1.454   .     S
C763   C775    1.403   .     A
C763   C776    1.402   .     A
C764   C774    1.403   .     A
C765   N790    1.350   .     A
C765   H781    1.082   .     S
C766   H782    1.082   .     S
C766   N789    1.350   .     A
C766   C84     1.414   1_556 S
C767   N789    1.390   .     A
C767   I787    2.088   .     S
C767   C81     1.414   1_556 S
C768   N790    1.390   .     A
C768   I788    2.088   .     S
C769   O794    1.290   .     A
C769   O792    1.312   .     A
C770   O795    1.306   .     A
C770   C772    1.441   .     S
C770   O797    1.291   .     A
C771   O798    1.291   .     A
C771   C773    1.441   .     S
C771   O796    1.306   .     A
C773   C696    1.325   1_655 S
C773   H704    1.086   1_655 S
C774   I783    2.142   .     S
C774   C1004   1.396   1_545 S
C775   I784    2.142   .     S
C775   C876    1.396   .     S
C776   I785    2.108   .     S
C776   C888    1.396   .     S
Cu777  N789    2.037   .     S
Cu777  Cu778   2.711   .     S
Cu777  O798    1.980   .     S
Cu777  O791    1.974   .     S
Cu777  O794    1.960   .     S
Cu777  O795    1.996   .     S
Cu778  N790    2.037   .     S
Cu778  O797    1.980   .     S
Cu778  O793    1.960   .     S
Cu778  O792    1.974   .     S
Cu778  O796    1.996   .     S
H779   C696    1.086   1_655 S
C799   C802    1.454   .     S
C799   O831    1.290   .     A
C799   O829    1.312   .     A
C800   C802    1.402   .     A
C800   I824    2.108   .     S
C801   C807    1.454   .     S
C801   C813    1.403   .     A
C801   C814    1.402   .     A
C802   C812    1.403   .     A
C803   N828    1.350   .     A
C803   H819    1.082   .     S
C804   H820    1.082   .     S
C804   N827    1.350   .     A
C804   C122    1.414   1_556 S
C805   N827    1.390   .     A
C805   I825    2.088   .     S
C805   C119    1.414   1_556 S
C806   N828    1.390   .     A
C806   I826    2.088   .     S
C807   O832    1.290   .     A
C807   O830    1.312   .     A
C808   O833    1.306   .     A
C808   C810    1.441   .     S
C808   O835    1.291   .     A
C809   O836    1.291   .     A
C809   C811    1.441   .     S
C809   O834    1.306   .     A
C810   C887    1.325   1_455 S
C810   H893    1.086   1_455 S
C811   C848    1.325   .     S
C811   H856    1.086   .     S
C812   I821    2.142   .     S
C813   I822    2.142   .     S
C813   C914    1.396   .     S
C814   I823    2.108   .     S
C814   C926    1.396   .     S
Cu815  N827    2.037   .     S
Cu815  Cu816   2.711   .     S
Cu815  O836    1.980   .     S
Cu815  O829    1.974   .     S
Cu815  O832    1.960   .     S
Cu815  O833    1.996   .     S
Cu816  N828    2.037   .     S
Cu816  O835    1.980   .     S
Cu816  O831    1.960   .     S
Cu816  O830    1.974   .     S
Cu816  O834    1.996   .     S
H817   C848    1.086   .     S
H818   C887    1.086   1_455 S
C837   C840    1.454   .     S
C837   O869    1.290   .     A
C837   O867    1.312   .     A
C838   C840    1.402   .     A
C838   I862    2.108   .     S
C839   C845    1.454   .     S
C839   C851    1.403   .     A
C839   C852    1.402   .     A
C840   C850    1.403   .     A
C841   N866    1.350   .     A
C841   H857    1.082   .     S
C842   H858    1.082   .     S
C842   N865    1.350   .     A
C842   C160    1.414   1_556 S
C843   N865    1.390   .     A
C843   I863    2.088   .     S
C843   C157    1.414   1_556 S
C844   N866    1.390   .     A
C844   I864    2.088   .     S
C845   O870    1.290   .     A
C845   O868    1.312   .     A
C846   O871    1.306   .     A
C846   C848    1.441   .     S
C846   O873    1.291   .     A
C847   O874    1.291   .     A
C847   C849    1.441   .     S
C847   O872    1.306   .     A
C849   C886    1.325   .     S
C849   H894    1.086   .     S
C850   I859    2.142   .     S
C851   I860    2.142   .     S
C851   C952    1.396   .     S
C852   I861    2.108   .     S
C852   C964    1.396   .     S
Cu853  N865    2.037   .     S
Cu853  Cu854   2.711   .     S
Cu853  O874    1.980   .     S
Cu853  O867    1.974   .     S
Cu853  O870    1.960   .     S
Cu853  O871    1.996   .     S
Cu854  N866    2.037   .     S
Cu854  O873    1.980   .     S
Cu854  O869    1.960   .     S
Cu854  O868    1.974   .     S
Cu854  O872    1.996   .     S
H855   C886    1.086   .     S
C875   C878    1.454   .     S
C875   O907    1.290   .     A
C875   O905    1.312   .     A
C876   C878    1.402   .     A
C876   I900    2.108   .     S
C877   C883    1.454   .     S
C877   C889    1.403   .     A
C877   C890    1.402   .     A
C878   C888    1.403   .     A
C879   N904    1.350   .     A
C879   H895    1.082   .     S
C880   H896    1.082   .     S
C880   N903    1.350   .     A
C880   C198    1.414   1_556 S
C881   N903    1.390   .     A
C881   I901    2.088   .     S
C881   C195    1.414   1_556 S
C882   N904    1.390   .     A
C882   I902    2.088   .     S
C883   O908    1.290   .     A
C883   O906    1.312   .     A
C884   O909    1.306   .     A
C884   C886    1.441   .     S
C884   O911    1.291   .     A
C885   O912    1.291   .     A
C885   C887    1.441   .     S
C885   O910    1.306   .     A
C887   C810    1.325   1_655 S
C887   H818    1.086   1_655 S
C888   I897    2.142   .     S
C889   I898    2.142   .     S
C889   C990    1.396   .     S
C890   I899    2.108   .     S
C890   C1002   1.396   .     S
Cu891  N903    2.037   .     S
Cu891  Cu892   2.711   .     S
Cu891  O912    1.980   .     S
Cu891  O905    1.974   .     S
Cu891  O908    1.960   .     S
Cu891  O909    1.996   .     S
Cu892  N904    2.037   .     S
Cu892  O911    1.980   .     S
Cu892  O907    1.960   .     S
Cu892  O906    1.974   .     S
Cu892  O910    1.996   .     S
H893   C810    1.086   1_655 S
C913   C916    1.454   .     S
C913   O945    1.290   .     A
C913   O943    1.312   .     A
C914   C916    1.402   .     A
C914   I938    2.108   .     S
C915   C921    1.454   .     S
C915   C927    1.403   .     A
C915   C928    1.402   .     A
C916   C926    1.403   .     A
C917   N942    1.350   .     A
C917   H933    1.082   .     S
C918   H934    1.082   .     S
C918   N941    1.350   .     A
C918   C236    1.414   1_556 S
C919   N941    1.390   .     A
C919   I939    2.088   .     S
C919   C233    1.414   1_556 S
C920   N942    1.390   .     A
C920   I940    2.088   .     S
C921   O946    1.290   .     A
C921   O944    1.312   .     A
C922   O947    1.306   .     A
C922   C924    1.441   .     S
C922   O949    1.291   .     A
C923   O950    1.291   .     A
C923   C925    1.441   .     S
C923   O948    1.306   .     A
C924   C1001   1.325   1_455 S
C924   H1007   1.086   1_455 S
C925   C962    1.325   .     S
C925   H970    1.086   .     S
C926   I935    2.142   .     S
C927   I936    2.142   .     S
C927   C686    1.396   1_565 S
C928   I937    2.108   .     S
C928   C698    1.396   1_565 S
Cu929  N941    2.037   .     S
Cu929  Cu930   2.711   .     S
Cu929  O950    1.980   .     S
Cu929  O943    1.974   .     S
Cu929  O946    1.960   .     S
Cu929  O947    1.996   .     S
Cu930  N942    2.037   .     S
Cu930  O949    1.980   .     S
Cu930  O945    1.960   .     S
Cu930  O944    1.974   .     S
Cu930  O948    1.996   .     S
H931   C962    1.086   .     S
H932   C1001   1.086   1_455 S
C951   C954    1.454   .     S
C951   O983    1.290   .     A
C951   O981    1.312   .     A
C952   C954    1.402   .     A
C952   I976    2.108   .     S
C953   C959    1.454   .     S
C953   C965    1.403   .     A
C953   C966    1.402   .     A
C954   C964    1.403   .     A
C955   N980    1.350   .     A
C955   H971    1.082   .     S
C956   H972    1.082   .     S
C956   N979    1.350   .     A
C956   C274    1.414   1_556 S
C957   N979    1.390   .     A
C957   I977    2.088   .     S
C957   C271    1.414   1_556 S
C958   N980    1.390   .     A
C958   I978    2.088   .     S
C959   O984    1.290   .     A
C959   O982    1.312   .     A
C960   O985    1.306   .     A
C960   C962    1.441   .     S
C960   O987    1.291   .     A
C961   O988    1.291   .     A
C961   C963    1.441   .     S
C961   O986    1.306   .     A
C963   C1000   1.325   .     S
C963   H1008   1.086   .     S
C964   I973    2.142   .     S
C965   I974    2.142   .     S
C965   C724    1.396   1_565 S
C966   I975    2.108   .     S
C966   C736    1.396   1_565 S
Cu967  N979    2.037   .     S
Cu967  Cu968   2.711   .     S
Cu967  O988    1.980   .     S
Cu967  O981    1.974   .     S
Cu967  O984    1.960   .     S
Cu967  O985    1.996   .     S
Cu968  N980    2.037   .     S
Cu968  O987    1.980   .     S
Cu968  O983    1.960   .     S
Cu968  O982    1.974   .     S
Cu968  O986    1.996   .     S
H969   C1000   1.086   .     S
C989   C992    1.454   .     S
C989   O1021   1.290   .     A
C989   O1019   1.312   .     A
C990   C992    1.402   .     A
C990   I1014   2.108   .     S
C991   C997    1.454   .     S
C991   C1003   1.403   .     A
C991   C1004   1.402   .     A
C992   C1002   1.403   .     A
C993   N1018   1.350   .     A
C993   H1009   1.082   .     S
C994   H1010   1.082   .     S
C994   N1017   1.350   .     A
C994   C312    1.414   1_556 S
C995   N1017   1.390   .     A
C995   I1015   2.088   .     S
C995   C309    1.414   1_556 S
C996   N1018   1.390   .     A
C996   I1016   2.088   .     S
C997   O1022   1.290   .     A
C997   O1020   1.312   .     A
C998   O1023   1.306   .     A
C998   C1000   1.441   .     S
C998   O1025   1.291   .     A
C999   O1026   1.291   .     A
C999   C1001   1.441   .     S
C999   O1024   1.306   .     A
C1001  C924    1.325   1_655 S
C1001  H932    1.086   1_655 S
C1002  I1011   2.142   .     S
C1003  I1012   2.142   .     S
C1003  C762    1.396   1_565 S
C1004  I1013   2.108   .     S
C1004  C774    1.396   1_565 S
Cu1005 N1017   2.037   .     S
Cu1005 Cu1006  2.711   .     S
Cu1005 O1026   1.980   .     S
Cu1005 O1019   1.974   .     S
Cu1005 O1022   1.960   .     S
Cu1005 O1023   1.996   .     S
Cu1006 N1018   2.037   .     S
Cu1006 O1025   1.980   .     S
Cu1006 O1021   1.960   .     S
Cu1006 O1020   1.974   .     S
Cu1006 O1024   1.996   .     S
H1007  C924    1.086   1_655 S
