data_str_m2_o1_o18_pcu_sym.45
_audit_creation_date              2020-01-03
_audit_creation_method            'Materials Studio'
_symmetry_space_group_name_H-M    'P1'
_symmetry_Int_Tables_number       1
_symmetry_cell_setting            triclinic
loop_
_symmetry_equiv_pos_as_xyz
  x,y,z
_cell_length_a                    28.7467
_cell_length_b                    32.4104
_cell_length_c                    31.1087
_cell_angle_alpha                 88.3559
_cell_angle_beta                  73.3901
_cell_angle_gamma                 90.6271
loop_
_atom_site_label
_atom_site_type_symbol
_atom_site_fract_x
_atom_site_fract_y
_atom_site_fract_z
_atom_site_U_iso_or_equiv
_atom_site_adp_type
_atom_site_occupancy
O1     O     0.03958   0.10655   0.25000   0.00000  Uiso   1.00
O2     O     0.29375   0.22678   0.25000   0.00000  Uiso   1.00
O3     O     0.29372   0.10654   0.25000   0.00000  Uiso   1.00
O4     O     0.03961   0.22679   0.24999   0.00000  Uiso   1.00
C5     C     0.33319   0.08746   0.24981   0.00000  Uiso   1.00
C6     C     0.00016   0.24587   0.25016   0.00000  Uiso   1.00
O7     O     0.01852   0.16668   0.31491   0.00000  Uiso   1.00
O8     O     0.31481   0.16666   0.18508   0.00000  Uiso   1.00
O9     O     0.27267   0.16667   0.31492   0.00000  Uiso   1.00
O10    O     0.06067   0.16667   0.18508   0.00000  Uiso   1.00
C11    C     0.30571   0.16651   0.33621   0.00000  Uiso   1.00
C12    C     0.02780   0.16836   0.16382   0.00000  Uiso   1.00
Cu13   Cu    0.04689   0.16667   0.25000   0.00000  Uiso   1.00
Cu14   Cu    0.28645   0.16666   0.25000   0.00000  Uiso   1.00
C15    C     0.29065   0.16851   0.38565   0.00000  Uiso   1.00
C16    C     0.04456   0.17787   0.11498   0.00000  Uiso   1.00
C17    C     0.31031   0.16599   0.45646   0.00000  Uiso   1.00
C18    C     0.03324   0.21240   0.04860   0.00000  Uiso   1.00
C19    C     0.32480   0.16371   0.40999   0.00000  Uiso   1.00
C20    C     0.01457   0.19843   0.09309   0.00000  Uiso   1.00
C21    C     0.24200   0.17652   0.40886   0.00000  Uiso   1.00
C22    C     0.09355   0.17182   0.09152   0.00000  Uiso   1.00
C23    C     0.22836   0.18390   0.45519   0.00000  Uiso   1.00
C24    C     0.11421   0.19035   0.04851   0.00000  Uiso   1.00
C25    C     0.26233   0.17522   0.47921   0.00000  Uiso   1.00
C26    C     0.08263   0.20829   0.02608   0.00000  Uiso   1.00
C27    C     0.18094   0.19684   0.47894   0.00000  Uiso   1.00
C28    C     0.16491   0.18965   0.02618   0.00000  Uiso   1.00
C29    C     0.20059   0.18460   0.04937   0.00000  Uiso   1.00
C30    C     0.14975   0.21858   0.45820   0.00000  Uiso   1.00
C31    C     0.24842   0.17673   0.02573   0.00000  Uiso   1.00
C32    C     0.10090   0.22324   0.48189   0.00000  Uiso   1.00
H33    H     0.27516   0.17285   0.04391   0.00000  Uiso   1.00
H34    H     0.07718   0.23957   0.46598   0.00000  Uiso   1.00
H35    H     0.00347   0.16067   0.47469   0.00000  Uiso   1.00
H36    H     0.00930   0.22759   0.03210   0.00000  Uiso   1.00
C37    C     0.30320   0.02133   0.22900   0.00000  Uiso   1.00
C38    C     0.03030   0.31199   0.27078   0.00000  Uiso   1.00
C39    C     0.30350   0.31194   0.22941   0.00000  Uiso   1.00
C40    C     0.02997   0.02138   0.27041   0.00000  Uiso   1.00
H41    H     0.28072   0.29564   0.21288   0.00000  Uiso   1.00
H42    H     0.05277   0.03767   0.28692   0.00000  Uiso   1.00
C43    C     0.00040   0.29050   0.25013   0.00000  Uiso   1.00
C44    C     0.33302   0.04282   0.24974   0.00000  Uiso   1.00
C45    C     0.18383   0.13559   0.27171   0.00000  Uiso   1.00
C46    C     0.14934   0.19842   0.22932   0.00000  Uiso   1.00
C47    C     0.13453   0.13586   0.27160   0.00000  Uiso   1.00
C48    C     0.19886   0.19752   0.22857   0.00000  Uiso   1.00
N49    N     0.11736   0.16668   0.24999   0.00000  Uiso   1.00
N50    N     0.21597   0.16666   0.25001   0.00000  Uiso   1.00
F51    F     0.11963   0.14521   0.10950   0.00000  Uiso   1.00
F52    F     0.20739   0.17395   0.38708   0.00000  Uiso   1.00
F53    F     0.30099   0.20627   0.11497   0.00000  Uiso   1.00
F54    F     0.03860   0.15532   0.38930   0.00000  Uiso   1.00
N55    N     0.19195   0.19753   0.09443   0.00000  Uiso   1.00
O56    O     0.18418   0.23643   0.10215   0.00000  Uiso   1.00
O57    O     0.20569   0.17451   0.12334   0.00000  Uiso   1.00
N58    N     0.16831   0.24178   0.41651   0.00000  Uiso   1.00
O59    O     0.20950   0.26197   0.40809   0.00000  Uiso   1.00
O60    O     0.14133   0.24731   0.38967   0.00000  Uiso   1.00
F61    F     0.27511   0.04154   0.20714   0.00000  Uiso   1.00
F62    F     0.05855   0.29178   0.29248   0.00000  Uiso   1.00
N63    N     0.19937   0.10171   0.29425   0.00000  Uiso   1.00
O64    O     0.19412   0.06438   0.28180   0.00000  Uiso   1.00
O65    O     0.20531   0.10670   0.33365   0.00000  Uiso   1.00
N66    N     0.13328   0.23444   0.21033   0.00000  Uiso   1.00
O67    O     0.14569   0.27087   0.22032   0.00000  Uiso   1.00
O68    O     0.11387   0.23146   0.17765   0.00000  Uiso   1.00
F69    F     0.10367   0.10579   0.29494   0.00000  Uiso   1.00
F70    F     0.22986   0.22753   0.20528   0.00000  Uiso   1.00
O71    O     0.37291   0.10655   0.25000   0.00000  Uiso   1.00
O72    O     0.62709   0.22678   0.25000   0.00000  Uiso   1.00
O73    O     0.62706   0.10654   0.25000   0.00000  Uiso   1.00
O74    O     0.37294   0.22679   0.24999   0.00000  Uiso   1.00
C75    C     0.66652   0.08746   0.24981   0.00000  Uiso   1.00
C76    C     0.33349   0.24587   0.25016   0.00000  Uiso   1.00
O77    O     0.35186   0.16668   0.31491   0.00000  Uiso   1.00
O78    O     0.64814   0.16666   0.18508   0.00000  Uiso   1.00
O79    O     0.60600   0.16667   0.31492   0.00000  Uiso   1.00
O80    O     0.39400   0.16667   0.18508   0.00000  Uiso   1.00
C81    C     0.63904   0.16651   0.33621   0.00000  Uiso   1.00
C82    C     0.36113   0.16836   0.16382   0.00000  Uiso   1.00
Cu83   Cu    0.38022   0.16667   0.25000   0.00000  Uiso   1.00
Cu84   Cu    0.61978   0.16666   0.25000   0.00000  Uiso   1.00
C85    C     0.62398   0.16851   0.38565   0.00000  Uiso   1.00
C86    C     0.37789   0.17787   0.11498   0.00000  Uiso   1.00
C87    C     0.64364   0.16599   0.45646   0.00000  Uiso   1.00
C88    C     0.36658   0.21240   0.04860   0.00000  Uiso   1.00
C89    C     0.65814   0.16371   0.40999   0.00000  Uiso   1.00
C90    C     0.34790   0.19843   0.09309   0.00000  Uiso   1.00
C91    C     0.57533   0.17652   0.40886   0.00000  Uiso   1.00
C92    C     0.42688   0.17182   0.09152   0.00000  Uiso   1.00
C93    C     0.56169   0.18390   0.45519   0.00000  Uiso   1.00
C94    C     0.44755   0.19035   0.04851   0.00000  Uiso   1.00
C95    C     0.59566   0.17522   0.47921   0.00000  Uiso   1.00
C96    C     0.41597   0.20829   0.02608   0.00000  Uiso   1.00
C97    C     0.51427   0.19684   0.47894   0.00000  Uiso   1.00
C98    C     0.49824   0.18965   0.02618   0.00000  Uiso   1.00
C99    C     0.53392   0.18460   0.04937   0.00000  Uiso   1.00
C100   C     0.48308   0.21858   0.45820   0.00000  Uiso   1.00
C101   C     0.58175   0.17673   0.02573   0.00000  Uiso   1.00
C102   C     0.43423   0.22324   0.48189   0.00000  Uiso   1.00
H103   H     0.60849   0.17285   0.04391   0.00000  Uiso   1.00
H104   H     0.41051   0.23957   0.46598   0.00000  Uiso   1.00
H105   H     0.33680   0.16067   0.47469   0.00000  Uiso   1.00
H106   H     0.34263   0.22759   0.03210   0.00000  Uiso   1.00
C107   C     0.63654   0.02133   0.22900   0.00000  Uiso   1.00
C108   C     0.36364   0.31199   0.27078   0.00000  Uiso   1.00
C109   C     0.63683   0.31194   0.22941   0.00000  Uiso   1.00
C110   C     0.36330   0.02138   0.27041   0.00000  Uiso   1.00
H111   H     0.61405   0.29564   0.21288   0.00000  Uiso   1.00
H112   H     0.38610   0.03767   0.28692   0.00000  Uiso   1.00
C113   C     0.33373   0.29050   0.25013   0.00000  Uiso   1.00
C114   C     0.66635   0.04282   0.24974   0.00000  Uiso   1.00
C115   C     0.51716   0.13559   0.27171   0.00000  Uiso   1.00
C116   C     0.48267   0.19842   0.22932   0.00000  Uiso   1.00
C117   C     0.46786   0.13586   0.27160   0.00000  Uiso   1.00
C118   C     0.53220   0.19752   0.22857   0.00000  Uiso   1.00
N119   N     0.45069   0.16668   0.24999   0.00000  Uiso   1.00
N120   N     0.54931   0.16666   0.25001   0.00000  Uiso   1.00
F121   F     0.45296   0.14521   0.10950   0.00000  Uiso   1.00
F122   F     0.54073   0.17395   0.38708   0.00000  Uiso   1.00
F123   F     0.63432   0.20627   0.11497   0.00000  Uiso   1.00
F124   F     0.37194   0.15532   0.38930   0.00000  Uiso   1.00
N125   N     0.52528   0.19753   0.09443   0.00000  Uiso   1.00
O126   O     0.51751   0.23643   0.10215   0.00000  Uiso   1.00
O127   O     0.53903   0.17451   0.12334   0.00000  Uiso   1.00
N128   N     0.50165   0.24178   0.41651   0.00000  Uiso   1.00
O129   O     0.54283   0.26197   0.40809   0.00000  Uiso   1.00
O130   O     0.47466   0.24731   0.38967   0.00000  Uiso   1.00
F131   F     0.60844   0.04154   0.20714   0.00000  Uiso   1.00
F132   F     0.39188   0.29178   0.29248   0.00000  Uiso   1.00
N133   N     0.53270   0.10171   0.29425   0.00000  Uiso   1.00
O134   O     0.52745   0.06438   0.28180   0.00000  Uiso   1.00
O135   O     0.53865   0.10670   0.33365   0.00000  Uiso   1.00
N136   N     0.46662   0.23444   0.21033   0.00000  Uiso   1.00
O137   O     0.47902   0.27087   0.22032   0.00000  Uiso   1.00
O138   O     0.44720   0.23146   0.17765   0.00000  Uiso   1.00
F139   F     0.43700   0.10579   0.29494   0.00000  Uiso   1.00
F140   F     0.56320   0.22753   0.20528   0.00000  Uiso   1.00
O141   O     0.70625   0.10655   0.25000   0.00000  Uiso   1.00
O142   O     0.96042   0.22678   0.25000   0.00000  Uiso   1.00
O143   O     0.96039   0.10654   0.25000   0.00000  Uiso   1.00
O144   O     0.70628   0.22679   0.24999   0.00000  Uiso   1.00
C145   C     0.99985   0.08746   0.24981   0.00000  Uiso   1.00
C146   C     0.66683   0.24587   0.25016   0.00000  Uiso   1.00
O147   O     0.68519   0.16668   0.31491   0.00000  Uiso   1.00
O148   O     0.98148   0.16666   0.18508   0.00000  Uiso   1.00
O149   O     0.93933   0.16667   0.31492   0.00000  Uiso   1.00
O150   O     0.72733   0.16667   0.18508   0.00000  Uiso   1.00
C151   C     0.97238   0.16651   0.33621   0.00000  Uiso   1.00
C152   C     0.69447   0.16836   0.16382   0.00000  Uiso   1.00
Cu153  Cu    0.71355   0.16667   0.25000   0.00000  Uiso   1.00
Cu154  Cu    0.95311   0.16666   0.25000   0.00000  Uiso   1.00
C155   C     0.95731   0.16851   0.38565   0.00000  Uiso   1.00
C156   C     0.71122   0.17787   0.11498   0.00000  Uiso   1.00
C157   C     0.97698   0.16599   0.45646   0.00000  Uiso   1.00
C158   C     0.69991   0.21240   0.04860   0.00000  Uiso   1.00
C159   C     0.99147   0.16371   0.40999   0.00000  Uiso   1.00
C160   C     0.68124   0.19843   0.09309   0.00000  Uiso   1.00
C161   C     0.90867   0.17652   0.40886   0.00000  Uiso   1.00
C162   C     0.76021   0.17182   0.09152   0.00000  Uiso   1.00
C163   C     0.89503   0.18390   0.45519   0.00000  Uiso   1.00
C164   C     0.78088   0.19035   0.04851   0.00000  Uiso   1.00
C165   C     0.92900   0.17522   0.47921   0.00000  Uiso   1.00
C166   C     0.74930   0.20829   0.02608   0.00000  Uiso   1.00
C167   C     0.84761   0.19684   0.47894   0.00000  Uiso   1.00
C168   C     0.83157   0.18965   0.02618   0.00000  Uiso   1.00
C169   C     0.86726   0.18460   0.04937   0.00000  Uiso   1.00
C170   C     0.81642   0.21858   0.45820   0.00000  Uiso   1.00
C171   C     0.91509   0.17673   0.02573   0.00000  Uiso   1.00
C172   C     0.76756   0.22324   0.48189   0.00000  Uiso   1.00
H173   H     0.94182   0.17285   0.04391   0.00000  Uiso   1.00
H174   H     0.74384   0.23957   0.46598   0.00000  Uiso   1.00
H175   H     0.67013   0.16067   0.47469   0.00000  Uiso   1.00
H176   H     0.67596   0.22759   0.03210   0.00000  Uiso   1.00
C177   C     0.96987   0.02133   0.22900   0.00000  Uiso   1.00
C178   C     0.69697   0.31199   0.27078   0.00000  Uiso   1.00
C179   C     0.97017   0.31194   0.22941   0.00000  Uiso   1.00
C180   C     0.69663   0.02138   0.27041   0.00000  Uiso   1.00
H181   H     0.94738   0.29564   0.21288   0.00000  Uiso   1.00
H182   H     0.71944   0.03767   0.28692   0.00000  Uiso   1.00
C183   C     0.66706   0.29050   0.25013   0.00000  Uiso   1.00
C184   C     0.99968   0.04282   0.24974   0.00000  Uiso   1.00
C185   C     0.85049   0.13559   0.27171   0.00000  Uiso   1.00
C186   C     0.81600   0.19842   0.22932   0.00000  Uiso   1.00
C187   C     0.80119   0.13586   0.27160   0.00000  Uiso   1.00
C188   C     0.86553   0.19752   0.22857   0.00000  Uiso   1.00
N189   N     0.78403   0.16668   0.24999   0.00000  Uiso   1.00
N190   N     0.88264   0.16666   0.25001   0.00000  Uiso   1.00
F191   F     0.78629   0.14521   0.10950   0.00000  Uiso   1.00
F192   F     0.87406   0.17395   0.38708   0.00000  Uiso   1.00
F193   F     0.96766   0.20627   0.11497   0.00000  Uiso   1.00
F194   F     0.70527   0.15532   0.38930   0.00000  Uiso   1.00
N195   N     0.85862   0.19753   0.09443   0.00000  Uiso   1.00
O196   O     0.85084   0.23643   0.10215   0.00000  Uiso   1.00
O197   O     0.87236   0.17451   0.12334   0.00000  Uiso   1.00
N198   N     0.83498   0.24178   0.41651   0.00000  Uiso   1.00
O199   O     0.87616   0.26197   0.40809   0.00000  Uiso   1.00
O200   O     0.80800   0.24731   0.38967   0.00000  Uiso   1.00
F201   F     0.94178   0.04154   0.20714   0.00000  Uiso   1.00
F202   F     0.72522   0.29178   0.29248   0.00000  Uiso   1.00
N203   N     0.86604   0.10171   0.29425   0.00000  Uiso   1.00
O204   O     0.86078   0.06438   0.28180   0.00000  Uiso   1.00
O205   O     0.87198   0.10670   0.33365   0.00000  Uiso   1.00
N206   N     0.79995   0.23444   0.21033   0.00000  Uiso   1.00
O207   O     0.81235   0.27087   0.22032   0.00000  Uiso   1.00
O208   O     0.78054   0.23146   0.17765   0.00000  Uiso   1.00
F209   F     0.77033   0.10579   0.29494   0.00000  Uiso   1.00
F210   F     0.89653   0.22753   0.20528   0.00000  Uiso   1.00
O211   O     0.03958   0.43989   0.25000   0.00000  Uiso   1.00
O212   O     0.29375   0.56011   0.25000   0.00000  Uiso   1.00
O213   O     0.29372   0.43988   0.25000   0.00000  Uiso   1.00
O214   O     0.03961   0.56012   0.24999   0.00000  Uiso   1.00
C215   C     0.33319   0.42079   0.24981   0.00000  Uiso   1.00
C216   C     0.00016   0.57921   0.25016   0.00000  Uiso   1.00
O217   O     0.01852   0.50001   0.31491   0.00000  Uiso   1.00
O218   O     0.31481   0.49999   0.18508   0.00000  Uiso   1.00
O219   O     0.27267   0.50000   0.31492   0.00000  Uiso   1.00
O220   O     0.06067   0.50000   0.18508   0.00000  Uiso   1.00
C221   C     0.30571   0.49984   0.33621   0.00000  Uiso   1.00
C222   C     0.02780   0.50169   0.16382   0.00000  Uiso   1.00
Cu223  Cu    0.04689   0.50001   0.25000   0.00000  Uiso   1.00
Cu224  Cu    0.28645   0.49999   0.25000   0.00000  Uiso   1.00
C225   C     0.29065   0.50185   0.38565   0.00000  Uiso   1.00
C226   C     0.04456   0.51120   0.11498   0.00000  Uiso   1.00
C227   C     0.31031   0.49933   0.45646   0.00000  Uiso   1.00
C228   C     0.03324   0.54573   0.04860   0.00000  Uiso   1.00
C229   C     0.32480   0.49705   0.40999   0.00000  Uiso   1.00
C230   C     0.01457   0.53176   0.09309   0.00000  Uiso   1.00
C231   C     0.24200   0.50986   0.40886   0.00000  Uiso   1.00
C232   C     0.09355   0.50516   0.09152   0.00000  Uiso   1.00
C233   C     0.22836   0.51724   0.45519   0.00000  Uiso   1.00
C234   C     0.11421   0.52369   0.04851   0.00000  Uiso   1.00
C235   C     0.26233   0.50855   0.47921   0.00000  Uiso   1.00
C236   C     0.08263   0.54162   0.02608   0.00000  Uiso   1.00
C237   C     0.18094   0.53018   0.47894   0.00000  Uiso   1.00
C238   C     0.16491   0.52299   0.02618   0.00000  Uiso   1.00
C239   C     0.20059   0.51793   0.04937   0.00000  Uiso   1.00
C240   C     0.14975   0.55192   0.45820   0.00000  Uiso   1.00
C241   C     0.24842   0.51006   0.02573   0.00000  Uiso   1.00
C242   C     0.10090   0.55657   0.48189   0.00000  Uiso   1.00
H243   H     0.27516   0.50618   0.04391   0.00000  Uiso   1.00
H244   H     0.07718   0.57290   0.46598   0.00000  Uiso   1.00
H245   H     0.00347   0.49400   0.47469   0.00000  Uiso   1.00
H246   H     0.00930   0.56093   0.03210   0.00000  Uiso   1.00
C247   C     0.30320   0.35467   0.22900   0.00000  Uiso   1.00
C248   C     0.03030   0.64532   0.27078   0.00000  Uiso   1.00
C249   C     0.30350   0.64527   0.22941   0.00000  Uiso   1.00
C250   C     0.02997   0.35471   0.27041   0.00000  Uiso   1.00
H251   H     0.28072   0.62898   0.21288   0.00000  Uiso   1.00
H252   H     0.05277   0.37100   0.28692   0.00000  Uiso   1.00
C253   C     0.00040   0.62384   0.25013   0.00000  Uiso   1.00
C254   C     0.33302   0.37615   0.24974   0.00000  Uiso   1.00
C255   C     0.18383   0.46892   0.27171   0.00000  Uiso   1.00
C256   C     0.14934   0.53175   0.22932   0.00000  Uiso   1.00
C257   C     0.13453   0.46920   0.27160   0.00000  Uiso   1.00
C258   C     0.19886   0.53085   0.22857   0.00000  Uiso   1.00
N259   N     0.11736   0.50001   0.24999   0.00000  Uiso   1.00
N260   N     0.21597   0.49999   0.25001   0.00000  Uiso   1.00
F261   F     0.11963   0.47854   0.10950   0.00000  Uiso   1.00
F262   F     0.20739   0.50728   0.38708   0.00000  Uiso   1.00
F263   F     0.30099   0.53961   0.11497   0.00000  Uiso   1.00
F264   F     0.03860   0.48865   0.38930   0.00000  Uiso   1.00
N265   N     0.19195   0.53086   0.09443   0.00000  Uiso   1.00
O266   O     0.18418   0.56976   0.10215   0.00000  Uiso   1.00
O267   O     0.20569   0.50784   0.12334   0.00000  Uiso   1.00
N268   N     0.16831   0.57511   0.41651   0.00000  Uiso   1.00
O269   O     0.20950   0.59530   0.40809   0.00000  Uiso   1.00
O270   O     0.14133   0.58064   0.38967   0.00000  Uiso   1.00
F271   F     0.27511   0.37488   0.20714   0.00000  Uiso   1.00
F272   F     0.05855   0.62511   0.29248   0.00000  Uiso   1.00
N273   N     0.19937   0.43504   0.29425   0.00000  Uiso   1.00
O274   O     0.19412   0.39771   0.28180   0.00000  Uiso   1.00
O275   O     0.20531   0.44003   0.33365   0.00000  Uiso   1.00
N276   N     0.13328   0.56777   0.21033   0.00000  Uiso   1.00
O277   O     0.14569   0.60421   0.22032   0.00000  Uiso   1.00
O278   O     0.11387   0.56479   0.17765   0.00000  Uiso   1.00
F279   F     0.10367   0.43913   0.29494   0.00000  Uiso   1.00
F280   F     0.22986   0.56086   0.20528   0.00000  Uiso   1.00
O281   O     0.37291   0.43989   0.25000   0.00000  Uiso   1.00
O282   O     0.62709   0.56011   0.25000   0.00000  Uiso   1.00
O283   O     0.62706   0.43988   0.25000   0.00000  Uiso   1.00
O284   O     0.37294   0.56012   0.24999   0.00000  Uiso   1.00
C285   C     0.66652   0.42079   0.24981   0.00000  Uiso   1.00
C286   C     0.33349   0.57921   0.25016   0.00000  Uiso   1.00
O287   O     0.35186   0.50001   0.31491   0.00000  Uiso   1.00
O288   O     0.64814   0.49999   0.18508   0.00000  Uiso   1.00
O289   O     0.60600   0.50000   0.31492   0.00000  Uiso   1.00
O290   O     0.39400   0.50000   0.18508   0.00000  Uiso   1.00
C291   C     0.63904   0.49984   0.33621   0.00000  Uiso   1.00
C292   C     0.36113   0.50169   0.16382   0.00000  Uiso   1.00
Cu293  Cu    0.38022   0.50001   0.25000   0.00000  Uiso   1.00
Cu294  Cu    0.61978   0.49999   0.25000   0.00000  Uiso   1.00
C295   C     0.62398   0.50185   0.38565   0.00000  Uiso   1.00
C296   C     0.37789   0.51120   0.11498   0.00000  Uiso   1.00
C297   C     0.64364   0.49933   0.45646   0.00000  Uiso   1.00
C298   C     0.36658   0.54573   0.04860   0.00000  Uiso   1.00
C299   C     0.65814   0.49705   0.40999   0.00000  Uiso   1.00
C300   C     0.34790   0.53176   0.09309   0.00000  Uiso   1.00
C301   C     0.57533   0.50986   0.40886   0.00000  Uiso   1.00
C302   C     0.42688   0.50516   0.09152   0.00000  Uiso   1.00
C303   C     0.56169   0.51724   0.45519   0.00000  Uiso   1.00
C304   C     0.44755   0.52369   0.04851   0.00000  Uiso   1.00
C305   C     0.59566   0.50855   0.47921   0.00000  Uiso   1.00
C306   C     0.41597   0.54162   0.02608   0.00000  Uiso   1.00
C307   C     0.51427   0.53018   0.47894   0.00000  Uiso   1.00
C308   C     0.49824   0.52299   0.02618   0.00000  Uiso   1.00
C309   C     0.53392   0.51793   0.04937   0.00000  Uiso   1.00
C310   C     0.48308   0.55192   0.45820   0.00000  Uiso   1.00
C311   C     0.58175   0.51006   0.02573   0.00000  Uiso   1.00
C312   C     0.43423   0.55657   0.48189   0.00000  Uiso   1.00
H313   H     0.60849   0.50618   0.04391   0.00000  Uiso   1.00
H314   H     0.41051   0.57290   0.46598   0.00000  Uiso   1.00
H315   H     0.33680   0.49400   0.47469   0.00000  Uiso   1.00
H316   H     0.34263   0.56093   0.03210   0.00000  Uiso   1.00
C317   C     0.63654   0.35467   0.22900   0.00000  Uiso   1.00
C318   C     0.36364   0.64532   0.27078   0.00000  Uiso   1.00
C319   C     0.63683   0.64527   0.22941   0.00000  Uiso   1.00
C320   C     0.36330   0.35471   0.27041   0.00000  Uiso   1.00
H321   H     0.61405   0.62898   0.21288   0.00000  Uiso   1.00
H322   H     0.38610   0.37100   0.28692   0.00000  Uiso   1.00
C323   C     0.33373   0.62384   0.25013   0.00000  Uiso   1.00
C324   C     0.66635   0.37615   0.24974   0.00000  Uiso   1.00
C325   C     0.51716   0.46892   0.27171   0.00000  Uiso   1.00
C326   C     0.48267   0.53175   0.22932   0.00000  Uiso   1.00
C327   C     0.46786   0.46920   0.27160   0.00000  Uiso   1.00
C328   C     0.53220   0.53085   0.22857   0.00000  Uiso   1.00
N329   N     0.45069   0.50001   0.24999   0.00000  Uiso   1.00
N330   N     0.54931   0.49999   0.25001   0.00000  Uiso   1.00
F331   F     0.45296   0.47854   0.10950   0.00000  Uiso   1.00
F332   F     0.54073   0.50728   0.38708   0.00000  Uiso   1.00
F333   F     0.63432   0.53961   0.11497   0.00000  Uiso   1.00
F334   F     0.37194   0.48865   0.38930   0.00000  Uiso   1.00
N335   N     0.52528   0.53086   0.09443   0.00000  Uiso   1.00
O336   O     0.51751   0.56976   0.10215   0.00000  Uiso   1.00
O337   O     0.53903   0.50784   0.12334   0.00000  Uiso   1.00
N338   N     0.50165   0.57511   0.41651   0.00000  Uiso   1.00
O339   O     0.54283   0.59530   0.40809   0.00000  Uiso   1.00
O340   O     0.47466   0.58064   0.38967   0.00000  Uiso   1.00
F341   F     0.60844   0.37488   0.20714   0.00000  Uiso   1.00
F342   F     0.39188   0.62511   0.29248   0.00000  Uiso   1.00
N343   N     0.53270   0.43504   0.29425   0.00000  Uiso   1.00
O344   O     0.52745   0.39771   0.28180   0.00000  Uiso   1.00
O345   O     0.53865   0.44003   0.33365   0.00000  Uiso   1.00
N346   N     0.46662   0.56777   0.21033   0.00000  Uiso   1.00
O347   O     0.47902   0.60421   0.22032   0.00000  Uiso   1.00
O348   O     0.44720   0.56479   0.17765   0.00000  Uiso   1.00
F349   F     0.43700   0.43913   0.29494   0.00000  Uiso   1.00
F350   F     0.56320   0.56086   0.20528   0.00000  Uiso   1.00
O351   O     0.70625   0.43989   0.25000   0.00000  Uiso   1.00
O352   O     0.96042   0.56011   0.25000   0.00000  Uiso   1.00
O353   O     0.96039   0.43988   0.25000   0.00000  Uiso   1.00
O354   O     0.70628   0.56012   0.24999   0.00000  Uiso   1.00
C355   C     0.99985   0.42079   0.24981   0.00000  Uiso   1.00
C356   C     0.66683   0.57921   0.25016   0.00000  Uiso   1.00
O357   O     0.68519   0.50001   0.31491   0.00000  Uiso   1.00
O358   O     0.98148   0.49999   0.18508   0.00000  Uiso   1.00
O359   O     0.93933   0.50000   0.31492   0.00000  Uiso   1.00
O360   O     0.72733   0.50000   0.18508   0.00000  Uiso   1.00
C361   C     0.97238   0.49984   0.33621   0.00000  Uiso   1.00
C362   C     0.69447   0.50169   0.16382   0.00000  Uiso   1.00
Cu363  Cu    0.71355   0.50001   0.25000   0.00000  Uiso   1.00
Cu364  Cu    0.95311   0.49999   0.25000   0.00000  Uiso   1.00
C365   C     0.95731   0.50185   0.38565   0.00000  Uiso   1.00
C366   C     0.71122   0.51120   0.11498   0.00000  Uiso   1.00
C367   C     0.97698   0.49933   0.45646   0.00000  Uiso   1.00
C368   C     0.69991   0.54573   0.04860   0.00000  Uiso   1.00
C369   C     0.99147   0.49705   0.40999   0.00000  Uiso   1.00
C370   C     0.68124   0.53176   0.09309   0.00000  Uiso   1.00
C371   C     0.90867   0.50986   0.40886   0.00000  Uiso   1.00
C372   C     0.76021   0.50516   0.09152   0.00000  Uiso   1.00
C373   C     0.89503   0.51724   0.45519   0.00000  Uiso   1.00
C374   C     0.78088   0.52369   0.04851   0.00000  Uiso   1.00
C375   C     0.92900   0.50855   0.47921   0.00000  Uiso   1.00
C376   C     0.74930   0.54162   0.02608   0.00000  Uiso   1.00
C377   C     0.84761   0.53018   0.47894   0.00000  Uiso   1.00
C378   C     0.83157   0.52299   0.02618   0.00000  Uiso   1.00
C379   C     0.86726   0.51793   0.04937   0.00000  Uiso   1.00
C380   C     0.81642   0.55192   0.45820   0.00000  Uiso   1.00
C381   C     0.91509   0.51006   0.02573   0.00000  Uiso   1.00
C382   C     0.76756   0.55657   0.48189   0.00000  Uiso   1.00
H383   H     0.94182   0.50618   0.04391   0.00000  Uiso   1.00
H384   H     0.74384   0.57290   0.46598   0.00000  Uiso   1.00
H385   H     0.67013   0.49400   0.47469   0.00000  Uiso   1.00
H386   H     0.67596   0.56093   0.03210   0.00000  Uiso   1.00
C387   C     0.96987   0.35467   0.22900   0.00000  Uiso   1.00
C388   C     0.69697   0.64532   0.27078   0.00000  Uiso   1.00
C389   C     0.97017   0.64527   0.22941   0.00000  Uiso   1.00
C390   C     0.69663   0.35471   0.27041   0.00000  Uiso   1.00
H391   H     0.94738   0.62898   0.21288   0.00000  Uiso   1.00
H392   H     0.71944   0.37100   0.28692   0.00000  Uiso   1.00
C393   C     0.66706   0.62384   0.25013   0.00000  Uiso   1.00
C394   C     0.99968   0.37615   0.24974   0.00000  Uiso   1.00
C395   C     0.85049   0.46892   0.27171   0.00000  Uiso   1.00
C396   C     0.81600   0.53175   0.22932   0.00000  Uiso   1.00
C397   C     0.80119   0.46920   0.27160   0.00000  Uiso   1.00
C398   C     0.86553   0.53085   0.22857   0.00000  Uiso   1.00
N399   N     0.78403   0.50001   0.24999   0.00000  Uiso   1.00
N400   N     0.88264   0.49999   0.25001   0.00000  Uiso   1.00
F401   F     0.78629   0.47854   0.10950   0.00000  Uiso   1.00
F402   F     0.87406   0.50728   0.38708   0.00000  Uiso   1.00
F403   F     0.96766   0.53961   0.11497   0.00000  Uiso   1.00
F404   F     0.70527   0.48865   0.38930   0.00000  Uiso   1.00
N405   N     0.85862   0.53086   0.09443   0.00000  Uiso   1.00
O406   O     0.85084   0.56976   0.10215   0.00000  Uiso   1.00
O407   O     0.87236   0.50784   0.12334   0.00000  Uiso   1.00
N408   N     0.83498   0.57511   0.41651   0.00000  Uiso   1.00
O409   O     0.87616   0.59530   0.40809   0.00000  Uiso   1.00
O410   O     0.80800   0.58064   0.38967   0.00000  Uiso   1.00
F411   F     0.94178   0.37488   0.20714   0.00000  Uiso   1.00
F412   F     0.72522   0.62511   0.29248   0.00000  Uiso   1.00
N413   N     0.86604   0.43504   0.29425   0.00000  Uiso   1.00
O414   O     0.86078   0.39771   0.28180   0.00000  Uiso   1.00
O415   O     0.87198   0.44003   0.33365   0.00000  Uiso   1.00
N416   N     0.79995   0.56777   0.21033   0.00000  Uiso   1.00
O417   O     0.81235   0.60421   0.22032   0.00000  Uiso   1.00
O418   O     0.78054   0.56479   0.17765   0.00000  Uiso   1.00
F419   F     0.77033   0.43913   0.29494   0.00000  Uiso   1.00
F420   F     0.89653   0.56086   0.20528   0.00000  Uiso   1.00
O421   O     0.03958   0.77322   0.25000   0.00000  Uiso   1.00
O422   O     0.29375   0.89345   0.25000   0.00000  Uiso   1.00
O423   O     0.29372   0.77321   0.25000   0.00000  Uiso   1.00
O424   O     0.03961   0.89346   0.24999   0.00000  Uiso   1.00
C425   C     0.33319   0.75412   0.24981   0.00000  Uiso   1.00
C426   C     0.00016   0.91254   0.25016   0.00000  Uiso   1.00
O427   O     0.01852   0.83334   0.31491   0.00000  Uiso   1.00
O428   O     0.31481   0.83332   0.18508   0.00000  Uiso   1.00
O429   O     0.27267   0.83333   0.31492   0.00000  Uiso   1.00
O430   O     0.06067   0.83333   0.18508   0.00000  Uiso   1.00
C431   C     0.30571   0.83317   0.33621   0.00000  Uiso   1.00
C432   C     0.02780   0.83503   0.16382   0.00000  Uiso   1.00
Cu433  Cu    0.04689   0.83334   0.25000   0.00000  Uiso   1.00
Cu434  Cu    0.28645   0.83333   0.25000   0.00000  Uiso   1.00
C435   C     0.29065   0.83518   0.38565   0.00000  Uiso   1.00
C436   C     0.04456   0.84453   0.11498   0.00000  Uiso   1.00
C437   C     0.31031   0.83266   0.45646   0.00000  Uiso   1.00
C438   C     0.03324   0.87907   0.04860   0.00000  Uiso   1.00
C439   C     0.32480   0.83038   0.40999   0.00000  Uiso   1.00
C440   C     0.01457   0.86510   0.09309   0.00000  Uiso   1.00
C441   C     0.24200   0.84319   0.40886   0.00000  Uiso   1.00
C442   C     0.09355   0.83849   0.09152   0.00000  Uiso   1.00
C443   C     0.22836   0.85057   0.45519   0.00000  Uiso   1.00
C444   C     0.11421   0.85702   0.04851   0.00000  Uiso   1.00
C445   C     0.26233   0.84189   0.47921   0.00000  Uiso   1.00
C446   C     0.08263   0.87496   0.02608   0.00000  Uiso   1.00
C447   C     0.18094   0.86351   0.47894   0.00000  Uiso   1.00
C448   C     0.16491   0.85632   0.02618   0.00000  Uiso   1.00
C449   C     0.20059   0.85126   0.04937   0.00000  Uiso   1.00
C450   C     0.14975   0.88525   0.45820   0.00000  Uiso   1.00
C451   C     0.24842   0.84340   0.02573   0.00000  Uiso   1.00
C452   C     0.10090   0.88991   0.48189   0.00000  Uiso   1.00
H453   H     0.27516   0.83951   0.04391   0.00000  Uiso   1.00
H454   H     0.07718   0.90623   0.46598   0.00000  Uiso   1.00
H455   H     0.00347   0.82734   0.47469   0.00000  Uiso   1.00
H456   H     0.00930   0.89426   0.03210   0.00000  Uiso   1.00
C457   C     0.30320   0.68800   0.22900   0.00000  Uiso   1.00
C458   C     0.03030   0.97865   0.27078   0.00000  Uiso   1.00
C459   C     0.30350   0.97860   0.22941   0.00000  Uiso   1.00
C460   C     0.02997   0.68805   0.27041   0.00000  Uiso   1.00
H461   H     0.28072   0.96231   0.21288   0.00000  Uiso   1.00
H462   H     0.05277   0.70433   0.28692   0.00000  Uiso   1.00
C463   C     0.00040   0.95717   0.25013   0.00000  Uiso   1.00
C464   C     0.33302   0.70948   0.24974   0.00000  Uiso   1.00
C465   C     0.18383   0.80225   0.27171   0.00000  Uiso   1.00
C466   C     0.14934   0.86508   0.22932   0.00000  Uiso   1.00
C467   C     0.13453   0.80253   0.27160   0.00000  Uiso   1.00
C468   C     0.19886   0.86419   0.22857   0.00000  Uiso   1.00
N469   N     0.11736   0.83334   0.24999   0.00000  Uiso   1.00
N470   N     0.21597   0.83332   0.25001   0.00000  Uiso   1.00
F471   F     0.11963   0.81187   0.10950   0.00000  Uiso   1.00
F472   F     0.20739   0.84062   0.38708   0.00000  Uiso   1.00
F473   F     0.30099   0.87294   0.11497   0.00000  Uiso   1.00
F474   F     0.03860   0.82198   0.38930   0.00000  Uiso   1.00
N475   N     0.19195   0.86420   0.09443   0.00000  Uiso   1.00
O476   O     0.18418   0.90310   0.10215   0.00000  Uiso   1.00
O477   O     0.20569   0.84117   0.12334   0.00000  Uiso   1.00
N478   N     0.16831   0.90844   0.41651   0.00000  Uiso   1.00
O479   O     0.20950   0.92864   0.40809   0.00000  Uiso   1.00
O480   O     0.14133   0.91397   0.38967   0.00000  Uiso   1.00
F481   F     0.27511   0.70821   0.20714   0.00000  Uiso   1.00
F482   F     0.05855   0.95844   0.29248   0.00000  Uiso   1.00
N483   N     0.19937   0.76838   0.29425   0.00000  Uiso   1.00
O484   O     0.19412   0.73104   0.28180   0.00000  Uiso   1.00
O485   O     0.20531   0.77337   0.33365   0.00000  Uiso   1.00
N486   N     0.13328   0.90110   0.21033   0.00000  Uiso   1.00
O487   O     0.14569   0.93754   0.22032   0.00000  Uiso   1.00
O488   O     0.11387   0.89813   0.17765   0.00000  Uiso   1.00
F489   F     0.10367   0.77246   0.29494   0.00000  Uiso   1.00
F490   F     0.22986   0.89419   0.20528   0.00000  Uiso   1.00
O491   O     0.37291   0.77322   0.25000   0.00000  Uiso   1.00
O492   O     0.62709   0.89345   0.25000   0.00000  Uiso   1.00
O493   O     0.62706   0.77321   0.25000   0.00000  Uiso   1.00
O494   O     0.37294   0.89346   0.24999   0.00000  Uiso   1.00
C495   C     0.66652   0.75412   0.24981   0.00000  Uiso   1.00
C496   C     0.33349   0.91254   0.25016   0.00000  Uiso   1.00
O497   O     0.35186   0.83334   0.31491   0.00000  Uiso   1.00
O498   O     0.64814   0.83332   0.18508   0.00000  Uiso   1.00
O499   O     0.60600   0.83333   0.31492   0.00000  Uiso   1.00
O500   O     0.39400   0.83333   0.18508   0.00000  Uiso   1.00
C501   C     0.63904   0.83317   0.33621   0.00000  Uiso   1.00
C502   C     0.36113   0.83503   0.16382   0.00000  Uiso   1.00
Cu503  Cu    0.38022   0.83334   0.25000   0.00000  Uiso   1.00
Cu504  Cu    0.61978   0.83333   0.25000   0.00000  Uiso   1.00
C505   C     0.62398   0.83518   0.38565   0.00000  Uiso   1.00
C506   C     0.37789   0.84453   0.11498   0.00000  Uiso   1.00
C507   C     0.64364   0.83266   0.45646   0.00000  Uiso   1.00
C508   C     0.36658   0.87907   0.04860   0.00000  Uiso   1.00
C509   C     0.65814   0.83038   0.40999   0.00000  Uiso   1.00
C510   C     0.34790   0.86510   0.09309   0.00000  Uiso   1.00
C511   C     0.57533   0.84319   0.40886   0.00000  Uiso   1.00
C512   C     0.42688   0.83849   0.09152   0.00000  Uiso   1.00
C513   C     0.56169   0.85057   0.45519   0.00000  Uiso   1.00
C514   C     0.44755   0.85702   0.04851   0.00000  Uiso   1.00
C515   C     0.59566   0.84189   0.47921   0.00000  Uiso   1.00
C516   C     0.41597   0.87496   0.02608   0.00000  Uiso   1.00
C517   C     0.51427   0.86351   0.47894   0.00000  Uiso   1.00
C518   C     0.49824   0.85632   0.02618   0.00000  Uiso   1.00
C519   C     0.53392   0.85126   0.04937   0.00000  Uiso   1.00
C520   C     0.48308   0.88525   0.45820   0.00000  Uiso   1.00
C521   C     0.58175   0.84340   0.02573   0.00000  Uiso   1.00
C522   C     0.43423   0.88991   0.48189   0.00000  Uiso   1.00
H523   H     0.60849   0.83951   0.04391   0.00000  Uiso   1.00
H524   H     0.41051   0.90623   0.46598   0.00000  Uiso   1.00
H525   H     0.33680   0.82734   0.47469   0.00000  Uiso   1.00
H526   H     0.34263   0.89426   0.03210   0.00000  Uiso   1.00
C527   C     0.63654   0.68800   0.22900   0.00000  Uiso   1.00
C528   C     0.36364   0.97865   0.27078   0.00000  Uiso   1.00
C529   C     0.63683   0.97860   0.22941   0.00000  Uiso   1.00
C530   C     0.36330   0.68805   0.27041   0.00000  Uiso   1.00
H531   H     0.61405   0.96231   0.21288   0.00000  Uiso   1.00
H532   H     0.38610   0.70433   0.28692   0.00000  Uiso   1.00
C533   C     0.33373   0.95717   0.25013   0.00000  Uiso   1.00
C534   C     0.66635   0.70948   0.24974   0.00000  Uiso   1.00
C535   C     0.51716   0.80225   0.27171   0.00000  Uiso   1.00
C536   C     0.48267   0.86508   0.22932   0.00000  Uiso   1.00
C537   C     0.46786   0.80253   0.27160   0.00000  Uiso   1.00
C538   C     0.53220   0.86419   0.22857   0.00000  Uiso   1.00
N539   N     0.45069   0.83334   0.24999   0.00000  Uiso   1.00
N540   N     0.54931   0.83332   0.25001   0.00000  Uiso   1.00
F541   F     0.45296   0.81187   0.10950   0.00000  Uiso   1.00
F542   F     0.54073   0.84062   0.38708   0.00000  Uiso   1.00
F543   F     0.63432   0.87294   0.11497   0.00000  Uiso   1.00
F544   F     0.37194   0.82198   0.38930   0.00000  Uiso   1.00
N545   N     0.52528   0.86420   0.09443   0.00000  Uiso   1.00
O546   O     0.51751   0.90310   0.10215   0.00000  Uiso   1.00
O547   O     0.53903   0.84117   0.12334   0.00000  Uiso   1.00
N548   N     0.50165   0.90844   0.41651   0.00000  Uiso   1.00
O549   O     0.54283   0.92864   0.40809   0.00000  Uiso   1.00
O550   O     0.47466   0.91397   0.38967   0.00000  Uiso   1.00
F551   F     0.60844   0.70821   0.20714   0.00000  Uiso   1.00
F552   F     0.39188   0.95844   0.29248   0.00000  Uiso   1.00
N553   N     0.53270   0.76838   0.29425   0.00000  Uiso   1.00
O554   O     0.52745   0.73104   0.28180   0.00000  Uiso   1.00
O555   O     0.53865   0.77337   0.33365   0.00000  Uiso   1.00
N556   N     0.46662   0.90110   0.21033   0.00000  Uiso   1.00
O557   O     0.47902   0.93754   0.22032   0.00000  Uiso   1.00
O558   O     0.44720   0.89813   0.17765   0.00000  Uiso   1.00
F559   F     0.43700   0.77246   0.29494   0.00000  Uiso   1.00
F560   F     0.56320   0.89419   0.20528   0.00000  Uiso   1.00
O561   O     0.70625   0.77322   0.25000   0.00000  Uiso   1.00
O562   O     0.96042   0.89345   0.25000   0.00000  Uiso   1.00
O563   O     0.96039   0.77321   0.25000   0.00000  Uiso   1.00
O564   O     0.70628   0.89346   0.24999   0.00000  Uiso   1.00
C565   C     0.99985   0.75412   0.24981   0.00000  Uiso   1.00
C566   C     0.66683   0.91254   0.25016   0.00000  Uiso   1.00
O567   O     0.68519   0.83334   0.31491   0.00000  Uiso   1.00
O568   O     0.98148   0.83332   0.18508   0.00000  Uiso   1.00
O569   O     0.93933   0.83333   0.31492   0.00000  Uiso   1.00
O570   O     0.72733   0.83333   0.18508   0.00000  Uiso   1.00
C571   C     0.97238   0.83317   0.33621   0.00000  Uiso   1.00
C572   C     0.69447   0.83503   0.16382   0.00000  Uiso   1.00
Cu573  Cu    0.71355   0.83334   0.25000   0.00000  Uiso   1.00
Cu574  Cu    0.95311   0.83333   0.25000   0.00000  Uiso   1.00
C575   C     0.95731   0.83518   0.38565   0.00000  Uiso   1.00
C576   C     0.71122   0.84453   0.11498   0.00000  Uiso   1.00
C577   C     0.97698   0.83266   0.45646   0.00000  Uiso   1.00
C578   C     0.69991   0.87907   0.04860   0.00000  Uiso   1.00
C579   C     0.99147   0.83038   0.40999   0.00000  Uiso   1.00
C580   C     0.68124   0.86510   0.09309   0.00000  Uiso   1.00
C581   C     0.90867   0.84319   0.40886   0.00000  Uiso   1.00
C582   C     0.76021   0.83849   0.09152   0.00000  Uiso   1.00
C583   C     0.89503   0.85057   0.45519   0.00000  Uiso   1.00
C584   C     0.78088   0.85702   0.04851   0.00000  Uiso   1.00
C585   C     0.92900   0.84189   0.47921   0.00000  Uiso   1.00
C586   C     0.74930   0.87496   0.02608   0.00000  Uiso   1.00
C587   C     0.84761   0.86351   0.47894   0.00000  Uiso   1.00
C588   C     0.83157   0.85632   0.02618   0.00000  Uiso   1.00
C589   C     0.86726   0.85126   0.04937   0.00000  Uiso   1.00
C590   C     0.81642   0.88525   0.45820   0.00000  Uiso   1.00
C591   C     0.91509   0.84340   0.02573   0.00000  Uiso   1.00
C592   C     0.76756   0.88991   0.48189   0.00000  Uiso   1.00
H593   H     0.94182   0.83951   0.04391   0.00000  Uiso   1.00
H594   H     0.74384   0.90623   0.46598   0.00000  Uiso   1.00
H595   H     0.67013   0.82734   0.47469   0.00000  Uiso   1.00
H596   H     0.67596   0.89426   0.03210   0.00000  Uiso   1.00
C597   C     0.96987   0.68800   0.22900   0.00000  Uiso   1.00
C598   C     0.69697   0.97865   0.27078   0.00000  Uiso   1.00
C599   C     0.97017   0.97860   0.22941   0.00000  Uiso   1.00
C600   C     0.69663   0.68805   0.27041   0.00000  Uiso   1.00
H601   H     0.94738   0.96231   0.21288   0.00000  Uiso   1.00
H602   H     0.71944   0.70433   0.28692   0.00000  Uiso   1.00
C603   C     0.66706   0.95717   0.25013   0.00000  Uiso   1.00
C604   C     0.99968   0.70948   0.24974   0.00000  Uiso   1.00
C605   C     0.85049   0.80225   0.27171   0.00000  Uiso   1.00
C606   C     0.81600   0.86508   0.22932   0.00000  Uiso   1.00
C607   C     0.80119   0.80253   0.27160   0.00000  Uiso   1.00
C608   C     0.86553   0.86419   0.22857   0.00000  Uiso   1.00
N609   N     0.78403   0.83334   0.24999   0.00000  Uiso   1.00
N610   N     0.88264   0.83332   0.25001   0.00000  Uiso   1.00
F611   F     0.78629   0.81187   0.10950   0.00000  Uiso   1.00
F612   F     0.87406   0.84062   0.38708   0.00000  Uiso   1.00
F613   F     0.96766   0.87294   0.11497   0.00000  Uiso   1.00
F614   F     0.70527   0.82198   0.38930   0.00000  Uiso   1.00
N615   N     0.85862   0.86420   0.09443   0.00000  Uiso   1.00
O616   O     0.85084   0.90310   0.10215   0.00000  Uiso   1.00
O617   O     0.87236   0.84117   0.12334   0.00000  Uiso   1.00
N618   N     0.83498   0.90844   0.41651   0.00000  Uiso   1.00
O619   O     0.87616   0.92864   0.40809   0.00000  Uiso   1.00
O620   O     0.80800   0.91397   0.38967   0.00000  Uiso   1.00
F621   F     0.94178   0.70821   0.20714   0.00000  Uiso   1.00
F622   F     0.72522   0.95844   0.29248   0.00000  Uiso   1.00
N623   N     0.86604   0.76838   0.29425   0.00000  Uiso   1.00
O624   O     0.86078   0.73104   0.28180   0.00000  Uiso   1.00
O625   O     0.87198   0.77337   0.33365   0.00000  Uiso   1.00
N626   N     0.79995   0.90110   0.21033   0.00000  Uiso   1.00
O627   O     0.81235   0.93754   0.22032   0.00000  Uiso   1.00
O628   O     0.78054   0.89813   0.17765   0.00000  Uiso   1.00
F629   F     0.77033   0.77246   0.29494   0.00000  Uiso   1.00
F630   F     0.89653   0.89419   0.20528   0.00000  Uiso   1.00
O631   O     0.03958   0.10655   0.75000   0.00000  Uiso   1.00
O632   O     0.29375   0.22678   0.75000   0.00000  Uiso   1.00
O633   O     0.29372   0.10654   0.75000   0.00000  Uiso   1.00
O634   O     0.03961   0.22679   0.74999   0.00000  Uiso   1.00
C635   C     0.33319   0.08746   0.74981   0.00000  Uiso   1.00
C636   C     0.00016   0.24587   0.75016   0.00000  Uiso   1.00
O637   O     0.01852   0.16668   0.81491   0.00000  Uiso   1.00
O638   O     0.31481   0.16666   0.68508   0.00000  Uiso   1.00
O639   O     0.27267   0.16667   0.81492   0.00000  Uiso   1.00
O640   O     0.06067   0.16667   0.68508   0.00000  Uiso   1.00
C641   C     0.30571   0.16651   0.83621   0.00000  Uiso   1.00
C642   C     0.02780   0.16836   0.66382   0.00000  Uiso   1.00
Cu643  Cu    0.04689   0.16667   0.75000   0.00000  Uiso   1.00
Cu644  Cu    0.28645   0.16666   0.75000   0.00000  Uiso   1.00
C645   C     0.29065   0.16851   0.88565   0.00000  Uiso   1.00
C646   C     0.04456   0.17787   0.61498   0.00000  Uiso   1.00
C647   C     0.31031   0.16599   0.95646   0.00000  Uiso   1.00
C648   C     0.03324   0.21240   0.54860   0.00000  Uiso   1.00
C649   C     0.32480   0.16371   0.90999   0.00000  Uiso   1.00
C650   C     0.01457   0.19843   0.59309   0.00000  Uiso   1.00
C651   C     0.24200   0.17652   0.90886   0.00000  Uiso   1.00
C652   C     0.09355   0.17182   0.59152   0.00000  Uiso   1.00
C653   C     0.22836   0.18390   0.95519   0.00000  Uiso   1.00
C654   C     0.11421   0.19035   0.54851   0.00000  Uiso   1.00
C655   C     0.26233   0.17522   0.97921   0.00000  Uiso   1.00
C656   C     0.08263   0.20829   0.52608   0.00000  Uiso   1.00
C657   C     0.18094   0.19684   0.97894   0.00000  Uiso   1.00
C658   C     0.16491   0.18965   0.52618   0.00000  Uiso   1.00
C659   C     0.20059   0.18460   0.54937   0.00000  Uiso   1.00
C660   C     0.14975   0.21858   0.95820   0.00000  Uiso   1.00
C661   C     0.24842   0.17673   0.52573   0.00000  Uiso   1.00
C662   C     0.10090   0.22324   0.98189   0.00000  Uiso   1.00
H663   H     0.27516   0.17285   0.54391   0.00000  Uiso   1.00
H664   H     0.07718   0.23957   0.96598   0.00000  Uiso   1.00
H665   H     0.00347   0.16067   0.97469   0.00000  Uiso   1.00
H666   H     0.00930   0.22759   0.53210   0.00000  Uiso   1.00
C667   C     0.30320   0.02133   0.72900   0.00000  Uiso   1.00
C668   C     0.03030   0.31199   0.77078   0.00000  Uiso   1.00
C669   C     0.30350   0.31194   0.72941   0.00000  Uiso   1.00
C670   C     0.02997   0.02138   0.77041   0.00000  Uiso   1.00
H671   H     0.28072   0.29564   0.71288   0.00000  Uiso   1.00
H672   H     0.05277   0.03767   0.78692   0.00000  Uiso   1.00
C673   C     0.00040   0.29050   0.75013   0.00000  Uiso   1.00
C674   C     0.33302   0.04282   0.74974   0.00000  Uiso   1.00
C675   C     0.18383   0.13559   0.77171   0.00000  Uiso   1.00
C676   C     0.14934   0.19842   0.72932   0.00000  Uiso   1.00
C677   C     0.13453   0.13586   0.77160   0.00000  Uiso   1.00
C678   C     0.19886   0.19752   0.72857   0.00000  Uiso   1.00
N679   N     0.11736   0.16668   0.74999   0.00000  Uiso   1.00
N680   N     0.21597   0.16666   0.75001   0.00000  Uiso   1.00
F681   F     0.11963   0.14521   0.60950   0.00000  Uiso   1.00
F682   F     0.20739   0.17395   0.88708   0.00000  Uiso   1.00
F683   F     0.30099   0.20627   0.61497   0.00000  Uiso   1.00
F684   F     0.03860   0.15532   0.88930   0.00000  Uiso   1.00
N685   N     0.19195   0.19753   0.59443   0.00000  Uiso   1.00
O686   O     0.18418   0.23643   0.60215   0.00000  Uiso   1.00
O687   O     0.20569   0.17451   0.62334   0.00000  Uiso   1.00
N688   N     0.16831   0.24178   0.91651   0.00000  Uiso   1.00
O689   O     0.20950   0.26197   0.90809   0.00000  Uiso   1.00
O690   O     0.14133   0.24731   0.88967   0.00000  Uiso   1.00
F691   F     0.27511   0.04154   0.70714   0.00000  Uiso   1.00
F692   F     0.05855   0.29178   0.79248   0.00000  Uiso   1.00
N693   N     0.19937   0.10171   0.79425   0.00000  Uiso   1.00
O694   O     0.19412   0.06438   0.78180   0.00000  Uiso   1.00
O695   O     0.20531   0.10670   0.83365   0.00000  Uiso   1.00
N696   N     0.13328   0.23444   0.71033   0.00000  Uiso   1.00
O697   O     0.14569   0.27087   0.72032   0.00000  Uiso   1.00
O698   O     0.11387   0.23146   0.67765   0.00000  Uiso   1.00
F699   F     0.10367   0.10579   0.79494   0.00000  Uiso   1.00
F700   F     0.22986   0.22753   0.70528   0.00000  Uiso   1.00
O701   O     0.37291   0.10655   0.75000   0.00000  Uiso   1.00
O702   O     0.62709   0.22678   0.75000   0.00000  Uiso   1.00
O703   O     0.62706   0.10654   0.75000   0.00000  Uiso   1.00
O704   O     0.37294   0.22679   0.74999   0.00000  Uiso   1.00
C705   C     0.66652   0.08746   0.74981   0.00000  Uiso   1.00
C706   C     0.33349   0.24587   0.75016   0.00000  Uiso   1.00
O707   O     0.35186   0.16668   0.81491   0.00000  Uiso   1.00
O708   O     0.64814   0.16666   0.68508   0.00000  Uiso   1.00
O709   O     0.60600   0.16667   0.81492   0.00000  Uiso   1.00
O710   O     0.39400   0.16667   0.68508   0.00000  Uiso   1.00
C711   C     0.63904   0.16651   0.83621   0.00000  Uiso   1.00
C712   C     0.36113   0.16836   0.66382   0.00000  Uiso   1.00
Cu713  Cu    0.38022   0.16667   0.75000   0.00000  Uiso   1.00
Cu714  Cu    0.61978   0.16666   0.75000   0.00000  Uiso   1.00
C715   C     0.62398   0.16851   0.88565   0.00000  Uiso   1.00
C716   C     0.37789   0.17787   0.61498   0.00000  Uiso   1.00
C717   C     0.64364   0.16599   0.95646   0.00000  Uiso   1.00
C718   C     0.36658   0.21240   0.54860   0.00000  Uiso   1.00
C719   C     0.65814   0.16371   0.90999   0.00000  Uiso   1.00
C720   C     0.34790   0.19843   0.59309   0.00000  Uiso   1.00
C721   C     0.57533   0.17652   0.90886   0.00000  Uiso   1.00
C722   C     0.42688   0.17182   0.59152   0.00000  Uiso   1.00
C723   C     0.56169   0.18390   0.95519   0.00000  Uiso   1.00
C724   C     0.44755   0.19035   0.54851   0.00000  Uiso   1.00
C725   C     0.59566   0.17522   0.97921   0.00000  Uiso   1.00
C726   C     0.41597   0.20829   0.52608   0.00000  Uiso   1.00
C727   C     0.51427   0.19684   0.97894   0.00000  Uiso   1.00
C728   C     0.49824   0.18965   0.52618   0.00000  Uiso   1.00
C729   C     0.53392   0.18460   0.54937   0.00000  Uiso   1.00
C730   C     0.48308   0.21858   0.95820   0.00000  Uiso   1.00
C731   C     0.58175   0.17673   0.52573   0.00000  Uiso   1.00
C732   C     0.43423   0.22324   0.98189   0.00000  Uiso   1.00
H733   H     0.60849   0.17285   0.54391   0.00000  Uiso   1.00
H734   H     0.41051   0.23957   0.96598   0.00000  Uiso   1.00
H735   H     0.33680   0.16067   0.97469   0.00000  Uiso   1.00
H736   H     0.34263   0.22759   0.53210   0.00000  Uiso   1.00
C737   C     0.63654   0.02133   0.72900   0.00000  Uiso   1.00
C738   C     0.36364   0.31199   0.77078   0.00000  Uiso   1.00
C739   C     0.63683   0.31194   0.72941   0.00000  Uiso   1.00
C740   C     0.36330   0.02138   0.77041   0.00000  Uiso   1.00
H741   H     0.61405   0.29564   0.71288   0.00000  Uiso   1.00
H742   H     0.38610   0.03767   0.78692   0.00000  Uiso   1.00
C743   C     0.33373   0.29050   0.75013   0.00000  Uiso   1.00
C744   C     0.66635   0.04282   0.74974   0.00000  Uiso   1.00
C745   C     0.51716   0.13559   0.77171   0.00000  Uiso   1.00
C746   C     0.48267   0.19842   0.72932   0.00000  Uiso   1.00
C747   C     0.46786   0.13586   0.77160   0.00000  Uiso   1.00
C748   C     0.53220   0.19752   0.72857   0.00000  Uiso   1.00
N749   N     0.45069   0.16668   0.74999   0.00000  Uiso   1.00
N750   N     0.54931   0.16666   0.75001   0.00000  Uiso   1.00
F751   F     0.45296   0.14521   0.60950   0.00000  Uiso   1.00
F752   F     0.54073   0.17395   0.88708   0.00000  Uiso   1.00
F753   F     0.63432   0.20627   0.61497   0.00000  Uiso   1.00
F754   F     0.37194   0.15532   0.88930   0.00000  Uiso   1.00
N755   N     0.52528   0.19753   0.59443   0.00000  Uiso   1.00
O756   O     0.51751   0.23643   0.60215   0.00000  Uiso   1.00
O757   O     0.53903   0.17451   0.62334   0.00000  Uiso   1.00
N758   N     0.50165   0.24178   0.91651   0.00000  Uiso   1.00
O759   O     0.54283   0.26197   0.90809   0.00000  Uiso   1.00
O760   O     0.47466   0.24731   0.88967   0.00000  Uiso   1.00
F761   F     0.60844   0.04154   0.70714   0.00000  Uiso   1.00
F762   F     0.39188   0.29178   0.79248   0.00000  Uiso   1.00
N763   N     0.53270   0.10171   0.79425   0.00000  Uiso   1.00
O764   O     0.52745   0.06438   0.78180   0.00000  Uiso   1.00
O765   O     0.53865   0.10670   0.83365   0.00000  Uiso   1.00
N766   N     0.46662   0.23444   0.71033   0.00000  Uiso   1.00
O767   O     0.47902   0.27087   0.72032   0.00000  Uiso   1.00
O768   O     0.44720   0.23146   0.67765   0.00000  Uiso   1.00
F769   F     0.43700   0.10579   0.79494   0.00000  Uiso   1.00
F770   F     0.56320   0.22753   0.70528   0.00000  Uiso   1.00
O771   O     0.70625   0.10655   0.75000   0.00000  Uiso   1.00
O772   O     0.96042   0.22678   0.75000   0.00000  Uiso   1.00
O773   O     0.96039   0.10654   0.75000   0.00000  Uiso   1.00
O774   O     0.70628   0.22679   0.74999   0.00000  Uiso   1.00
C775   C     0.99985   0.08746   0.74981   0.00000  Uiso   1.00
C776   C     0.66683   0.24587   0.75016   0.00000  Uiso   1.00
O777   O     0.68519   0.16668   0.81491   0.00000  Uiso   1.00
O778   O     0.98148   0.16666   0.68508   0.00000  Uiso   1.00
O779   O     0.93933   0.16667   0.81492   0.00000  Uiso   1.00
O780   O     0.72733   0.16667   0.68508   0.00000  Uiso   1.00
C781   C     0.97238   0.16651   0.83621   0.00000  Uiso   1.00
C782   C     0.69447   0.16836   0.66382   0.00000  Uiso   1.00
Cu783  Cu    0.71355   0.16667   0.75000   0.00000  Uiso   1.00
Cu784  Cu    0.95311   0.16666   0.75000   0.00000  Uiso   1.00
C785   C     0.95731   0.16851   0.88565   0.00000  Uiso   1.00
C786   C     0.71122   0.17787   0.61498   0.00000  Uiso   1.00
C787   C     0.97698   0.16599   0.95646   0.00000  Uiso   1.00
C788   C     0.69991   0.21240   0.54860   0.00000  Uiso   1.00
C789   C     0.99147   0.16371   0.90999   0.00000  Uiso   1.00
C790   C     0.68124   0.19843   0.59309   0.00000  Uiso   1.00
C791   C     0.90867   0.17652   0.90886   0.00000  Uiso   1.00
C792   C     0.76021   0.17182   0.59152   0.00000  Uiso   1.00
C793   C     0.89503   0.18390   0.95519   0.00000  Uiso   1.00
C794   C     0.78088   0.19035   0.54851   0.00000  Uiso   1.00
C795   C     0.92900   0.17522   0.97921   0.00000  Uiso   1.00
C796   C     0.74930   0.20829   0.52608   0.00000  Uiso   1.00
C797   C     0.84761   0.19684   0.97894   0.00000  Uiso   1.00
C798   C     0.83157   0.18965   0.52618   0.00000  Uiso   1.00
C799   C     0.86726   0.18460   0.54937   0.00000  Uiso   1.00
C800   C     0.81642   0.21858   0.95820   0.00000  Uiso   1.00
C801   C     0.91509   0.17673   0.52573   0.00000  Uiso   1.00
C802   C     0.76756   0.22324   0.98189   0.00000  Uiso   1.00
H803   H     0.94182   0.17285   0.54391   0.00000  Uiso   1.00
H804   H     0.74384   0.23957   0.96598   0.00000  Uiso   1.00
H805   H     0.67013   0.16067   0.97469   0.00000  Uiso   1.00
H806   H     0.67596   0.22759   0.53210   0.00000  Uiso   1.00
C807   C     0.96987   0.02133   0.72900   0.00000  Uiso   1.00
C808   C     0.69697   0.31199   0.77078   0.00000  Uiso   1.00
C809   C     0.97017   0.31194   0.72941   0.00000  Uiso   1.00
C810   C     0.69663   0.02138   0.77041   0.00000  Uiso   1.00
H811   H     0.94738   0.29564   0.71288   0.00000  Uiso   1.00
H812   H     0.71944   0.03767   0.78692   0.00000  Uiso   1.00
C813   C     0.66706   0.29050   0.75013   0.00000  Uiso   1.00
C814   C     0.99968   0.04282   0.74974   0.00000  Uiso   1.00
C815   C     0.85049   0.13559   0.77171   0.00000  Uiso   1.00
C816   C     0.81600   0.19842   0.72932   0.00000  Uiso   1.00
C817   C     0.80119   0.13586   0.77160   0.00000  Uiso   1.00
C818   C     0.86553   0.19752   0.72857   0.00000  Uiso   1.00
N819   N     0.78403   0.16668   0.74999   0.00000  Uiso   1.00
N820   N     0.88264   0.16666   0.75001   0.00000  Uiso   1.00
F821   F     0.78629   0.14521   0.60950   0.00000  Uiso   1.00
F822   F     0.87406   0.17395   0.88708   0.00000  Uiso   1.00
F823   F     0.96766   0.20627   0.61497   0.00000  Uiso   1.00
F824   F     0.70527   0.15532   0.88930   0.00000  Uiso   1.00
N825   N     0.85862   0.19753   0.59443   0.00000  Uiso   1.00
O826   O     0.85084   0.23643   0.60215   0.00000  Uiso   1.00
O827   O     0.87236   0.17451   0.62334   0.00000  Uiso   1.00
N828   N     0.83498   0.24178   0.91651   0.00000  Uiso   1.00
O829   O     0.87616   0.26197   0.90809   0.00000  Uiso   1.00
O830   O     0.80800   0.24731   0.88967   0.00000  Uiso   1.00
F831   F     0.94178   0.04154   0.70714   0.00000  Uiso   1.00
F832   F     0.72522   0.29178   0.79248   0.00000  Uiso   1.00
N833   N     0.86604   0.10171   0.79425   0.00000  Uiso   1.00
O834   O     0.86078   0.06438   0.78180   0.00000  Uiso   1.00
O835   O     0.87198   0.10670   0.83365   0.00000  Uiso   1.00
N836   N     0.79995   0.23444   0.71033   0.00000  Uiso   1.00
O837   O     0.81235   0.27087   0.72032   0.00000  Uiso   1.00
O838   O     0.78054   0.23146   0.67765   0.00000  Uiso   1.00
F839   F     0.77033   0.10579   0.79494   0.00000  Uiso   1.00
F840   F     0.89653   0.22753   0.70528   0.00000  Uiso   1.00
O841   O     0.03958   0.43989   0.75000   0.00000  Uiso   1.00
O842   O     0.29375   0.56011   0.75000   0.00000  Uiso   1.00
O843   O     0.29372   0.43988   0.75000   0.00000  Uiso   1.00
O844   O     0.03961   0.56012   0.74999   0.00000  Uiso   1.00
C845   C     0.33319   0.42079   0.74981   0.00000  Uiso   1.00
C846   C     0.00016   0.57921   0.75016   0.00000  Uiso   1.00
O847   O     0.01852   0.50001   0.81491   0.00000  Uiso   1.00
O848   O     0.31481   0.49999   0.68508   0.00000  Uiso   1.00
O849   O     0.27267   0.50000   0.81492   0.00000  Uiso   1.00
O850   O     0.06067   0.50000   0.68508   0.00000  Uiso   1.00
C851   C     0.30571   0.49984   0.83621   0.00000  Uiso   1.00
C852   C     0.02780   0.50169   0.66382   0.00000  Uiso   1.00
Cu853  Cu    0.04689   0.50001   0.75000   0.00000  Uiso   1.00
Cu854  Cu    0.28645   0.49999   0.75000   0.00000  Uiso   1.00
C855   C     0.29065   0.50185   0.88565   0.00000  Uiso   1.00
C856   C     0.04456   0.51120   0.61498   0.00000  Uiso   1.00
C857   C     0.31031   0.49933   0.95646   0.00000  Uiso   1.00
C858   C     0.03324   0.54573   0.54860   0.00000  Uiso   1.00
C859   C     0.32480   0.49705   0.90999   0.00000  Uiso   1.00
C860   C     0.01457   0.53176   0.59309   0.00000  Uiso   1.00
C861   C     0.24200   0.50986   0.90886   0.00000  Uiso   1.00
C862   C     0.09355   0.50516   0.59152   0.00000  Uiso   1.00
C863   C     0.22836   0.51724   0.95519   0.00000  Uiso   1.00
C864   C     0.11421   0.52369   0.54851   0.00000  Uiso   1.00
C865   C     0.26233   0.50855   0.97921   0.00000  Uiso   1.00
C866   C     0.08263   0.54162   0.52608   0.00000  Uiso   1.00
C867   C     0.18094   0.53018   0.97894   0.00000  Uiso   1.00
C868   C     0.16491   0.52299   0.52618   0.00000  Uiso   1.00
C869   C     0.20059   0.51793   0.54937   0.00000  Uiso   1.00
C870   C     0.14975   0.55192   0.95820   0.00000  Uiso   1.00
C871   C     0.24842   0.51006   0.52573   0.00000  Uiso   1.00
C872   C     0.10090   0.55657   0.98189   0.00000  Uiso   1.00
H873   H     0.27516   0.50618   0.54391   0.00000  Uiso   1.00
H874   H     0.07718   0.57290   0.96598   0.00000  Uiso   1.00
H875   H     0.00347   0.49400   0.97469   0.00000  Uiso   1.00
H876   H     0.00930   0.56093   0.53210   0.00000  Uiso   1.00
C877   C     0.30320   0.35467   0.72900   0.00000  Uiso   1.00
C878   C     0.03030   0.64532   0.77078   0.00000  Uiso   1.00
C879   C     0.30350   0.64527   0.72941   0.00000  Uiso   1.00
C880   C     0.02997   0.35471   0.77041   0.00000  Uiso   1.00
H881   H     0.28072   0.62898   0.71288   0.00000  Uiso   1.00
H882   H     0.05277   0.37100   0.78692   0.00000  Uiso   1.00
C883   C     0.00040   0.62384   0.75013   0.00000  Uiso   1.00
C884   C     0.33302   0.37615   0.74974   0.00000  Uiso   1.00
C885   C     0.18383   0.46892   0.77171   0.00000  Uiso   1.00
C886   C     0.14934   0.53175   0.72932   0.00000  Uiso   1.00
C887   C     0.13453   0.46920   0.77160   0.00000  Uiso   1.00
C888   C     0.19886   0.53085   0.72857   0.00000  Uiso   1.00
N889   N     0.11736   0.50001   0.74999   0.00000  Uiso   1.00
N890   N     0.21597   0.49999   0.75001   0.00000  Uiso   1.00
F891   F     0.11963   0.47854   0.60950   0.00000  Uiso   1.00
F892   F     0.20739   0.50728   0.88708   0.00000  Uiso   1.00
F893   F     0.30099   0.53961   0.61497   0.00000  Uiso   1.00
F894   F     0.03860   0.48865   0.88930   0.00000  Uiso   1.00
N895   N     0.19195   0.53086   0.59443   0.00000  Uiso   1.00
O896   O     0.18418   0.56976   0.60215   0.00000  Uiso   1.00
O897   O     0.20569   0.50784   0.62334   0.00000  Uiso   1.00
N898   N     0.16831   0.57511   0.91651   0.00000  Uiso   1.00
O899   O     0.20950   0.59530   0.90809   0.00000  Uiso   1.00
O900   O     0.14133   0.58064   0.88967   0.00000  Uiso   1.00
F901   F     0.27511   0.37488   0.70714   0.00000  Uiso   1.00
F902   F     0.05855   0.62511   0.79248   0.00000  Uiso   1.00
N903   N     0.19937   0.43504   0.79425   0.00000  Uiso   1.00
O904   O     0.19412   0.39771   0.78180   0.00000  Uiso   1.00
O905   O     0.20531   0.44003   0.83365   0.00000  Uiso   1.00
N906   N     0.13328   0.56777   0.71033   0.00000  Uiso   1.00
O907   O     0.14569   0.60421   0.72032   0.00000  Uiso   1.00
O908   O     0.11387   0.56479   0.67765   0.00000  Uiso   1.00
F909   F     0.10367   0.43913   0.79494   0.00000  Uiso   1.00
F910   F     0.22986   0.56086   0.70528   0.00000  Uiso   1.00
O911   O     0.37291   0.43989   0.75000   0.00000  Uiso   1.00
O912   O     0.62709   0.56011   0.75000   0.00000  Uiso   1.00
O913   O     0.62706   0.43988   0.75000   0.00000  Uiso   1.00
O914   O     0.37294   0.56012   0.74999   0.00000  Uiso   1.00
C915   C     0.66652   0.42079   0.74981   0.00000  Uiso   1.00
C916   C     0.33349   0.57921   0.75016   0.00000  Uiso   1.00
O917   O     0.35186   0.50001   0.81491   0.00000  Uiso   1.00
O918   O     0.64814   0.49999   0.68508   0.00000  Uiso   1.00
O919   O     0.60600   0.50000   0.81492   0.00000  Uiso   1.00
O920   O     0.39400   0.50000   0.68508   0.00000  Uiso   1.00
C921   C     0.63904   0.49984   0.83621   0.00000  Uiso   1.00
C922   C     0.36113   0.50169   0.66382   0.00000  Uiso   1.00
Cu923  Cu    0.38022   0.50001   0.75000   0.00000  Uiso   1.00
Cu924  Cu    0.61978   0.49999   0.75000   0.00000  Uiso   1.00
C925   C     0.62398   0.50185   0.88565   0.00000  Uiso   1.00
C926   C     0.37789   0.51120   0.61498   0.00000  Uiso   1.00
C927   C     0.64364   0.49933   0.95646   0.00000  Uiso   1.00
C928   C     0.36658   0.54573   0.54860   0.00000  Uiso   1.00
C929   C     0.65814   0.49705   0.90999   0.00000  Uiso   1.00
C930   C     0.34790   0.53176   0.59309   0.00000  Uiso   1.00
C931   C     0.57533   0.50986   0.90886   0.00000  Uiso   1.00
C932   C     0.42688   0.50516   0.59152   0.00000  Uiso   1.00
C933   C     0.56169   0.51724   0.95519   0.00000  Uiso   1.00
C934   C     0.44755   0.52369   0.54851   0.00000  Uiso   1.00
C935   C     0.59566   0.50855   0.97921   0.00000  Uiso   1.00
C936   C     0.41597   0.54162   0.52608   0.00000  Uiso   1.00
C937   C     0.51427   0.53018   0.97894   0.00000  Uiso   1.00
C938   C     0.49824   0.52299   0.52618   0.00000  Uiso   1.00
C939   C     0.53392   0.51793   0.54937   0.00000  Uiso   1.00
C940   C     0.48308   0.55192   0.95820   0.00000  Uiso   1.00
C941   C     0.58175   0.51006   0.52573   0.00000  Uiso   1.00
C942   C     0.43423   0.55657   0.98189   0.00000  Uiso   1.00
H943   H     0.60849   0.50618   0.54391   0.00000  Uiso   1.00
H944   H     0.41051   0.57290   0.96598   0.00000  Uiso   1.00
H945   H     0.33680   0.49400   0.97469   0.00000  Uiso   1.00
H946   H     0.34263   0.56093   0.53210   0.00000  Uiso   1.00
C947   C     0.63654   0.35467   0.72900   0.00000  Uiso   1.00
C948   C     0.36364   0.64532   0.77078   0.00000  Uiso   1.00
C949   C     0.63683   0.64527   0.72941   0.00000  Uiso   1.00
C950   C     0.36330   0.35471   0.77041   0.00000  Uiso   1.00
H951   H     0.61405   0.62898   0.71288   0.00000  Uiso   1.00
H952   H     0.38610   0.37100   0.78692   0.00000  Uiso   1.00
C953   C     0.33373   0.62384   0.75013   0.00000  Uiso   1.00
C954   C     0.66635   0.37615   0.74974   0.00000  Uiso   1.00
C955   C     0.51716   0.46892   0.77171   0.00000  Uiso   1.00
C956   C     0.48267   0.53175   0.72932   0.00000  Uiso   1.00
C957   C     0.46786   0.46920   0.77160   0.00000  Uiso   1.00
C958   C     0.53220   0.53085   0.72857   0.00000  Uiso   1.00
N959   N     0.45069   0.50001   0.74999   0.00000  Uiso   1.00
N960   N     0.54931   0.49999   0.75001   0.00000  Uiso   1.00
F961   F     0.45296   0.47854   0.60950   0.00000  Uiso   1.00
F962   F     0.54073   0.50728   0.88708   0.00000  Uiso   1.00
F963   F     0.63432   0.53961   0.61497   0.00000  Uiso   1.00
F964   F     0.37194   0.48865   0.88930   0.00000  Uiso   1.00
N965   N     0.52528   0.53086   0.59443   0.00000  Uiso   1.00
O966   O     0.51751   0.56976   0.60215   0.00000  Uiso   1.00
O967   O     0.53903   0.50784   0.62334   0.00000  Uiso   1.00
N968   N     0.50165   0.57511   0.91651   0.00000  Uiso   1.00
O969   O     0.54283   0.59530   0.90809   0.00000  Uiso   1.00
O970   O     0.47466   0.58064   0.88967   0.00000  Uiso   1.00
F971   F     0.60844   0.37488   0.70714   0.00000  Uiso   1.00
F972   F     0.39188   0.62511   0.79248   0.00000  Uiso   1.00
N973   N     0.53270   0.43504   0.79425   0.00000  Uiso   1.00
O974   O     0.52745   0.39771   0.78180   0.00000  Uiso   1.00
O975   O     0.53865   0.44003   0.83365   0.00000  Uiso   1.00
N976   N     0.46662   0.56777   0.71033   0.00000  Uiso   1.00
O977   O     0.47902   0.60421   0.72032   0.00000  Uiso   1.00
O978   O     0.44720   0.56479   0.67765   0.00000  Uiso   1.00
F979   F     0.43700   0.43913   0.79494   0.00000  Uiso   1.00
F980   F     0.56320   0.56086   0.70528   0.00000  Uiso   1.00
O981   O     0.70625   0.43989   0.75000   0.00000  Uiso   1.00
O982   O     0.96042   0.56011   0.75000   0.00000  Uiso   1.00
O983   O     0.96039   0.43988   0.75000   0.00000  Uiso   1.00
O984   O     0.70628   0.56012   0.74999   0.00000  Uiso   1.00
C985   C     0.99985   0.42079   0.74981   0.00000  Uiso   1.00
C986   C     0.66683   0.57921   0.75016   0.00000  Uiso   1.00
O987   O     0.68519   0.50001   0.81491   0.00000  Uiso   1.00
O988   O     0.98148   0.49999   0.68508   0.00000  Uiso   1.00
O989   O     0.93933   0.50000   0.81492   0.00000  Uiso   1.00
O990   O     0.72733   0.50000   0.68508   0.00000  Uiso   1.00
C991   C     0.97238   0.49984   0.83621   0.00000  Uiso   1.00
C992   C     0.69447   0.50169   0.66382   0.00000  Uiso   1.00
Cu993  Cu    0.71355   0.50001   0.75000   0.00000  Uiso   1.00
Cu994  Cu    0.95311   0.49999   0.75000   0.00000  Uiso   1.00
C995   C     0.95731   0.50185   0.88565   0.00000  Uiso   1.00
C996   C     0.71122   0.51120   0.61498   0.00000  Uiso   1.00
C997   C     0.97698   0.49933   0.95646   0.00000  Uiso   1.00
C998   C     0.69991   0.54573   0.54860   0.00000  Uiso   1.00
C999   C     0.99147   0.49705   0.90999   0.00000  Uiso   1.00
C1000  C     0.68124   0.53176   0.59309   0.00000  Uiso   1.00
C1001  C     0.90867   0.50986   0.90886   0.00000  Uiso   1.00
C1002  C     0.76021   0.50516   0.59152   0.00000  Uiso   1.00
C1003  C     0.89503   0.51724   0.95519   0.00000  Uiso   1.00
C1004  C     0.78088   0.52369   0.54851   0.00000  Uiso   1.00
C1005  C     0.92900   0.50855   0.97921   0.00000  Uiso   1.00
C1006  C     0.74930   0.54162   0.52608   0.00000  Uiso   1.00
C1007  C     0.84761   0.53018   0.97894   0.00000  Uiso   1.00
C1008  C     0.83157   0.52299   0.52618   0.00000  Uiso   1.00
C1009  C     0.86726   0.51793   0.54937   0.00000  Uiso   1.00
C1010  C     0.81642   0.55192   0.95820   0.00000  Uiso   1.00
C1011  C     0.91509   0.51006   0.52573   0.00000  Uiso   1.00
C1012  C     0.76756   0.55657   0.98189   0.00000  Uiso   1.00
H1013  H     0.94182   0.50618   0.54391   0.00000  Uiso   1.00
H1014  H     0.74384   0.57290   0.96598   0.00000  Uiso   1.00
H1015  H     0.67013   0.49400   0.97469   0.00000  Uiso   1.00
H1016  H     0.67596   0.56093   0.53210   0.00000  Uiso   1.00
C1017  C     0.96987   0.35467   0.72900   0.00000  Uiso   1.00
C1018  C     0.69697   0.64532   0.77078   0.00000  Uiso   1.00
C1019  C     0.97017   0.64527   0.72941   0.00000  Uiso   1.00
C1020  C     0.69663   0.35471   0.77041   0.00000  Uiso   1.00
H1021  H     0.94738   0.62898   0.71288   0.00000  Uiso   1.00
H1022  H     0.71944   0.37100   0.78692   0.00000  Uiso   1.00
C1023  C     0.66706   0.62384   0.75013   0.00000  Uiso   1.00
C1024  C     0.99968   0.37615   0.74974   0.00000  Uiso   1.00
C1025  C     0.85049   0.46892   0.77171   0.00000  Uiso   1.00
C1026  C     0.81600   0.53175   0.72932   0.00000  Uiso   1.00
C1027  C     0.80119   0.46920   0.77160   0.00000  Uiso   1.00
C1028  C     0.86553   0.53085   0.72857   0.00000  Uiso   1.00
N1029  N     0.78403   0.50001   0.74999   0.00000  Uiso   1.00
N1030  N     0.88264   0.49999   0.75001   0.00000  Uiso   1.00
F1031  F     0.78629   0.47854   0.60950   0.00000  Uiso   1.00
F1032  F     0.87406   0.50728   0.88708   0.00000  Uiso   1.00
F1033  F     0.96766   0.53961   0.61497   0.00000  Uiso   1.00
F1034  F     0.70527   0.48865   0.88930   0.00000  Uiso   1.00
N1035  N     0.85862   0.53086   0.59443   0.00000  Uiso   1.00
O1036  O     0.85084   0.56976   0.60215   0.00000  Uiso   1.00
O1037  O     0.87236   0.50784   0.62334   0.00000  Uiso   1.00
N1038  N     0.83498   0.57511   0.91651   0.00000  Uiso   1.00
O1039  O     0.87616   0.59530   0.90809   0.00000  Uiso   1.00
O1040  O     0.80800   0.58064   0.88967   0.00000  Uiso   1.00
F1041  F     0.94178   0.37488   0.70714   0.00000  Uiso   1.00
F1042  F     0.72522   0.62511   0.79248   0.00000  Uiso   1.00
N1043  N     0.86604   0.43504   0.79425   0.00000  Uiso   1.00
O1044  O     0.86078   0.39771   0.78180   0.00000  Uiso   1.00
O1045  O     0.87198   0.44003   0.83365   0.00000  Uiso   1.00
N1046  N     0.79995   0.56777   0.71033   0.00000  Uiso   1.00
O1047  O     0.81235   0.60421   0.72032   0.00000  Uiso   1.00
O1048  O     0.78054   0.56479   0.67765   0.00000  Uiso   1.00
F1049  F     0.77033   0.43913   0.79494   0.00000  Uiso   1.00
F1050  F     0.89653   0.56086   0.70528   0.00000  Uiso   1.00
O1051  O     0.03958   0.77322   0.75000   0.00000  Uiso   1.00
O1052  O     0.29375   0.89345   0.75000   0.00000  Uiso   1.00
O1053  O     0.29372   0.77321   0.75000   0.00000  Uiso   1.00
O1054  O     0.03961   0.89346   0.74999   0.00000  Uiso   1.00
C1055  C     0.33319   0.75412   0.74981   0.00000  Uiso   1.00
C1056  C     0.00016   0.91254   0.75016   0.00000  Uiso   1.00
O1057  O     0.01852   0.83334   0.81491   0.00000  Uiso   1.00
O1058  O     0.31481   0.83332   0.68508   0.00000  Uiso   1.00
O1059  O     0.27267   0.83333   0.81492   0.00000  Uiso   1.00
O1060  O     0.06067   0.83333   0.68508   0.00000  Uiso   1.00
C1061  C     0.30571   0.83317   0.83621   0.00000  Uiso   1.00
C1062  C     0.02780   0.83503   0.66382   0.00000  Uiso   1.00
Cu1063 Cu    0.04689   0.83334   0.75000   0.00000  Uiso   1.00
Cu1064 Cu    0.28645   0.83333   0.75000   0.00000  Uiso   1.00
C1065  C     0.29065   0.83518   0.88565   0.00000  Uiso   1.00
C1066  C     0.04456   0.84453   0.61498   0.00000  Uiso   1.00
C1067  C     0.31031   0.83266   0.95646   0.00000  Uiso   1.00
C1068  C     0.03324   0.87907   0.54860   0.00000  Uiso   1.00
C1069  C     0.32480   0.83038   0.90999   0.00000  Uiso   1.00
C1070  C     0.01457   0.86510   0.59309   0.00000  Uiso   1.00
C1071  C     0.24200   0.84319   0.90886   0.00000  Uiso   1.00
C1072  C     0.09355   0.83849   0.59152   0.00000  Uiso   1.00
C1073  C     0.22836   0.85057   0.95519   0.00000  Uiso   1.00
C1074  C     0.11421   0.85702   0.54851   0.00000  Uiso   1.00
C1075  C     0.26233   0.84189   0.97921   0.00000  Uiso   1.00
C1076  C     0.08263   0.87496   0.52608   0.00000  Uiso   1.00
C1077  C     0.18094   0.86351   0.97894   0.00000  Uiso   1.00
C1078  C     0.16491   0.85632   0.52618   0.00000  Uiso   1.00
C1079  C     0.20059   0.85126   0.54937   0.00000  Uiso   1.00
C1080  C     0.14975   0.88525   0.95820   0.00000  Uiso   1.00
C1081  C     0.24842   0.84340   0.52573   0.00000  Uiso   1.00
C1082  C     0.10090   0.88991   0.98189   0.00000  Uiso   1.00
H1083  H     0.27516   0.83951   0.54391   0.00000  Uiso   1.00
H1084  H     0.07718   0.90623   0.96598   0.00000  Uiso   1.00
H1085  H     0.00347   0.82734   0.97469   0.00000  Uiso   1.00
H1086  H     0.00930   0.89426   0.53210   0.00000  Uiso   1.00
C1087  C     0.30320   0.68800   0.72900   0.00000  Uiso   1.00
C1088  C     0.03030   0.97865   0.77078   0.00000  Uiso   1.00
C1089  C     0.30350   0.97860   0.72941   0.00000  Uiso   1.00
C1090  C     0.02997   0.68805   0.77041   0.00000  Uiso   1.00
H1091  H     0.28072   0.96231   0.71288   0.00000  Uiso   1.00
H1092  H     0.05277   0.70433   0.78692   0.00000  Uiso   1.00
C1093  C     0.00040   0.95717   0.75013   0.00000  Uiso   1.00
C1094  C     0.33302   0.70948   0.74974   0.00000  Uiso   1.00
C1095  C     0.18383   0.80225   0.77171   0.00000  Uiso   1.00
C1096  C     0.14934   0.86508   0.72932   0.00000  Uiso   1.00
C1097  C     0.13453   0.80253   0.77160   0.00000  Uiso   1.00
C1098  C     0.19886   0.86419   0.72857   0.00000  Uiso   1.00
N1099  N     0.11736   0.83334   0.74999   0.00000  Uiso   1.00
N1100  N     0.21597   0.83332   0.75001   0.00000  Uiso   1.00
F1101  F     0.11963   0.81187   0.60950   0.00000  Uiso   1.00
F1102  F     0.20739   0.84062   0.88708   0.00000  Uiso   1.00
F1103  F     0.30099   0.87294   0.61497   0.00000  Uiso   1.00
F1104  F     0.03860   0.82198   0.88930   0.00000  Uiso   1.00
N1105  N     0.19195   0.86420   0.59443   0.00000  Uiso   1.00
O1106  O     0.18418   0.90310   0.60215   0.00000  Uiso   1.00
O1107  O     0.20569   0.84117   0.62334   0.00000  Uiso   1.00
N1108  N     0.16831   0.90844   0.91651   0.00000  Uiso   1.00
O1109  O     0.20950   0.92864   0.90809   0.00000  Uiso   1.00
O1110  O     0.14133   0.91397   0.88967   0.00000  Uiso   1.00
F1111  F     0.27511   0.70821   0.70714   0.00000  Uiso   1.00
F1112  F     0.05855   0.95844   0.79248   0.00000  Uiso   1.00
N1113  N     0.19937   0.76838   0.79425   0.00000  Uiso   1.00
O1114  O     0.19412   0.73104   0.78180   0.00000  Uiso   1.00
O1115  O     0.20531   0.77337   0.83365   0.00000  Uiso   1.00
N1116  N     0.13328   0.90110   0.71033   0.00000  Uiso   1.00
O1117  O     0.14569   0.93754   0.72032   0.00000  Uiso   1.00
O1118  O     0.11387   0.89813   0.67765   0.00000  Uiso   1.00
F1119  F     0.10367   0.77246   0.79494   0.00000  Uiso   1.00
F1120  F     0.22986   0.89419   0.70528   0.00000  Uiso   1.00
O1121  O     0.37291   0.77322   0.75000   0.00000  Uiso   1.00
O1122  O     0.62709   0.89345   0.75000   0.00000  Uiso   1.00
O1123  O     0.62706   0.77321   0.75000   0.00000  Uiso   1.00
O1124  O     0.37294   0.89346   0.74999   0.00000  Uiso   1.00
C1125  C     0.66652   0.75412   0.74981   0.00000  Uiso   1.00
C1126  C     0.33349   0.91254   0.75016   0.00000  Uiso   1.00
O1127  O     0.35186   0.83334   0.81491   0.00000  Uiso   1.00
O1128  O     0.64814   0.83332   0.68508   0.00000  Uiso   1.00
O1129  O     0.60600   0.83333   0.81492   0.00000  Uiso   1.00
O1130  O     0.39400   0.83333   0.68508   0.00000  Uiso   1.00
C1131  C     0.63904   0.83317   0.83621   0.00000  Uiso   1.00
C1132  C     0.36113   0.83503   0.66382   0.00000  Uiso   1.00
Cu1133 Cu    0.38022   0.83334   0.75000   0.00000  Uiso   1.00
Cu1134 Cu    0.61978   0.83333   0.75000   0.00000  Uiso   1.00
C1135  C     0.62398   0.83518   0.88565   0.00000  Uiso   1.00
C1136  C     0.37789   0.84453   0.61498   0.00000  Uiso   1.00
C1137  C     0.64364   0.83266   0.95646   0.00000  Uiso   1.00
C1138  C     0.36658   0.87907   0.54860   0.00000  Uiso   1.00
C1139  C     0.65814   0.83038   0.90999   0.00000  Uiso   1.00
C1140  C     0.34790   0.86510   0.59309   0.00000  Uiso   1.00
C1141  C     0.57533   0.84319   0.90886   0.00000  Uiso   1.00
C1142  C     0.42688   0.83849   0.59152   0.00000  Uiso   1.00
C1143  C     0.56169   0.85057   0.95519   0.00000  Uiso   1.00
C1144  C     0.44755   0.85702   0.54851   0.00000  Uiso   1.00
C1145  C     0.59566   0.84189   0.97921   0.00000  Uiso   1.00
C1146  C     0.41597   0.87496   0.52608   0.00000  Uiso   1.00
C1147  C     0.51427   0.86351   0.97894   0.00000  Uiso   1.00
C1148  C     0.49824   0.85632   0.52618   0.00000  Uiso   1.00
C1149  C     0.53392   0.85126   0.54937   0.00000  Uiso   1.00
C1150  C     0.48308   0.88525   0.95820   0.00000  Uiso   1.00
C1151  C     0.58175   0.84340   0.52573   0.00000  Uiso   1.00
C1152  C     0.43423   0.88991   0.98189   0.00000  Uiso   1.00
H1153  H     0.60849   0.83951   0.54391   0.00000  Uiso   1.00
H1154  H     0.41051   0.90623   0.96598   0.00000  Uiso   1.00
H1155  H     0.33680   0.82734   0.97469   0.00000  Uiso   1.00
H1156  H     0.34263   0.89426   0.53210   0.00000  Uiso   1.00
C1157  C     0.63654   0.68800   0.72900   0.00000  Uiso   1.00
C1158  C     0.36364   0.97865   0.77078   0.00000  Uiso   1.00
C1159  C     0.63683   0.97860   0.72941   0.00000  Uiso   1.00
C1160  C     0.36330   0.68805   0.77041   0.00000  Uiso   1.00
H1161  H     0.61405   0.96231   0.71288   0.00000  Uiso   1.00
H1162  H     0.38610   0.70433   0.78692   0.00000  Uiso   1.00
C1163  C     0.33373   0.95717   0.75013   0.00000  Uiso   1.00
C1164  C     0.66635   0.70948   0.74974   0.00000  Uiso   1.00
C1165  C     0.51716   0.80225   0.77171   0.00000  Uiso   1.00
C1166  C     0.48267   0.86508   0.72932   0.00000  Uiso   1.00
C1167  C     0.46786   0.80253   0.77160   0.00000  Uiso   1.00
C1168  C     0.53220   0.86419   0.72857   0.00000  Uiso   1.00
N1169  N     0.45069   0.83334   0.74999   0.00000  Uiso   1.00
N1170  N     0.54931   0.83332   0.75001   0.00000  Uiso   1.00
F1171  F     0.45296   0.81187   0.60950   0.00000  Uiso   1.00
F1172  F     0.54073   0.84062   0.88708   0.00000  Uiso   1.00
F1173  F     0.63432   0.87294   0.61497   0.00000  Uiso   1.00
F1174  F     0.37194   0.82198   0.88930   0.00000  Uiso   1.00
N1175  N     0.52528   0.86420   0.59443   0.00000  Uiso   1.00
O1176  O     0.51751   0.90310   0.60215   0.00000  Uiso   1.00
O1177  O     0.53903   0.84117   0.62334   0.00000  Uiso   1.00
N1178  N     0.50165   0.90844   0.91651   0.00000  Uiso   1.00
O1179  O     0.54283   0.92864   0.90809   0.00000  Uiso   1.00
O1180  O     0.47466   0.91397   0.88967   0.00000  Uiso   1.00
F1181  F     0.60844   0.70821   0.70714   0.00000  Uiso   1.00
F1182  F     0.39188   0.95844   0.79248   0.00000  Uiso   1.00
N1183  N     0.53270   0.76838   0.79425   0.00000  Uiso   1.00
O1184  O     0.52745   0.73104   0.78180   0.00000  Uiso   1.00
O1185  O     0.53865   0.77337   0.83365   0.00000  Uiso   1.00
N1186  N     0.46662   0.90110   0.71033   0.00000  Uiso   1.00
O1187  O     0.47902   0.93754   0.72032   0.00000  Uiso   1.00
O1188  O     0.44720   0.89813   0.67765   0.00000  Uiso   1.00
F1189  F     0.43700   0.77246   0.79494   0.00000  Uiso   1.00
F1190  F     0.56320   0.89419   0.70528   0.00000  Uiso   1.00
O1191  O     0.70625   0.77322   0.75000   0.00000  Uiso   1.00
O1192  O     0.96042   0.89345   0.75000   0.00000  Uiso   1.00
O1193  O     0.96039   0.77321   0.75000   0.00000  Uiso   1.00
O1194  O     0.70628   0.89346   0.74999   0.00000  Uiso   1.00
C1195  C     0.99985   0.75412   0.74981   0.00000  Uiso   1.00
C1196  C     0.66683   0.91254   0.75016   0.00000  Uiso   1.00
O1197  O     0.68519   0.83334   0.81491   0.00000  Uiso   1.00
O1198  O     0.98148   0.83332   0.68508   0.00000  Uiso   1.00
O1199  O     0.93933   0.83333   0.81492   0.00000  Uiso   1.00
O1200  O     0.72733   0.83333   0.68508   0.00000  Uiso   1.00
C1201  C     0.97238   0.83317   0.83621   0.00000  Uiso   1.00
C1202  C     0.69447   0.83503   0.66382   0.00000  Uiso   1.00
Cu1203 Cu    0.71355   0.83334   0.75000   0.00000  Uiso   1.00
Cu1204 Cu    0.95311   0.83333   0.75000   0.00000  Uiso   1.00
C1205  C     0.95731   0.83518   0.88565   0.00000  Uiso   1.00
C1206  C     0.71122   0.84453   0.61498   0.00000  Uiso   1.00
C1207  C     0.97698   0.83266   0.95646   0.00000  Uiso   1.00
C1208  C     0.69991   0.87907   0.54860   0.00000  Uiso   1.00
C1209  C     0.99147   0.83038   0.90999   0.00000  Uiso   1.00
C1210  C     0.68124   0.86510   0.59309   0.00000  Uiso   1.00
C1211  C     0.90867   0.84319   0.90886   0.00000  Uiso   1.00
C1212  C     0.76021   0.83849   0.59152   0.00000  Uiso   1.00
C1213  C     0.89503   0.85057   0.95519   0.00000  Uiso   1.00
C1214  C     0.78088   0.85702   0.54851   0.00000  Uiso   1.00
C1215  C     0.92900   0.84189   0.97921   0.00000  Uiso   1.00
C1216  C     0.74930   0.87496   0.52608   0.00000  Uiso   1.00
C1217  C     0.84761   0.86351   0.97894   0.00000  Uiso   1.00
C1218  C     0.83157   0.85632   0.52618   0.00000  Uiso   1.00
C1219  C     0.86726   0.85126   0.54937   0.00000  Uiso   1.00
C1220  C     0.81642   0.88525   0.95820   0.00000  Uiso   1.00
C1221  C     0.91509   0.84340   0.52573   0.00000  Uiso   1.00
C1222  C     0.76756   0.88991   0.98189   0.00000  Uiso   1.00
H1223  H     0.94182   0.83951   0.54391   0.00000  Uiso   1.00
H1224  H     0.74384   0.90623   0.96598   0.00000  Uiso   1.00
H1225  H     0.67013   0.82734   0.97469   0.00000  Uiso   1.00
H1226  H     0.67596   0.89426   0.53210   0.00000  Uiso   1.00
C1227  C     0.96987   0.68800   0.72900   0.00000  Uiso   1.00
C1228  C     0.69697   0.97865   0.77078   0.00000  Uiso   1.00
C1229  C     0.97017   0.97860   0.72941   0.00000  Uiso   1.00
C1230  C     0.69663   0.68805   0.77041   0.00000  Uiso   1.00
H1231  H     0.94738   0.96231   0.71288   0.00000  Uiso   1.00
H1232  H     0.71944   0.70433   0.78692   0.00000  Uiso   1.00
C1233  C     0.66706   0.95717   0.75013   0.00000  Uiso   1.00
C1234  C     0.99968   0.70948   0.74974   0.00000  Uiso   1.00
C1235  C     0.85049   0.80225   0.77171   0.00000  Uiso   1.00
C1236  C     0.81600   0.86508   0.72932   0.00000  Uiso   1.00
C1237  C     0.80119   0.80253   0.77160   0.00000  Uiso   1.00
C1238  C     0.86553   0.86419   0.72857   0.00000  Uiso   1.00
N1239  N     0.78403   0.83334   0.74999   0.00000  Uiso   1.00
N1240  N     0.88264   0.83332   0.75001   0.00000  Uiso   1.00
F1241  F     0.78629   0.81187   0.60950   0.00000  Uiso   1.00
F1242  F     0.87406   0.84062   0.88708   0.00000  Uiso   1.00
F1243  F     0.96766   0.87294   0.61497   0.00000  Uiso   1.00
F1244  F     0.70527   0.82198   0.88930   0.00000  Uiso   1.00
N1245  N     0.85862   0.86420   0.59443   0.00000  Uiso   1.00
O1246  O     0.85084   0.90310   0.60215   0.00000  Uiso   1.00
O1247  O     0.87236   0.84117   0.62334   0.00000  Uiso   1.00
N1248  N     0.83498   0.90844   0.91651   0.00000  Uiso   1.00
O1249  O     0.87616   0.92864   0.90809   0.00000  Uiso   1.00
O1250  O     0.80800   0.91397   0.88967   0.00000  Uiso   1.00
F1251  F     0.94178   0.70821   0.70714   0.00000  Uiso   1.00
F1252  F     0.72522   0.95844   0.79248   0.00000  Uiso   1.00
N1253  N     0.86604   0.76838   0.79425   0.00000  Uiso   1.00
O1254  O     0.86078   0.73104   0.78180   0.00000  Uiso   1.00
O1255  O     0.87198   0.77337   0.83365   0.00000  Uiso   1.00
N1256  N     0.79995   0.90110   0.71033   0.00000  Uiso   1.00
O1257  O     0.81235   0.93754   0.72032   0.00000  Uiso   1.00
O1258  O     0.78054   0.89813   0.67765   0.00000  Uiso   1.00
F1259  F     0.77033   0.77246   0.79494   0.00000  Uiso   1.00
F1260  F     0.89653   0.89419   0.70528   0.00000  Uiso   1.00
loop_
_geom_bond_atom_site_label_1
_geom_bond_atom_site_label_2
_geom_bond_distance
_geom_bond_site_symmetry_2
_ccdc_geom_bond_type
O1     Cu13    1.958   .     S
O1     C145    1.295   1_455 S
O2     Cu14    1.958   .     S
O2     C76     1.295   .     S
O3     Cu14    1.962   .     S
O3     C5      1.297   .     A
O4     C6      1.297   .     A
O4     Cu13    1.962   .     S
C5     C44     1.447   .     S
C5     O71     1.295   .     S
C6     C43     1.446   .     S
C6     O142    1.295   1_455 S
O7     Cu13    1.950   .     S
O7     C151    1.302   1_455 S
O8     Cu14    1.950   .     S
O8     C82     1.306   .     S
O9     Cu14    1.944   .     S
O9     C11     1.304   .     A
O10    C12     1.300   .     A
O10    Cu13    1.944   .     S
C11    C15     1.478   .     S
C11    O77     1.302   .     S
C12    C16     1.479   .     S
C12    O148    1.306   1_455 S
Cu13   N49     2.026   .     S
Cu13   Cu154   2.696   1_455 S
Cu14   N50     2.026   .     S
Cu14   Cu83    2.696   .     S
C15    C19     1.408   .     A
C15    C21     1.409   .     A
C16    C20     1.405   .     A
C16    C22     1.407   .     A
C17    C25     1.399   .     A
C17    C19     1.390   .     A
C17    H105    1.084   .     S
C18    C26     1.402   .     A
C18    C20     1.394   .     A
C18    H36     1.084   .     S
C19    F124    1.358   .     S
C20    F193    1.356   1_455 S
C21    C23     1.410   .     A
C21    F52     1.357   .     S
C22    F51     1.359   .     S
C22    C24     1.413   .     A
C23    C27     1.426   .     A
C23    C25     1.415   .     A
C24    C26     1.414   .     A
C24    C28     1.425   .     A
C25    C661    1.389   .     S
C26    C662    1.394   1_554 S
C27    C30     1.427   .     A
C27    C658    1.420   .     S
C28    C29     1.421   .     A
C28    C657    1.420   1_554 S
C29    N55     1.428   .     S
C29    C31     1.392   .     A
C30    N58     1.439   .     S
C30    C32     1.399   .     A
C31    H33     1.083   .     S
C31    C655    1.389   1_554 S
C32    H34     1.084   .     S
C32    C656    1.394   .     S
H35    C157    1.084   1_455 S
C37    F61     1.358   .     S
C37    C44     1.402   .     A
C37    C459    1.385   1_545 S
C38    C43     1.402   .     A
C38    F62     1.358   .     S
C38    C250    1.385   .     S
C39    H41     1.083   .     S
C39    C247    1.385   .     S
C39    C113    1.400   .     S
C40    H42     1.083   .     S
C40    C458    1.385   1_545 S
C40    C184    1.400   1_455 S
C43    C179    1.400   1_455 S
C44    C110    1.400   .     S
C45    N50     1.381   .     A
C45    C47     1.418   .     A
C45    N63     1.429   .     S
C46    N49     1.386   .     A
C46    N66     1.433   .     S
C46    C48     1.418   .     A
C47    N49     1.362   .     A
C47    F69     1.355   .     S
C48    N50     1.359   .     A
C48    F70     1.355   .     S
F53    C90     1.356   .     S
F54    C159    1.358   1_455 S
N55    O57     1.301   .     A
N55    O56     1.300   .     A
N58    O60     1.302   .     A
N58    O59     1.302   .     A
N63    O65     1.299   .     A
N63    O64     1.301   .     A
N66    O68     1.297   .     A
N66    O67     1.301   .     A
O71    Cu83    1.958   .     S
O72    Cu84    1.958   .     S
O72    C146    1.295   .     S
O73    Cu84    1.962   .     S
O73    C75     1.297   .     A
O74    C76     1.297   .     A
O74    Cu83    1.962   .     S
C75    C114    1.447   .     S
C75    O141    1.295   .     S
C76    C113    1.446   .     S
O77    Cu83    1.950   .     S
O78    Cu84    1.950   .     S
O78    C152    1.306   .     S
O79    Cu84    1.944   .     S
O79    C81     1.304   .     A
O80    C82     1.300   .     A
O80    Cu83    1.944   .     S
C81    C85     1.478   .     S
C81    O147    1.302   .     S
C82    C86     1.479   .     S
Cu83   N119    2.026   .     S
Cu84   N120    2.026   .     S
Cu84   Cu153   2.696   .     S
C85    C89     1.408   .     A
C85    C91     1.409   .     A
C86    C90     1.405   .     A
C86    C92     1.407   .     A
C87    C95     1.399   .     A
C87    C89     1.390   .     A
C87    H175    1.084   .     S
C88    C96     1.402   .     A
C88    C90     1.394   .     A
C88    H106    1.084   .     S
C89    F194    1.358   .     S
C91    C93     1.410   .     A
C91    F122    1.357   .     S
C92    F121    1.359   .     S
C92    C94     1.413   .     A
C93    C97     1.426   .     A
C93    C95     1.415   .     A
C94    C96     1.414   .     A
C94    C98     1.425   .     A
C95    C731    1.389   .     S
C96    C732    1.394   1_554 S
C97    C100    1.427   .     A
C97    C728    1.420   .     S
C98    C99     1.421   .     A
C98    C727    1.420   1_554 S
C99    N125    1.428   .     S
C99    C101    1.392   .     A
C100   N128    1.439   .     S
C100   C102    1.399   .     A
C101   H103    1.083   .     S
C101   C725    1.389   1_554 S
C102   H104    1.084   .     S
C102   C726    1.394   .     S
C107   F131    1.358   .     S
C107   C114    1.402   .     A
C107   C529    1.385   1_545 S
C108   C113    1.402   .     A
C108   F132    1.358   .     S
C108   C320    1.385   .     S
C109   H111    1.083   .     S
C109   C317    1.385   .     S
C109   C183    1.400   .     S
C110   H112    1.083   .     S
C110   C528    1.385   1_545 S
C114   C180    1.400   .     S
C115   N120    1.381   .     A
C115   C117    1.418   .     A
C115   N133    1.429   .     S
C116   N119    1.386   .     A
C116   N136    1.433   .     S
C116   C118    1.418   .     A
C117   N119    1.362   .     A
C117   F139    1.355   .     S
C118   N120    1.359   .     A
C118   F140    1.355   .     S
F123   C160    1.356   .     S
N125   O127    1.301   .     A
N125   O126    1.300   .     A
N128   O130    1.302   .     A
N128   O129    1.302   .     A
N133   O135    1.299   .     A
N133   O134    1.301   .     A
N136   O138    1.297   .     A
N136   O137    1.301   .     A
O141   Cu153   1.958   .     S
O142   Cu154   1.958   .     S
O142   C6      1.295   1_655 S
O143   Cu154   1.962   .     S
O143   C145    1.297   .     A
O144   C146    1.297   .     A
O144   Cu153   1.962   .     S
C145   C184    1.447   .     S
C145   O1      1.295   1_655 S
C146   C183    1.446   .     S
O147   Cu153   1.950   .     S
O148   Cu154   1.950   .     S
O148   C12     1.306   1_655 S
O149   Cu154   1.944   .     S
O149   C151    1.304   .     A
O150   C152    1.300   .     A
O150   Cu153   1.944   .     S
C151   C155    1.478   .     S
C151   O7      1.302   1_655 S
C152   C156    1.479   .     S
Cu153  N189    2.026   .     S
Cu154  N190    2.026   .     S
Cu154  Cu13    2.696   1_655 S
C155   C159    1.408   .     A
C155   C161    1.409   .     A
C156   C160    1.405   .     A
C156   C162    1.407   .     A
C157   C165    1.399   .     A
C157   C159    1.390   .     A
C157   H35     1.084   1_655 S
C158   C166    1.402   .     A
C158   C160    1.394   .     A
C158   H176    1.084   .     S
C159   F54     1.358   1_655 S
C161   C163    1.410   .     A
C161   F192    1.357   .     S
C162   F191    1.359   .     S
C162   C164    1.413   .     A
C163   C167    1.426   .     A
C163   C165    1.415   .     A
C164   C166    1.414   .     A
C164   C168    1.425   .     A
C165   C801    1.389   .     S
C166   C802    1.394   1_554 S
C167   C170    1.427   .     A
C167   C798    1.420   .     S
C168   C169    1.421   .     A
C168   C797    1.420   1_554 S
C169   N195    1.428   .     S
C169   C171    1.392   .     A
C170   N198    1.439   .     S
C170   C172    1.399   .     A
C171   H173    1.083   .     S
C171   C795    1.389   1_554 S
C172   H174    1.084   .     S
C172   C796    1.394   .     S
C177   F201    1.358   .     S
C177   C184    1.402   .     A
C177   C599    1.385   1_545 S
C178   C183    1.402   .     A
C178   F202    1.358   .     S
C178   C390    1.385   .     S
C179   H181    1.083   .     S
C179   C387    1.385   .     S
C179   C43     1.400   1_655 S
C180   H182    1.083   .     S
C180   C598    1.385   1_545 S
C184   C40     1.400   1_655 S
C185   N190    1.381   .     A
C185   C187    1.418   .     A
C185   N203    1.429   .     S
C186   N189    1.386   .     A
C186   N206    1.433   .     S
C186   C188    1.418   .     A
C187   N189    1.362   .     A
C187   F209    1.355   .     S
C188   N190    1.359   .     A
C188   F210    1.355   .     S
F193   C20     1.356   1_655 S
N195   O197    1.301   .     A
N195   O196    1.300   .     A
N198   O200    1.302   .     A
N198   O199    1.302   .     A
N203   O205    1.299   .     A
N203   O204    1.301   .     A
N206   O208    1.297   .     A
N206   O207    1.301   .     A
O211   Cu223   1.958   .     S
O211   C355    1.295   1_455 S
O212   Cu224   1.958   .     S
O212   C286    1.295   .     S
O213   Cu224   1.962   .     S
O213   C215    1.297   .     A
O214   C216    1.297   .     A
O214   Cu223   1.962   .     S
C215   C254    1.447   .     S
C215   O281    1.295   .     S
C216   C253    1.446   .     S
C216   O352    1.295   1_455 S
O217   Cu223   1.950   .     S
O217   C361    1.302   1_455 S
O218   Cu224   1.950   .     S
O218   C292    1.306   .     S
O219   Cu224   1.944   .     S
O219   C221    1.304   .     A
O220   C222    1.300   .     A
O220   Cu223   1.944   .     S
C221   C225    1.478   .     S
C221   O287    1.302   .     S
C222   C226    1.479   .     S
C222   O358    1.306   1_455 S
Cu223  N259    2.026   .     S
Cu223  Cu364   2.696   1_455 S
Cu224  N260    2.026   .     S
Cu224  Cu293   2.696   .     S
C225   C229    1.408   .     A
C225   C231    1.409   .     A
C226   C230    1.405   .     A
C226   C232    1.407   .     A
C227   C235    1.399   .     A
C227   C229    1.390   .     A
C227   H315    1.084   .     S
C228   C236    1.402   .     A
C228   C230    1.394   .     A
C228   H246    1.084   .     S
C229   F334    1.358   .     S
C230   F403    1.356   1_455 S
C231   C233    1.410   .     A
C231   F262    1.357   .     S
C232   F261    1.359   .     S
C232   C234    1.413   .     A
C233   C237    1.426   .     A
C233   C235    1.415   .     A
C234   C236    1.414   .     A
C234   C238    1.425   .     A
C235   C871    1.389   .     S
C236   C872    1.394   1_554 S
C237   C240    1.427   .     A
C237   C868    1.420   .     S
C238   C239    1.421   .     A
C238   C867    1.420   1_554 S
C239   N265    1.428   .     S
C239   C241    1.392   .     A
C240   N268    1.439   .     S
C240   C242    1.399   .     A
C241   H243    1.083   .     S
C241   C865    1.389   1_554 S
C242   H244    1.084   .     S
C242   C866    1.394   .     S
H245   C367    1.084   1_455 S
C247   F271    1.358   .     S
C247   C254    1.402   .     A
C248   C253    1.402   .     A
C248   F272    1.358   .     S
C248   C460    1.385   .     S
C249   H251    1.083   .     S
C249   C457    1.385   .     S
C249   C323    1.400   .     S
C250   H252    1.083   .     S
C250   C394    1.400   1_455 S
C253   C389    1.400   1_455 S
C254   C320    1.400   .     S
C255   N260    1.381   .     A
C255   C257    1.418   .     A
C255   N273    1.429   .     S
C256   N259    1.386   .     A
C256   N276    1.433   .     S
C256   C258    1.418   .     A
C257   N259    1.362   .     A
C257   F279    1.355   .     S
C258   N260    1.359   .     A
C258   F280    1.355   .     S
F263   C300    1.356   .     S
F264   C369    1.358   1_455 S
N265   O267    1.301   .     A
N265   O266    1.300   .     A
N268   O270    1.302   .     A
N268   O269    1.302   .     A
N273   O275    1.299   .     A
N273   O274    1.301   .     A
N276   O278    1.297   .     A
N276   O277    1.301   .     A
O281   Cu293   1.958   .     S
O282   Cu294   1.958   .     S
O282   C356    1.295   .     S
O283   Cu294   1.962   .     S
O283   C285    1.297   .     A
O284   C286    1.297   .     A
O284   Cu293   1.962   .     S
C285   C324    1.447   .     S
C285   O351    1.295   .     S
C286   C323    1.446   .     S
O287   Cu293   1.950   .     S
O288   Cu294   1.950   .     S
O288   C362    1.306   .     S
O289   Cu294   1.944   .     S
O289   C291    1.304   .     A
O290   C292    1.300   .     A
O290   Cu293   1.944   .     S
C291   C295    1.478   .     S
C291   O357    1.302   .     S
C292   C296    1.479   .     S
Cu293  N329    2.026   .     S
Cu294  N330    2.026   .     S
Cu294  Cu363   2.696   .     S
C295   C299    1.408   .     A
C295   C301    1.409   .     A
C296   C300    1.405   .     A
C296   C302    1.407   .     A
C297   C305    1.399   .     A
C297   C299    1.390   .     A
C297   H385    1.084   .     S
C298   C306    1.402   .     A
C298   C300    1.394   .     A
C298   H316    1.084   .     S
C299   F404    1.358   .     S
C301   C303    1.410   .     A
C301   F332    1.357   .     S
C302   F331    1.359   .     S
C302   C304    1.413   .     A
C303   C307    1.426   .     A
C303   C305    1.415   .     A
C304   C306    1.414   .     A
C304   C308    1.425   .     A
C305   C941    1.389   .     S
C306   C942    1.394   1_554 S
C307   C310    1.427   .     A
C307   C938    1.420   .     S
C308   C309    1.421   .     A
C308   C937    1.420   1_554 S
C309   N335    1.428   .     S
C309   C311    1.392   .     A
C310   N338    1.439   .     S
C310   C312    1.399   .     A
C311   H313    1.083   .     S
C311   C935    1.389   1_554 S
C312   H314    1.084   .     S
C312   C936    1.394   .     S
C317   F341    1.358   .     S
C317   C324    1.402   .     A
C318   C323    1.402   .     A
C318   F342    1.358   .     S
C318   C530    1.385   .     S
C319   H321    1.083   .     S
C319   C527    1.385   .     S
C319   C393    1.400   .     S
C320   H322    1.083   .     S
C324   C390    1.400   .     S
C325   N330    1.381   .     A
C325   C327    1.418   .     A
C325   N343    1.429   .     S
C326   N329    1.386   .     A
C326   N346    1.433   .     S
C326   C328    1.418   .     A
C327   N329    1.362   .     A
C327   F349    1.355   .     S
C328   N330    1.359   .     A
C328   F350    1.355   .     S
F333   C370    1.356   .     S
N335   O337    1.301   .     A
N335   O336    1.300   .     A
N338   O340    1.302   .     A
N338   O339    1.302   .     A
N343   O345    1.299   .     A
N343   O344    1.301   .     A
N346   O348    1.297   .     A
N346   O347    1.301   .     A
O351   Cu363   1.958   .     S
O352   Cu364   1.958   .     S
O352   C216    1.295   1_655 S
O353   Cu364   1.962   .     S
O353   C355    1.297   .     A
O354   C356    1.297   .     A
O354   Cu363   1.962   .     S
C355   C394    1.447   .     S
C355   O211    1.295   1_655 S
C356   C393    1.446   .     S
O357   Cu363   1.950   .     S
O358   Cu364   1.950   .     S
O358   C222    1.306   1_655 S
O359   Cu364   1.944   .     S
O359   C361    1.304   .     A
O360   C362    1.300   .     A
O360   Cu363   1.944   .     S
C361   C365    1.478   .     S
C361   O217    1.302   1_655 S
C362   C366    1.479   .     S
Cu363  N399    2.026   .     S
Cu364  N400    2.026   .     S
Cu364  Cu223   2.696   1_655 S
C365   C369    1.408   .     A
C365   C371    1.409   .     A
C366   C370    1.405   .     A
C366   C372    1.407   .     A
C367   C375    1.399   .     A
C367   C369    1.390   .     A
C367   H245    1.084   1_655 S
C368   C376    1.402   .     A
C368   C370    1.394   .     A
C368   H386    1.084   .     S
C369   F264    1.358   1_655 S
C371   C373    1.410   .     A
C371   F402    1.357   .     S
C372   F401    1.359   .     S
C372   C374    1.413   .     A
C373   C377    1.426   .     A
C373   C375    1.415   .     A
C374   C376    1.414   .     A
C374   C378    1.425   .     A
C375   C1011   1.389   .     S
C376   C1012   1.394   1_554 S
C377   C380    1.427   .     A
C377   C1008   1.420   .     S
C378   C379    1.421   .     A
C378   C1007   1.420   1_554 S
C379   N405    1.428   .     S
C379   C381    1.392   .     A
C380   N408    1.439   .     S
C380   C382    1.399   .     A
C381   H383    1.083   .     S
C381   C1005   1.389   1_554 S
C382   H384    1.084   .     S
C382   C1006   1.394   .     S
C387   F411    1.358   .     S
C387   C394    1.402   .     A
C388   C393    1.402   .     A
C388   F412    1.358   .     S
C388   C600    1.385   .     S
C389   H391    1.083   .     S
C389   C597    1.385   .     S
C389   C253    1.400   1_655 S
C390   H392    1.083   .     S
C394   C250    1.400   1_655 S
C395   N400    1.381   .     A
C395   C397    1.418   .     A
C395   N413    1.429   .     S
C396   N399    1.386   .     A
C396   N416    1.433   .     S
C396   C398    1.418   .     A
C397   N399    1.362   .     A
C397   F419    1.355   .     S
C398   N400    1.359   .     A
C398   F420    1.355   .     S
F403   C230    1.356   1_655 S
N405   O407    1.301   .     A
N405   O406    1.300   .     A
N408   O410    1.302   .     A
N408   O409    1.302   .     A
N413   O415    1.299   .     A
N413   O414    1.301   .     A
N416   O418    1.297   .     A
N416   O417    1.301   .     A
O421   Cu433   1.958   .     S
O421   C565    1.295   1_455 S
O422   Cu434   1.958   .     S
O422   C496    1.295   .     S
O423   Cu434   1.962   .     S
O423   C425    1.297   .     A
O424   C426    1.297   .     A
O424   Cu433   1.962   .     S
C425   C464    1.447   .     S
C425   O491    1.295   .     S
C426   C463    1.446   .     S
C426   O562    1.295   1_455 S
O427   Cu433   1.950   .     S
O427   C571    1.302   1_455 S
O428   Cu434   1.950   .     S
O428   C502    1.306   .     S
O429   Cu434   1.944   .     S
O429   C431    1.304   .     A
O430   C432    1.300   .     A
O430   Cu433   1.944   .     S
C431   C435    1.478   .     S
C431   O497    1.302   .     S
C432   C436    1.479   .     S
C432   O568    1.306   1_455 S
Cu433  N469    2.026   .     S
Cu433  Cu574   2.696   1_455 S
Cu434  N470    2.026   .     S
Cu434  Cu503   2.696   .     S
C435   C439    1.408   .     A
C435   C441    1.409   .     A
C436   C440    1.405   .     A
C436   C442    1.407   .     A
C437   C445    1.399   .     A
C437   C439    1.390   .     A
C437   H525    1.084   .     S
C438   C446    1.402   .     A
C438   C440    1.394   .     A
C438   H456    1.084   .     S
C439   F544    1.358   .     S
C440   F613    1.356   1_455 S
C441   C443    1.410   .     A
C441   F472    1.357   .     S
C442   F471    1.359   .     S
C442   C444    1.413   .     A
C443   C447    1.426   .     A
C443   C445    1.415   .     A
C444   C446    1.414   .     A
C444   C448    1.425   .     A
C445   C1081   1.389   .     S
C446   C1082   1.394   1_554 S
C447   C450    1.427   .     A
C447   C1078   1.420   .     S
C448   C449    1.421   .     A
C448   C1077   1.420   1_554 S
C449   N475    1.428   .     S
C449   C451    1.392   .     A
C450   N478    1.439   .     S
C450   C452    1.399   .     A
C451   H453    1.083   .     S
C451   C1075   1.389   1_554 S
C452   H454    1.084   .     S
C452   C1076   1.394   .     S
H455   C577    1.084   1_455 S
C457   F481    1.358   .     S
C457   C464    1.402   .     A
C458   C463    1.402   .     A
C458   F482    1.358   .     S
C458   C40     1.385   1_565 S
C459   H461    1.083   .     S
C459   C37     1.385   1_565 S
C459   C533    1.400   .     S
C460   H462    1.083   .     S
C460   C604    1.400   1_455 S
C463   C599    1.400   1_455 S
C464   C530    1.400   .     S
C465   N470    1.381   .     A
C465   C467    1.418   .     A
C465   N483    1.429   .     S
C466   N469    1.386   .     A
C466   N486    1.433   .     S
C466   C468    1.418   .     A
C467   N469    1.362   .     A
C467   F489    1.355   .     S
C468   N470    1.359   .     A
C468   F490    1.355   .     S
F473   C510    1.356   .     S
F474   C579    1.358   1_455 S
N475   O477    1.301   .     A
N475   O476    1.300   .     A
N478   O480    1.302   .     A
N478   O479    1.302   .     A
N483   O485    1.299   .     A
N483   O484    1.301   .     A
N486   O488    1.297   .     A
N486   O487    1.301   .     A
O491   Cu503   1.958   .     S
O492   Cu504   1.958   .     S
O492   C566    1.295   .     S
O493   Cu504   1.962   .     S
O493   C495    1.297   .     A
O494   C496    1.297   .     A
O494   Cu503   1.962   .     S
C495   C534    1.447   .     S
C495   O561    1.295   .     S
C496   C533    1.446   .     S
O497   Cu503   1.950   .     S
O498   Cu504   1.950   .     S
O498   C572    1.306   .     S
O499   Cu504   1.944   .     S
O499   C501    1.304   .     A
O500   C502    1.300   .     A
O500   Cu503   1.944   .     S
C501   C505    1.478   .     S
C501   O567    1.302   .     S
C502   C506    1.479   .     S
Cu503  N539    2.026   .     S
Cu504  N540    2.026   .     S
Cu504  Cu573   2.696   .     S
C505   C509    1.408   .     A
C505   C511    1.409   .     A
C506   C510    1.405   .     A
C506   C512    1.407   .     A
C507   C515    1.399   .     A
C507   C509    1.390   .     A
C507   H595    1.084   .     S
C508   C516    1.402   .     A
C508   C510    1.394   .     A
C508   H526    1.084   .     S
C509   F614    1.358   .     S
C511   C513    1.410   .     A
C511   F542    1.357   .     S
C512   F541    1.359   .     S
C512   C514    1.413   .     A
C513   C517    1.426   .     A
C513   C515    1.415   .     A
C514   C516    1.414   .     A
C514   C518    1.425   .     A
C515   C1151   1.389   .     S
C516   C1152   1.394   1_554 S
C517   C520    1.427   .     A
C517   C1148   1.420   .     S
C518   C519    1.421   .     A
C518   C1147   1.420   1_554 S
C519   N545    1.428   .     S
C519   C521    1.392   .     A
C520   N548    1.439   .     S
C520   C522    1.399   .     A
C521   H523    1.083   .     S
C521   C1145   1.389   1_554 S
C522   H524    1.084   .     S
C522   C1146   1.394   .     S
C527   F551    1.358   .     S
C527   C534    1.402   .     A
C528   C533    1.402   .     A
C528   F552    1.358   .     S
C528   C110    1.385   1_565 S
C529   H531    1.083   .     S
C529   C107    1.385   1_565 S
C529   C603    1.400   .     S
C530   H532    1.083   .     S
C534   C600    1.400   .     S
C535   N540    1.381   .     A
C535   C537    1.418   .     A
C535   N553    1.429   .     S
C536   N539    1.386   .     A
C536   N556    1.433   .     S
C536   C538    1.418   .     A
C537   N539    1.362   .     A
C537   F559    1.355   .     S
C538   N540    1.359   .     A
C538   F560    1.355   .     S
F543   C580    1.356   .     S
N545   O547    1.301   .     A
N545   O546    1.300   .     A
N548   O550    1.302   .     A
N548   O549    1.302   .     A
N553   O555    1.299   .     A
N553   O554    1.301   .     A
N556   O558    1.297   .     A
N556   O557    1.301   .     A
O561   Cu573   1.958   .     S
O562   Cu574   1.958   .     S
O562   C426    1.295   1_655 S
O563   Cu574   1.962   .     S
O563   C565    1.297   .     A
O564   C566    1.297   .     A
O564   Cu573   1.962   .     S
C565   C604    1.447   .     S
C565   O421    1.295   1_655 S
C566   C603    1.446   .     S
O567   Cu573   1.950   .     S
O568   Cu574   1.950   .     S
O568   C432    1.306   1_655 S
O569   Cu574   1.944   .     S
O569   C571    1.304   .     A
O570   C572    1.300   .     A
O570   Cu573   1.944   .     S
C571   C575    1.478   .     S
C571   O427    1.302   1_655 S
C572   C576    1.479   .     S
Cu573  N609    2.026   .     S
Cu574  N610    2.026   .     S
Cu574  Cu433   2.696   1_655 S
C575   C579    1.408   .     A
C575   C581    1.409   .     A
C576   C580    1.405   .     A
C576   C582    1.407   .     A
C577   C585    1.399   .     A
C577   C579    1.390   .     A
C577   H455    1.084   1_655 S
C578   C586    1.402   .     A
C578   C580    1.394   .     A
C578   H596    1.084   .     S
C579   F474    1.358   1_655 S
C581   C583    1.410   .     A
C581   F612    1.357   .     S
C582   F611    1.359   .     S
C582   C584    1.413   .     A
C583   C587    1.426   .     A
C583   C585    1.415   .     A
C584   C586    1.414   .     A
C584   C588    1.425   .     A
C585   C1221   1.389   .     S
C586   C1222   1.394   1_554 S
C587   C590    1.427   .     A
C587   C1218   1.420   .     S
C588   C589    1.421   .     A
C588   C1217   1.420   1_554 S
C589   N615    1.428   .     S
C589   C591    1.392   .     A
C590   N618    1.439   .     S
C590   C592    1.399   .     A
C591   H593    1.083   .     S
C591   C1215   1.389   1_554 S
C592   H594    1.084   .     S
C592   C1216   1.394   .     S
C597   F621    1.358   .     S
C597   C604    1.402   .     A
C598   C603    1.402   .     A
C598   F622    1.358   .     S
C598   C180    1.385   1_565 S
C599   H601    1.083   .     S
C599   C177    1.385   1_565 S
C599   C463    1.400   1_655 S
C600   H602    1.083   .     S
C604   C460    1.400   1_655 S
C605   N610    1.381   .     A
C605   C607    1.418   .     A
C605   N623    1.429   .     S
C606   N609    1.386   .     A
C606   N626    1.433   .     S
C606   C608    1.418   .     A
C607   N609    1.362   .     A
C607   F629    1.355   .     S
C608   N610    1.359   .     A
C608   F630    1.355   .     S
F613   C440    1.356   1_655 S
N615   O617    1.301   .     A
N615   O616    1.300   .     A
N618   O620    1.302   .     A
N618   O619    1.302   .     A
N623   O625    1.299   .     A
N623   O624    1.301   .     A
N626   O628    1.297   .     A
N626   O627    1.301   .     A
O631   Cu643   1.958   .     S
O631   C775    1.295   1_455 S
O632   Cu644   1.958   .     S
O632   C706    1.295   .     S
O633   Cu644   1.962   .     S
O633   C635    1.297   .     A
O634   C636    1.297   .     A
O634   Cu643   1.962   .     S
C635   C674    1.447   .     S
C635   O701    1.295   .     S
C636   C673    1.446   .     S
C636   O772    1.295   1_455 S
O637   Cu643   1.950   .     S
O637   C781    1.302   1_455 S
O638   Cu644   1.950   .     S
O638   C712    1.306   .     S
O639   Cu644   1.944   .     S
O639   C641    1.304   .     A
O640   C642    1.300   .     A
O640   Cu643   1.944   .     S
C641   C645    1.478   .     S
C641   O707    1.302   .     S
C642   C646    1.479   .     S
C642   O778    1.306   1_455 S
Cu643  N679    2.026   .     S
Cu643  Cu784   2.696   1_455 S
Cu644  N680    2.026   .     S
Cu644  Cu713   2.696   .     S
C645   C649    1.408   .     A
C645   C651    1.409   .     A
C646   C650    1.405   .     A
C646   C652    1.407   .     A
C647   C655    1.399   .     A
C647   C649    1.390   .     A
C647   H735    1.084   .     S
C648   C656    1.402   .     A
C648   C650    1.394   .     A
C648   H666    1.084   .     S
C649   F754    1.358   .     S
C650   F823    1.356   1_455 S
C651   C653    1.410   .     A
C651   F682    1.357   .     S
C652   F681    1.359   .     S
C652   C654    1.413   .     A
C653   C657    1.426   .     A
C653   C655    1.415   .     A
C654   C656    1.414   .     A
C654   C658    1.425   .     A
C655   C31     1.389   1_556 S
C657   C660    1.427   .     A
C657   C28     1.420   1_556 S
C658   C659    1.421   .     A
C659   N685    1.428   .     S
C659   C661    1.392   .     A
C660   N688    1.439   .     S
C660   C662    1.399   .     A
C661   H663    1.083   .     S
C662   H664    1.084   .     S
C662   C26     1.394   1_556 S
H665   C787    1.084   1_455 S
C667   F691    1.358   .     S
C667   C674    1.402   .     A
C667   C1089   1.385   1_545 S
C668   C673    1.402   .     A
C668   F692    1.358   .     S
C668   C880    1.385   .     S
C669   H671    1.083   .     S
C669   C877    1.385   .     S
C669   C743    1.400   .     S
C670   H672    1.083   .     S
C670   C1088   1.385   1_545 S
C670   C814    1.400   1_455 S
C673   C809    1.400   1_455 S
C674   C740    1.400   .     S
C675   N680    1.381   .     A
C675   C677    1.418   .     A
C675   N693    1.429   .     S
C676   N679    1.386   .     A
C676   N696    1.433   .     S
C676   C678    1.418   .     A
C677   N679    1.362   .     A
C677   F699    1.355   .     S
C678   N680    1.359   .     A
C678   F700    1.355   .     S
F683   C720    1.356   .     S
F684   C789    1.358   1_455 S
N685   O687    1.301   .     A
N685   O686    1.300   .     A
N688   O690    1.302   .     A
N688   O689    1.302   .     A
N693   O695    1.299   .     A
N693   O694    1.301   .     A
N696   O698    1.297   .     A
N696   O697    1.301   .     A
O701   Cu713   1.958   .     S
O702   Cu714   1.958   .     S
O702   C776    1.295   .     S
O703   Cu714   1.962   .     S
O703   C705    1.297   .     A
O704   C706    1.297   .     A
O704   Cu713   1.962   .     S
C705   C744    1.447   .     S
C705   O771    1.295   .     S
C706   C743    1.446   .     S
O707   Cu713   1.950   .     S
O708   Cu714   1.950   .     S
O708   C782    1.306   .     S
O709   Cu714   1.944   .     S
O709   C711    1.304   .     A
O710   C712    1.300   .     A
O710   Cu713   1.944   .     S
C711   C715    1.478   .     S
C711   O777    1.302   .     S
C712   C716    1.479   .     S
Cu713  N749    2.026   .     S
Cu714  N750    2.026   .     S
Cu714  Cu783   2.696   .     S
C715   C719    1.408   .     A
C715   C721    1.409   .     A
C716   C720    1.405   .     A
C716   C722    1.407   .     A
C717   C725    1.399   .     A
C717   C719    1.390   .     A
C717   H805    1.084   .     S
C718   C726    1.402   .     A
C718   C720    1.394   .     A
C718   H736    1.084   .     S
C719   F824    1.358   .     S
C721   C723    1.410   .     A
C721   F752    1.357   .     S
C722   F751    1.359   .     S
C722   C724    1.413   .     A
C723   C727    1.426   .     A
C723   C725    1.415   .     A
C724   C726    1.414   .     A
C724   C728    1.425   .     A
C725   C101    1.389   1_556 S
C727   C730    1.427   .     A
C727   C98     1.420   1_556 S
C728   C729    1.421   .     A
C729   N755    1.428   .     S
C729   C731    1.392   .     A
C730   N758    1.439   .     S
C730   C732    1.399   .     A
C731   H733    1.083   .     S
C732   H734    1.084   .     S
C732   C96     1.394   1_556 S
C737   F761    1.358   .     S
C737   C744    1.402   .     A
C737   C1159   1.385   1_545 S
C738   C743    1.402   .     A
C738   F762    1.358   .     S
C738   C950    1.385   .     S
C739   H741    1.083   .     S
C739   C947    1.385   .     S
C739   C813    1.400   .     S
C740   H742    1.083   .     S
C740   C1158   1.385   1_545 S
C744   C810    1.400   .     S
C745   N750    1.381   .     A
C745   C747    1.418   .     A
C745   N763    1.429   .     S
C746   N749    1.386   .     A
C746   N766    1.433   .     S
C746   C748    1.418   .     A
C747   N749    1.362   .     A
C747   F769    1.355   .     S
C748   N750    1.359   .     A
C748   F770    1.355   .     S
F753   C790    1.356   .     S
N755   O757    1.301   .     A
N755   O756    1.300   .     A
N758   O760    1.302   .     A
N758   O759    1.302   .     A
N763   O765    1.299   .     A
N763   O764    1.301   .     A
N766   O768    1.297   .     A
N766   O767    1.301   .     A
O771   Cu783   1.958   .     S
O772   Cu784   1.958   .     S
O772   C636    1.295   1_655 S
O773   Cu784   1.962   .     S
O773   C775    1.297   .     A
O774   C776    1.297   .     A
O774   Cu783   1.962   .     S
C775   C814    1.447   .     S
C775   O631    1.295   1_655 S
C776   C813    1.446   .     S
O777   Cu783   1.950   .     S
O778   Cu784   1.950   .     S
O778   C642    1.306   1_655 S
O779   Cu784   1.944   .     S
O779   C781    1.304   .     A
O780   C782    1.300   .     A
O780   Cu783   1.944   .     S
C781   C785    1.478   .     S
C781   O637    1.302   1_655 S
C782   C786    1.479   .     S
Cu783  N819    2.026   .     S
Cu784  N820    2.026   .     S
Cu784  Cu643   2.696   1_655 S
C785   C789    1.408   .     A
C785   C791    1.409   .     A
C786   C790    1.405   .     A
C786   C792    1.407   .     A
C787   C795    1.399   .     A
C787   C789    1.390   .     A
C787   H665    1.084   1_655 S
C788   C796    1.402   .     A
C788   C790    1.394   .     A
C788   H806    1.084   .     S
C789   F684    1.358   1_655 S
C791   C793    1.410   .     A
C791   F822    1.357   .     S
C792   F821    1.359   .     S
C792   C794    1.413   .     A
C793   C797    1.426   .     A
C793   C795    1.415   .     A
C794   C796    1.414   .     A
C794   C798    1.425   .     A
C795   C171    1.389   1_556 S
C797   C800    1.427   .     A
C797   C168    1.420   1_556 S
C798   C799    1.421   .     A
C799   N825    1.428   .     S
C799   C801    1.392   .     A
C800   N828    1.439   .     S
C800   C802    1.399   .     A
C801   H803    1.083   .     S
C802   H804    1.084   .     S
C802   C166    1.394   1_556 S
C807   F831    1.358   .     S
C807   C814    1.402   .     A
C807   C1229   1.385   1_545 S
C808   C813    1.402   .     A
C808   F832    1.358   .     S
C808   C1020   1.385   .     S
C809   H811    1.083   .     S
C809   C1017   1.385   .     S
C809   C673    1.400   1_655 S
C810   H812    1.083   .     S
C810   C1228   1.385   1_545 S
C814   C670    1.400   1_655 S
C815   N820    1.381   .     A
C815   C817    1.418   .     A
C815   N833    1.429   .     S
C816   N819    1.386   .     A
C816   N836    1.433   .     S
C816   C818    1.418   .     A
C817   N819    1.362   .     A
C817   F839    1.355   .     S
C818   N820    1.359   .     A
C818   F840    1.355   .     S
F823   C650    1.356   1_655 S
N825   O827    1.301   .     A
N825   O826    1.300   .     A
N828   O830    1.302   .     A
N828   O829    1.302   .     A
N833   O835    1.299   .     A
N833   O834    1.301   .     A
N836   O838    1.297   .     A
N836   O837    1.301   .     A
O841   Cu853   1.958   .     S
O841   C985    1.295   1_455 S
O842   Cu854   1.958   .     S
O842   C916    1.295   .     S
O843   Cu854   1.962   .     S
O843   C845    1.297   .     A
O844   C846    1.297   .     A
O844   Cu853   1.962   .     S
C845   C884    1.447   .     S
C845   O911    1.295   .     S
C846   C883    1.446   .     S
C846   O982    1.295   1_455 S
O847   Cu853   1.950   .     S
O847   C991    1.302   1_455 S
O848   Cu854   1.950   .     S
O848   C922    1.306   .     S
O849   Cu854   1.944   .     S
O849   C851    1.304   .     A
O850   C852    1.300   .     A
O850   Cu853   1.944   .     S
C851   C855    1.478   .     S
C851   O917    1.302   .     S
C852   C856    1.479   .     S
C852   O988    1.306   1_455 S
Cu853  N889    2.026   .     S
Cu853  Cu994   2.696   1_455 S
Cu854  N890    2.026   .     S
Cu854  Cu923   2.696   .     S
C855   C859    1.408   .     A
C855   C861    1.409   .     A
C856   C860    1.405   .     A
C856   C862    1.407   .     A
C857   C865    1.399   .     A
C857   C859    1.390   .     A
C857   H945    1.084   .     S
C858   C866    1.402   .     A
C858   C860    1.394   .     A
C858   H876    1.084   .     S
C859   F964    1.358   .     S
C860   F1033   1.356   1_455 S
C861   C863    1.410   .     A
C861   F892    1.357   .     S
C862   F891    1.359   .     S
C862   C864    1.413   .     A
C863   C867    1.426   .     A
C863   C865    1.415   .     A
C864   C866    1.414   .     A
C864   C868    1.425   .     A
C865   C241    1.389   1_556 S
C867   C870    1.427   .     A
C867   C238    1.420   1_556 S
C868   C869    1.421   .     A
C869   N895    1.428   .     S
C869   C871    1.392   .     A
C870   N898    1.439   .     S
C870   C872    1.399   .     A
C871   H873    1.083   .     S
C872   H874    1.084   .     S
C872   C236    1.394   1_556 S
H875   C997    1.084   1_455 S
C877   F901    1.358   .     S
C877   C884    1.402   .     A
C878   C883    1.402   .     A
C878   F902    1.358   .     S
C878   C1090   1.385   .     S
C879   H881    1.083   .     S
C879   C1087   1.385   .     S
C879   C953    1.400   .     S
C880   H882    1.083   .     S
C880   C1024   1.400   1_455 S
C883   C1019   1.400   1_455 S
C884   C950    1.400   .     S
C885   N890    1.381   .     A
C885   C887    1.418   .     A
C885   N903    1.429   .     S
C886   N889    1.386   .     A
C886   N906    1.433   .     S
C886   C888    1.418   .     A
C887   N889    1.362   .     A
C887   F909    1.355   .     S
C888   N890    1.359   .     A
C888   F910    1.355   .     S
F893   C930    1.356   .     S
F894   C999    1.358   1_455 S
N895   O897    1.301   .     A
N895   O896    1.300   .     A
N898   O900    1.302   .     A
N898   O899    1.302   .     A
N903   O905    1.299   .     A
N903   O904    1.301   .     A
N906   O908    1.297   .     A
N906   O907    1.301   .     A
O911   Cu923   1.958   .     S
O912   Cu924   1.958   .     S
O912   C986    1.295   .     S
O913   Cu924   1.962   .     S
O913   C915    1.297   .     A
O914   C916    1.297   .     A
O914   Cu923   1.962   .     S
C915   C954    1.447   .     S
C915   O981    1.295   .     S
C916   C953    1.446   .     S
O917   Cu923   1.950   .     S
O918   Cu924   1.950   .     S
O918   C992    1.306   .     S
O919   Cu924   1.944   .     S
O919   C921    1.304   .     A
O920   C922    1.300   .     A
O920   Cu923   1.944   .     S
C921   C925    1.478   .     S
C921   O987    1.302   .     S
C922   C926    1.479   .     S
Cu923  N959    2.026   .     S
Cu924  N960    2.026   .     S
Cu924  Cu993   2.696   .     S
C925   C929    1.408   .     A
C925   C931    1.409   .     A
C926   C930    1.405   .     A
C926   C932    1.407   .     A
C927   C935    1.399   .     A
C927   C929    1.390   .     A
C927   H1015   1.084   .     S
C928   C936    1.402   .     A
C928   C930    1.394   .     A
C928   H946    1.084   .     S
C929   F1034   1.358   .     S
C931   C933    1.410   .     A
C931   F962    1.357   .     S
C932   F961    1.359   .     S
C932   C934    1.413   .     A
C933   C937    1.426   .     A
C933   C935    1.415   .     A
C934   C936    1.414   .     A
C934   C938    1.425   .     A
C935   C311    1.389   1_556 S
C937   C940    1.427   .     A
C937   C308    1.420   1_556 S
C938   C939    1.421   .     A
C939   N965    1.428   .     S
C939   C941    1.392   .     A
C940   N968    1.439   .     S
C940   C942    1.399   .     A
C941   H943    1.083   .     S
C942   H944    1.084   .     S
C942   C306    1.394   1_556 S
C947   F971    1.358   .     S
C947   C954    1.402   .     A
C948   C953    1.402   .     A
C948   F972    1.358   .     S
C948   C1160   1.385   .     S
C949   H951    1.083   .     S
C949   C1157   1.385   .     S
C949   C1023   1.400   .     S
C950   H952    1.083   .     S
C954   C1020   1.400   .     S
C955   N960    1.381   .     A
C955   C957    1.418   .     A
C955   N973    1.429   .     S
C956   N959    1.386   .     A
C956   N976    1.433   .     S
C956   C958    1.418   .     A
C957   N959    1.362   .     A
C957   F979    1.355   .     S
C958   N960    1.359   .     A
C958   F980    1.355   .     S
F963   C1000   1.356   .     S
N965   O967    1.301   .     A
N965   O966    1.300   .     A
N968   O970    1.302   .     A
N968   O969    1.302   .     A
N973   O975    1.299   .     A
N973   O974    1.301   .     A
N976   O978    1.297   .     A
N976   O977    1.301   .     A
O981   Cu993   1.958   .     S
O982   Cu994   1.958   .     S
O982   C846    1.295   1_655 S
O983   Cu994   1.962   .     S
O983   C985    1.297   .     A
O984   C986    1.297   .     A
O984   Cu993   1.962   .     S
C985   C1024   1.447   .     S
C985   O841    1.295   1_655 S
C986   C1023   1.446   .     S
O987   Cu993   1.950   .     S
O988   Cu994   1.950   .     S
O988   C852    1.306   1_655 S
O989   Cu994   1.944   .     S
O989   C991    1.304   .     A
O990   C992    1.300   .     A
O990   Cu993   1.944   .     S
C991   C995    1.478   .     S
C991   O847    1.302   1_655 S
C992   C996    1.479   .     S
Cu993  N1029   2.026   .     S
Cu994  N1030   2.026   .     S
Cu994  Cu853   2.696   1_655 S
C995   C999    1.408   .     A
C995   C1001   1.409   .     A
C996   C1000   1.405   .     A
C996   C1002   1.407   .     A
C997   C1005   1.399   .     A
C997   C999    1.390   .     A
C997   H875    1.084   1_655 S
C998   C1006   1.402   .     A
C998   C1000   1.394   .     A
C998   H1016   1.084   .     S
C999   F894    1.358   1_655 S
C1001  C1003   1.410   .     A
C1001  F1032   1.357   .     S
C1002  F1031   1.359   .     S
C1002  C1004   1.413   .     A
C1003  C1007   1.426   .     A
C1003  C1005   1.415   .     A
C1004  C1006   1.414   .     A
C1004  C1008   1.425   .     A
C1005  C381    1.389   1_556 S
C1007  C1010   1.427   .     A
C1007  C378    1.420   1_556 S
C1008  C1009   1.421   .     A
C1009  N1035   1.428   .     S
C1009  C1011   1.392   .     A
C1010  N1038   1.439   .     S
C1010  C1012   1.399   .     A
C1011  H1013   1.083   .     S
C1012  H1014   1.084   .     S
C1012  C376    1.394   1_556 S
C1017  F1041   1.358   .     S
C1017  C1024   1.402   .     A
C1018  C1023   1.402   .     A
C1018  F1042   1.358   .     S
C1018  C1230   1.385   .     S
C1019  H1021   1.083   .     S
C1019  C1227   1.385   .     S
C1019  C883    1.400   1_655 S
C1020  H1022   1.083   .     S
C1024  C880    1.400   1_655 S
C1025  N1030   1.381   .     A
C1025  C1027   1.418   .     A
C1025  N1043   1.429   .     S
C1026  N1029   1.386   .     A
C1026  N1046   1.433   .     S
C1026  C1028   1.418   .     A
C1027  N1029   1.362   .     A
C1027  F1049   1.355   .     S
C1028  N1030   1.359   .     A
C1028  F1050   1.355   .     S
F1033  C860    1.356   1_655 S
N1035  O1037   1.301   .     A
N1035  O1036   1.300   .     A
N1038  O1040   1.302   .     A
N1038  O1039   1.302   .     A
N1043  O1045   1.299   .     A
N1043  O1044   1.301   .     A
N1046  O1048   1.297   .     A
N1046  O1047   1.301   .     A
O1051  Cu1063  1.958   .     S
O1051  C1195   1.295   1_455 S
O1052  Cu1064  1.958   .     S
O1052  C1126   1.295   .     S
O1053  Cu1064  1.962   .     S
O1053  C1055   1.297   .     A
O1054  C1056   1.297   .     A
O1054  Cu1063  1.962   .     S
C1055  C1094   1.447   .     S
C1055  O1121   1.295   .     S
C1056  C1093   1.446   .     S
C1056  O1192   1.295   1_455 S
O1057  Cu1063  1.950   .     S
O1057  C1201   1.302   1_455 S
O1058  Cu1064  1.950   .     S
O1058  C1132   1.306   .     S
O1059  Cu1064  1.944   .     S
O1059  C1061   1.304   .     A
O1060  C1062   1.300   .     A
O1060  Cu1063  1.944   .     S
C1061  C1065   1.478   .     S
C1061  O1127   1.302   .     S
C1062  C1066   1.479   .     S
C1062  O1198   1.306   1_455 S
Cu1063 N1099   2.026   .     S
Cu1063 Cu1204  2.696   1_455 S
Cu1064 N1100   2.026   .     S
Cu1064 Cu1133  2.696   .     S
C1065  C1069   1.408   .     A
C1065  C1071   1.409   .     A
C1066  C1070   1.405   .     A
C1066  C1072   1.407   .     A
C1067  C1075   1.399   .     A
C1067  C1069   1.390   .     A
C1067  H1155   1.084   .     S
C1068  C1076   1.402   .     A
C1068  C1070   1.394   .     A
C1068  H1086   1.084   .     S
C1069  F1174   1.358   .     S
C1070  F1243   1.356   1_455 S
C1071  C1073   1.410   .     A
C1071  F1102   1.357   .     S
C1072  F1101   1.359   .     S
C1072  C1074   1.413   .     A
C1073  C1077   1.426   .     A
C1073  C1075   1.415   .     A
C1074  C1076   1.414   .     A
C1074  C1078   1.425   .     A
C1075  C451    1.389   1_556 S
C1077  C1080   1.427   .     A
C1077  C448    1.420   1_556 S
C1078  C1079   1.421   .     A
C1079  N1105   1.428   .     S
C1079  C1081   1.392   .     A
C1080  N1108   1.439   .     S
C1080  C1082   1.399   .     A
C1081  H1083   1.083   .     S
C1082  H1084   1.084   .     S
C1082  C446    1.394   1_556 S
H1085  C1207   1.084   1_455 S
C1087  F1111   1.358   .     S
C1087  C1094   1.402   .     A
C1088  C1093   1.402   .     A
C1088  F1112   1.358   .     S
C1088  C670    1.385   1_565 S
C1089  H1091   1.083   .     S
C1089  C667    1.385   1_565 S
C1089  C1163   1.400   .     S
C1090  H1092   1.083   .     S
C1090  C1234   1.400   1_455 S
C1093  C1229   1.400   1_455 S
C1094  C1160   1.400   .     S
C1095  N1100   1.381   .     A
C1095  C1097   1.418   .     A
C1095  N1113   1.429   .     S
C1096  N1099   1.386   .     A
C1096  N1116   1.433   .     S
C1096  C1098   1.418   .     A
C1097  N1099   1.362   .     A
C1097  F1119   1.355   .     S
C1098  N1100   1.359   .     A
C1098  F1120   1.355   .     S
F1103  C1140   1.356   .     S
F1104  C1209   1.358   1_455 S
N1105  O1107   1.301   .     A
N1105  O1106   1.300   .     A
N1108  O1110   1.302   .     A
N1108  O1109   1.302   .     A
N1113  O1115   1.299   .     A
N1113  O1114   1.301   .     A
N1116  O1118   1.297   .     A
N1116  O1117   1.301   .     A
O1121  Cu1133  1.958   .     S
O1122  Cu1134  1.958   .     S
O1122  C1196   1.295   .     S
O1123  Cu1134  1.962   .     S
O1123  C1125   1.297   .     A
O1124  C1126   1.297   .     A
O1124  Cu1133  1.962   .     S
C1125  C1164   1.447   .     S
C1125  O1191   1.295   .     S
C1126  C1163   1.446   .     S
O1127  Cu1133  1.950   .     S
O1128  Cu1134  1.950   .     S
O1128  C1202   1.306   .     S
O1129  Cu1134  1.944   .     S
O1129  C1131   1.304   .     A
O1130  C1132   1.300   .     A
O1130  Cu1133  1.944   .     S
C1131  C1135   1.478   .     S
C1131  O1197   1.302   .     S
C1132  C1136   1.479   .     S
Cu1133 N1169   2.026   .     S
Cu1134 N1170   2.026   .     S
Cu1134 Cu1203  2.696   .     S
C1135  C1139   1.408   .     A
C1135  C1141   1.409   .     A
C1136  C1140   1.405   .     A
C1136  C1142   1.407   .     A
C1137  C1145   1.399   .     A
C1137  C1139   1.390   .     A
C1137  H1225   1.084   .     S
C1138  C1146   1.402   .     A
C1138  C1140   1.394   .     A
C1138  H1156   1.084   .     S
C1139  F1244   1.358   .     S
C1141  C1143   1.410   .     A
C1141  F1172   1.357   .     S
C1142  F1171   1.359   .     S
C1142  C1144   1.413   .     A
C1143  C1147   1.426   .     A
C1143  C1145   1.415   .     A
C1144  C1146   1.414   .     A
C1144  C1148   1.425   .     A
C1145  C521    1.389   1_556 S
C1147  C1150   1.427   .     A
C1147  C518    1.420   1_556 S
C1148  C1149   1.421   .     A
C1149  N1175   1.428   .     S
C1149  C1151   1.392   .     A
C1150  N1178   1.439   .     S
C1150  C1152   1.399   .     A
C1151  H1153   1.083   .     S
C1152  H1154   1.084   .     S
C1152  C516    1.394   1_556 S
C1157  F1181   1.358   .     S
C1157  C1164   1.402   .     A
C1158  C1163   1.402   .     A
C1158  F1182   1.358   .     S
C1158  C740    1.385   1_565 S
C1159  H1161   1.083   .     S
C1159  C737    1.385   1_565 S
C1159  C1233   1.400   .     S
C1160  H1162   1.083   .     S
C1164  C1230   1.400   .     S
C1165  N1170   1.381   .     A
C1165  C1167   1.418   .     A
C1165  N1183   1.429   .     S
C1166  N1169   1.386   .     A
C1166  N1186   1.433   .     S
C1166  C1168   1.418   .     A
C1167  N1169   1.362   .     A
C1167  F1189   1.355   .     S
C1168  N1170   1.359   .     A
C1168  F1190   1.355   .     S
F1173  C1210   1.356   .     S
N1175  O1177   1.301   .     A
N1175  O1176   1.300   .     A
N1178  O1180   1.302   .     A
N1178  O1179   1.302   .     A
N1183  O1185   1.299   .     A
N1183  O1184   1.301   .     A
N1186  O1188   1.297   .     A
N1186  O1187   1.301   .     A
O1191  Cu1203  1.958   .     S
O1192  Cu1204  1.958   .     S
O1192  C1056   1.295   1_655 S
O1193  Cu1204  1.962   .     S
O1193  C1195   1.297   .     A
O1194  C1196   1.297   .     A
O1194  Cu1203  1.962   .     S
C1195  C1234   1.447   .     S
C1195  O1051   1.295   1_655 S
C1196  C1233   1.446   .     S
O1197  Cu1203  1.950   .     S
O1198  Cu1204  1.950   .     S
O1198  C1062   1.306   1_655 S
O1199  Cu1204  1.944   .     S
O1199  C1201   1.304   .     A
O1200  C1202   1.300   .     A
O1200  Cu1203  1.944   .     S
C1201  C1205   1.478   .     S
C1201  O1057   1.302   1_655 S
C1202  C1206   1.479   .     S
Cu1203 N1239   2.026   .     S
Cu1204 N1240   2.026   .     S
Cu1204 Cu1063  2.696   1_655 S
C1205  C1209   1.408   .     A
C1205  C1211   1.409   .     A
C1206  C1210   1.405   .     A
C1206  C1212   1.407   .     A
C1207  C1215   1.399   .     A
C1207  C1209   1.390   .     A
C1207  H1085   1.084   1_655 S
C1208  C1216   1.402   .     A
C1208  C1210   1.394   .     A
C1208  H1226   1.084   .     S
C1209  F1104   1.358   1_655 S
C1211  C1213   1.410   .     A
C1211  F1242   1.357   .     S
C1212  F1241   1.359   .     S
C1212  C1214   1.413   .     A
C1213  C1217   1.426   .     A
C1213  C1215   1.415   .     A
C1214  C1216   1.414   .     A
C1214  C1218   1.425   .     A
C1215  C591    1.389   1_556 S
C1217  C1220   1.427   .     A
C1217  C588    1.420   1_556 S
C1218  C1219   1.421   .     A
C1219  N1245   1.428   .     S
C1219  C1221   1.392   .     A
C1220  N1248   1.439   .     S
C1220  C1222   1.399   .     A
C1221  H1223   1.083   .     S
C1222  H1224   1.084   .     S
C1222  C586    1.394   1_556 S
C1227  F1251   1.358   .     S
C1227  C1234   1.402   .     A
C1228  C1233   1.402   .     A
C1228  F1252   1.358   .     S
C1228  C810    1.385   1_565 S
C1229  H1231   1.083   .     S
C1229  C807    1.385   1_565 S
C1229  C1093   1.400   1_655 S
C1230  H1232   1.083   .     S
C1234  C1090   1.400   1_655 S
C1235  N1240   1.381   .     A
C1235  C1237   1.418   .     A
C1235  N1253   1.429   .     S
C1236  N1239   1.386   .     A
C1236  N1256   1.433   .     S
C1236  C1238   1.418   .     A
C1237  N1239   1.362   .     A
C1237  F1259   1.355   .     S
C1238  N1240   1.359   .     A
C1238  F1260   1.355   .     S
F1243  C1070   1.356   1_655 S
N1245  O1247   1.301   .     A
N1245  O1246   1.300   .     A
N1248  O1250   1.302   .     A
N1248  O1249   1.302   .     A
N1253  O1255   1.299   .     A
N1253  O1254   1.301   .     A
N1256  O1258   1.297   .     A
N1256  O1257   1.301   .     A
