data_str_m2_o2_o10_pcu_sym.181
_audit_creation_date              2020-01-03
_audit_creation_method            'Materials Studio'
_symmetry_space_group_name_H-M    'P1'
_symmetry_Int_Tables_number       1
_symmetry_cell_setting            triclinic
loop_
_symmetry_equiv_pos_as_xyz
  x,y,z
_cell_length_a                    26.1779
_cell_length_b                    30.3155
_cell_length_c                    27.7048
_cell_angle_alpha                 90.7983
_cell_angle_beta                  97.7638
_cell_angle_gamma                 89.6445
loop_
_atom_site_label
_atom_site_type_symbol
_atom_site_fract_x
_atom_site_fract_y
_atom_site_fract_z
_atom_site_U_iso_or_equiv
_atom_site_adp_type
_atom_site_occupancy
C1     C     0.16614   0.16512   0.24958   0.00000  Uiso   1.00
C2     C     0.16654   0.33512   0.25046   0.00000  Uiso   1.00
C3     C     0.18612   0.28611   0.05630   0.00000  Uiso   1.00
C4     C     0.20290   0.22344   0.45020   0.00000  Uiso   1.00
C5     C     0.18691   0.28457   0.10741   0.00000  Uiso   1.00
C6     C     0.20269   0.22583   0.39919   0.00000  Uiso   1.00
C7     C     0.14462   0.21599   0.10160   0.00000  Uiso   1.00
C8     C     0.12906   0.27181   0.39089   0.00000  Uiso   1.00
C9     C     0.14399   0.21480   0.05067   0.00000  Uiso   1.00
C10    C     0.12802   0.27188   0.44156   0.00000  Uiso   1.00
C11    C     0.16614   0.24956   0.02713   0.00000  Uiso   1.00
C12    C     0.16609   0.24857   0.47245   0.00000  Uiso   1.00
C13    C     0.06790   0.25009   0.23759   0.00000  Uiso   1.00
C14    C     0.26543   0.24973   0.26242   0.00000  Uiso   1.00
C15    C     0.01268   0.24999   0.23070   0.00000  Uiso   1.00
C16    C     0.32066   0.24971   0.26932   0.00000  Uiso   1.00
C17    C     0.20698   0.04743   0.27094   0.00000  Uiso   1.00
C18    C     0.20121   0.45306   0.22861   0.00000  Uiso   1.00
C19    C     0.20834   0.09334   0.27132   0.00000  Uiso   1.00
C20    C     0.20387   0.40715   0.23015   0.00000  Uiso   1.00
C21    C     0.16514   0.11699   0.24849   0.00000  Uiso   1.00
C22    C     0.16646   0.38369   0.25203   0.00000  Uiso   1.00
C23    C     0.12119   0.09433   0.22459   0.00000  Uiso   1.00
C24    C     0.13028   0.40720   0.27690   0.00000  Uiso   1.00
C25    C     0.12125   0.04776   0.22433   0.00000  Uiso   1.00
C26    C     0.13019   0.45379   0.27661   0.00000  Uiso   1.00
C27    C     0.16399   0.02470   0.24825   0.00000  Uiso   1.00
C28    C     0.16443   0.47625   0.25079   0.00000  Uiso   1.00
Cu29   Cu    0.16667   0.24999   0.29821   0.00000  Uiso   1.00
Cu30   Cu    0.16667   0.25000   0.20178   0.00000  Uiso   1.00
H31    H     0.32613   0.25014   0.19361   0.00000  Uiso   1.00
H32    H     0.00721   0.24961   0.30642   0.00000  Uiso   1.00
H33    H     0.23974   0.02908   0.28881   0.00000  Uiso   1.00
H34    H     0.22895   0.47125   0.21104   0.00000  Uiso   1.00
H35    H     0.20305   0.31175   0.12958   0.00000  Uiso   1.00
H36    H     0.23102   0.20752   0.38196   0.00000  Uiso   1.00
H37    H     0.12685   0.18983   0.11918   0.00000  Uiso   1.00
H38    H     0.09930   0.28890   0.36734   0.00000  Uiso   1.00
N39    N     0.16667   0.25001   0.12934   0.00000  Uiso   1.00
N40    N     0.16667   0.24999   0.37065   0.00000  Uiso   1.00
O41    O     0.16667   0.18572   0.29071   0.00000  Uiso   1.00
O42    O     0.16666   0.31427   0.20928   0.00000  Uiso   1.00
O43    O     0.16667   0.18573   0.20928   0.00000  Uiso   1.00
O44    O     0.16666   0.31427   0.29072   0.00000  Uiso   1.00
O45    O     0.09161   0.24999   0.28132   0.00000  Uiso   1.00
O46    O     0.24172   0.25000   0.21868   0.00000  Uiso   1.00
O47    O     0.09161   0.25000   0.19988   0.00000  Uiso   1.00
O48    O     0.24172   0.25000   0.30011   0.00000  Uiso   1.00
C49    C     0.25694   0.11567   0.29587   0.00000  Uiso   1.00
C50    C     0.26022   0.11371   0.35123   0.00000  Uiso   1.00
H51    H     0.29423   0.13265   0.36840   0.00000  Uiso   1.00
H52    H     0.22493   0.12820   0.36333   0.00000  Uiso   1.00
H53    H     0.26438   0.07903   0.36358   0.00000  Uiso   1.00
H54    H     0.29129   0.09900   0.28423   0.00000  Uiso   1.00
H55    H     0.25924   0.15063   0.28511   0.00000  Uiso   1.00
C56    C     0.25000   0.38491   0.21234   0.00000  Uiso   1.00
C57    C     0.28815   0.36902   0.25511   0.00000  Uiso   1.00
H58    H     0.27089   0.34313   0.27558   0.00000  Uiso   1.00
H59    H     0.32287   0.35505   0.24143   0.00000  Uiso   1.00
H60    H     0.29960   0.39710   0.28029   0.00000  Uiso   1.00
H61    H     0.23820   0.35710   0.18741   0.00000  Uiso   1.00
H62    H     0.27060   0.40817   0.19109   0.00000  Uiso   1.00
C63    C     0.07365   0.11922   0.20084   0.00000  Uiso   1.00
C64    C     0.06834   0.11629   0.14521   0.00000  Uiso   1.00
H65    H     0.04326   0.14350   0.12916   0.00000  Uiso   1.00
H66    H     0.10661   0.11865   0.13243   0.00000  Uiso   1.00
H67    H     0.05043   0.08466   0.13164   0.00000  Uiso   1.00
H68    H     0.03845   0.10572   0.21351   0.00000  Uiso   1.00
H69    H     0.07426   0.15451   0.21181   0.00000  Uiso   1.00
C70    C     0.09178   0.38364   0.30401   0.00000  Uiso   1.00
C71    C     0.11070   0.38227   0.35863   0.00000  Uiso   1.00
H72    H     0.08129   0.36612   0.37764   0.00000  Uiso   1.00
H73    H     0.14750   0.36362   0.36568   0.00000  Uiso   1.00
H74    H     0.11698   0.41607   0.37409   0.00000  Uiso   1.00
H75    H     0.05429   0.40117   0.29843   0.00000  Uiso   1.00
H76    H     0.08302   0.34982   0.28968   0.00000  Uiso   1.00
C77    C     0.07746   0.02334   0.19995   0.00000  Uiso   1.00
N78    N     0.04256   0.00374   0.18064   0.00000  Uiso   1.00
C79    C     0.09557   0.47888   0.30345   0.00000  Uiso   1.00
N80    N     0.06799   0.49891   0.32479   0.00000  Uiso   1.00
C81    C     0.20298   0.32841   0.03446   0.00000  Uiso   1.00
C82    C     0.25615   0.32470   0.01814   0.00000  Uiso   1.00
H83    H     0.28484   0.31255   0.04829   0.00000  Uiso   1.00
H84    H     0.25498   0.30253   0.48591   0.00000  Uiso   1.00
H85    H     0.26852   0.35774   0.00749   0.00000  Uiso   1.00
H86    H     0.17441   0.33854   0.00329   0.00000  Uiso   1.00
H87    H     0.20422   0.35586   0.06164   0.00000  Uiso   1.00
C88    C     0.23997   0.19137   0.47849   0.00000  Uiso   1.00
C89    C     0.28655   0.21407   0.00708   0.00000  Uiso   1.00
H90    H     0.30583   0.23549   0.48288   0.00000  Uiso   1.00
H91    H     0.27478   0.23368   0.03780   0.00000  Uiso   1.00
H92    H     0.31470   0.18875   0.02258   0.00000  Uiso   1.00
H93    H     0.21979   0.17185   0.00363   0.00000  Uiso   1.00
H94    H     0.25445   0.16704   0.45311   0.00000  Uiso   1.00
C95    C     0.11860   0.17845   0.02320   0.00000  Uiso   1.00
N96    N     0.09821   0.14935   0.00116   0.00000  Uiso   1.00
C97    C     0.08647   0.29475   0.46081   0.00000  Uiso   1.00
N98    N     0.05316   0.31304   0.47626   0.00000  Uiso   1.00
C99    C     0.49947   0.16512   0.24958   0.00000  Uiso   1.00
C100   C     0.49987   0.33512   0.25046   0.00000  Uiso   1.00
C101   C     0.51945   0.28611   0.05630   0.00000  Uiso   1.00
C102   C     0.53624   0.22344   0.45020   0.00000  Uiso   1.00
C103   C     0.52024   0.28457   0.10741   0.00000  Uiso   1.00
C104   C     0.53602   0.22583   0.39919   0.00000  Uiso   1.00
C105   C     0.47795   0.21599   0.10160   0.00000  Uiso   1.00
C106   C     0.46240   0.27181   0.39089   0.00000  Uiso   1.00
C107   C     0.47732   0.21480   0.05067   0.00000  Uiso   1.00
C108   C     0.46135   0.27188   0.44156   0.00000  Uiso   1.00
C109   C     0.49948   0.24956   0.02713   0.00000  Uiso   1.00
C110   C     0.49942   0.24857   0.47245   0.00000  Uiso   1.00
C111   C     0.40123   0.25009   0.23759   0.00000  Uiso   1.00
C112   C     0.59877   0.24973   0.26242   0.00000  Uiso   1.00
C113   C     0.34601   0.24999   0.23070   0.00000  Uiso   1.00
C114   C     0.65400   0.24971   0.26932   0.00000  Uiso   1.00
C115   C     0.54032   0.04743   0.27094   0.00000  Uiso   1.00
C116   C     0.53454   0.45306   0.22861   0.00000  Uiso   1.00
C117   C     0.54167   0.09334   0.27132   0.00000  Uiso   1.00
C118   C     0.53720   0.40715   0.23015   0.00000  Uiso   1.00
C119   C     0.49847   0.11699   0.24849   0.00000  Uiso   1.00
C120   C     0.49979   0.38369   0.25203   0.00000  Uiso   1.00
C121   C     0.45453   0.09433   0.22459   0.00000  Uiso   1.00
C122   C     0.46362   0.40720   0.27690   0.00000  Uiso   1.00
C123   C     0.45458   0.04776   0.22433   0.00000  Uiso   1.00
C124   C     0.46352   0.45379   0.27661   0.00000  Uiso   1.00
C125   C     0.49732   0.02470   0.24825   0.00000  Uiso   1.00
C126   C     0.49776   0.47625   0.25079   0.00000  Uiso   1.00
Cu127  Cu    0.50000   0.24999   0.29821   0.00000  Uiso   1.00
Cu128  Cu    0.50000   0.25000   0.20178   0.00000  Uiso   1.00
H129   H     0.65946   0.25014   0.19361   0.00000  Uiso   1.00
H130   H     0.34054   0.24961   0.30642   0.00000  Uiso   1.00
H131   H     0.57307   0.02908   0.28881   0.00000  Uiso   1.00
H132   H     0.56228   0.47125   0.21104   0.00000  Uiso   1.00
H133   H     0.53638   0.31175   0.12958   0.00000  Uiso   1.00
H134   H     0.56435   0.20752   0.38196   0.00000  Uiso   1.00
H135   H     0.46018   0.18983   0.11918   0.00000  Uiso   1.00
H136   H     0.43263   0.28890   0.36734   0.00000  Uiso   1.00
N137   N     0.50000   0.25001   0.12934   0.00000  Uiso   1.00
N138   N     0.50000   0.24999   0.37065   0.00000  Uiso   1.00
O139   O     0.50000   0.18572   0.29071   0.00000  Uiso   1.00
O140   O     0.50000   0.31427   0.20928   0.00000  Uiso   1.00
O141   O     0.50000   0.18573   0.20928   0.00000  Uiso   1.00
O142   O     0.50000   0.31427   0.29072   0.00000  Uiso   1.00
O143   O     0.42495   0.24999   0.28132   0.00000  Uiso   1.00
O144   O     0.57505   0.25000   0.21868   0.00000  Uiso   1.00
O145   O     0.42495   0.25000   0.19988   0.00000  Uiso   1.00
O146   O     0.57505   0.25000   0.30011   0.00000  Uiso   1.00
C147   C     0.59027   0.11567   0.29587   0.00000  Uiso   1.00
C148   C     0.59355   0.11371   0.35123   0.00000  Uiso   1.00
H149   H     0.62756   0.13265   0.36840   0.00000  Uiso   1.00
H150   H     0.55827   0.12820   0.36333   0.00000  Uiso   1.00
H151   H     0.59772   0.07903   0.36358   0.00000  Uiso   1.00
H152   H     0.62462   0.09900   0.28423   0.00000  Uiso   1.00
H153   H     0.59257   0.15063   0.28511   0.00000  Uiso   1.00
C154   C     0.58333   0.38491   0.21234   0.00000  Uiso   1.00
C155   C     0.62148   0.36902   0.25511   0.00000  Uiso   1.00
H156   H     0.60422   0.34313   0.27558   0.00000  Uiso   1.00
H157   H     0.65620   0.35505   0.24143   0.00000  Uiso   1.00
H158   H     0.63293   0.39710   0.28029   0.00000  Uiso   1.00
H159   H     0.57153   0.35710   0.18741   0.00000  Uiso   1.00
H160   H     0.60393   0.40817   0.19109   0.00000  Uiso   1.00
C161   C     0.40698   0.11922   0.20084   0.00000  Uiso   1.00
C162   C     0.40168   0.11629   0.14521   0.00000  Uiso   1.00
H163   H     0.37659   0.14350   0.12916   0.00000  Uiso   1.00
H164   H     0.43994   0.11865   0.13243   0.00000  Uiso   1.00
H165   H     0.38376   0.08466   0.13164   0.00000  Uiso   1.00
H166   H     0.37179   0.10572   0.21351   0.00000  Uiso   1.00
H167   H     0.40760   0.15451   0.21181   0.00000  Uiso   1.00
C168   C     0.42512   0.38364   0.30401   0.00000  Uiso   1.00
C169   C     0.44404   0.38227   0.35863   0.00000  Uiso   1.00
H170   H     0.41462   0.36612   0.37764   0.00000  Uiso   1.00
H171   H     0.48083   0.36362   0.36568   0.00000  Uiso   1.00
H172   H     0.45032   0.41607   0.37409   0.00000  Uiso   1.00
H173   H     0.38762   0.40117   0.29843   0.00000  Uiso   1.00
H174   H     0.41635   0.34982   0.28968   0.00000  Uiso   1.00
C175   C     0.41079   0.02334   0.19995   0.00000  Uiso   1.00
N176   N     0.37590   0.00374   0.18064   0.00000  Uiso   1.00
C177   C     0.42891   0.47888   0.30345   0.00000  Uiso   1.00
N178   N     0.40132   0.49891   0.32479   0.00000  Uiso   1.00
C179   C     0.53631   0.32841   0.03446   0.00000  Uiso   1.00
C180   C     0.58948   0.32470   0.01814   0.00000  Uiso   1.00
H181   H     0.61817   0.31255   0.04829   0.00000  Uiso   1.00
H182   H     0.58831   0.30253   0.48591   0.00000  Uiso   1.00
H183   H     0.60185   0.35774   0.00749   0.00000  Uiso   1.00
H184   H     0.50774   0.33854   0.00329   0.00000  Uiso   1.00
H185   H     0.53755   0.35586   0.06164   0.00000  Uiso   1.00
C186   C     0.57330   0.19137   0.47849   0.00000  Uiso   1.00
C187   C     0.61988   0.21407   0.00708   0.00000  Uiso   1.00
H188   H     0.63916   0.23549   0.48288   0.00000  Uiso   1.00
H189   H     0.60812   0.23368   0.03780   0.00000  Uiso   1.00
H190   H     0.64803   0.18875   0.02258   0.00000  Uiso   1.00
H191   H     0.55313   0.17185   0.00363   0.00000  Uiso   1.00
H192   H     0.58779   0.16704   0.45311   0.00000  Uiso   1.00
C193   C     0.45194   0.17845   0.02320   0.00000  Uiso   1.00
N194   N     0.43155   0.14935   0.00116   0.00000  Uiso   1.00
C195   C     0.41980   0.29475   0.46081   0.00000  Uiso   1.00
N196   N     0.38649   0.31304   0.47626   0.00000  Uiso   1.00
C197   C     0.83280   0.16512   0.24958   0.00000  Uiso   1.00
C198   C     0.83321   0.33512   0.25046   0.00000  Uiso   1.00
C199   C     0.85278   0.28611   0.05630   0.00000  Uiso   1.00
C200   C     0.86957   0.22344   0.45020   0.00000  Uiso   1.00
C201   C     0.85357   0.28457   0.10741   0.00000  Uiso   1.00
C202   C     0.86936   0.22583   0.39919   0.00000  Uiso   1.00
C203   C     0.81129   0.21599   0.10160   0.00000  Uiso   1.00
C204   C     0.79573   0.27181   0.39089   0.00000  Uiso   1.00
C205   C     0.81066   0.21480   0.05067   0.00000  Uiso   1.00
C206   C     0.79469   0.27188   0.44156   0.00000  Uiso   1.00
C207   C     0.83281   0.24956   0.02713   0.00000  Uiso   1.00
C208   C     0.83276   0.24857   0.47245   0.00000  Uiso   1.00
C209   C     0.73457   0.25009   0.23759   0.00000  Uiso   1.00
C210   C     0.93210   0.24973   0.26242   0.00000  Uiso   1.00
C211   C     0.67934   0.24999   0.23070   0.00000  Uiso   1.00
C212   C     0.98733   0.24971   0.26932   0.00000  Uiso   1.00
C213   C     0.87365   0.04743   0.27094   0.00000  Uiso   1.00
C214   C     0.86788   0.45306   0.22861   0.00000  Uiso   1.00
C215   C     0.87501   0.09334   0.27132   0.00000  Uiso   1.00
C216   C     0.87054   0.40715   0.23015   0.00000  Uiso   1.00
C217   C     0.83181   0.11699   0.24849   0.00000  Uiso   1.00
C218   C     0.83313   0.38369   0.25203   0.00000  Uiso   1.00
C219   C     0.78786   0.09433   0.22459   0.00000  Uiso   1.00
C220   C     0.79695   0.40720   0.27690   0.00000  Uiso   1.00
C221   C     0.78791   0.04776   0.22433   0.00000  Uiso   1.00
C222   C     0.79685   0.45379   0.27661   0.00000  Uiso   1.00
C223   C     0.83066   0.02470   0.24825   0.00000  Uiso   1.00
C224   C     0.83110   0.47625   0.25079   0.00000  Uiso   1.00
Cu225  Cu    0.83333   0.24999   0.29821   0.00000  Uiso   1.00
Cu226  Cu    0.83333   0.25000   0.20178   0.00000  Uiso   1.00
H227   H     0.99279   0.25014   0.19361   0.00000  Uiso   1.00
H228   H     0.67387   0.24961   0.30642   0.00000  Uiso   1.00
H229   H     0.90640   0.02908   0.28881   0.00000  Uiso   1.00
H230   H     0.89562   0.47125   0.21104   0.00000  Uiso   1.00
H231   H     0.86971   0.31175   0.12958   0.00000  Uiso   1.00
H232   H     0.89769   0.20752   0.38196   0.00000  Uiso   1.00
H233   H     0.79351   0.18983   0.11918   0.00000  Uiso   1.00
H234   H     0.76596   0.28890   0.36734   0.00000  Uiso   1.00
N235   N     0.83333   0.25001   0.12934   0.00000  Uiso   1.00
N236   N     0.83333   0.24999   0.37065   0.00000  Uiso   1.00
O237   O     0.83334   0.18572   0.29071   0.00000  Uiso   1.00
O238   O     0.83333   0.31427   0.20928   0.00000  Uiso   1.00
O239   O     0.83334   0.18573   0.20928   0.00000  Uiso   1.00
O240   O     0.83333   0.31427   0.29072   0.00000  Uiso   1.00
O241   O     0.75828   0.24999   0.28132   0.00000  Uiso   1.00
O242   O     0.90839   0.25000   0.21868   0.00000  Uiso   1.00
O243   O     0.75828   0.25000   0.19988   0.00000  Uiso   1.00
O244   O     0.90839   0.25000   0.30011   0.00000  Uiso   1.00
C245   C     0.92360   0.11567   0.29587   0.00000  Uiso   1.00
C246   C     0.92688   0.11371   0.35123   0.00000  Uiso   1.00
H247   H     0.96090   0.13265   0.36840   0.00000  Uiso   1.00
H248   H     0.89160   0.12820   0.36333   0.00000  Uiso   1.00
H249   H     0.93105   0.07903   0.36358   0.00000  Uiso   1.00
H250   H     0.95796   0.09900   0.28423   0.00000  Uiso   1.00
H251   H     0.92591   0.15063   0.28511   0.00000  Uiso   1.00
C252   C     0.91667   0.38491   0.21234   0.00000  Uiso   1.00
C253   C     0.95482   0.36902   0.25511   0.00000  Uiso   1.00
H254   H     0.93756   0.34313   0.27558   0.00000  Uiso   1.00
H255   H     0.98954   0.35505   0.24143   0.00000  Uiso   1.00
H256   H     0.96627   0.39710   0.28029   0.00000  Uiso   1.00
H257   H     0.90487   0.35710   0.18741   0.00000  Uiso   1.00
H258   H     0.93726   0.40817   0.19109   0.00000  Uiso   1.00
C259   C     0.74032   0.11922   0.20084   0.00000  Uiso   1.00
C260   C     0.73501   0.11629   0.14521   0.00000  Uiso   1.00
H261   H     0.70992   0.14350   0.12916   0.00000  Uiso   1.00
H262   H     0.77328   0.11865   0.13243   0.00000  Uiso   1.00
H263   H     0.71710   0.08466   0.13164   0.00000  Uiso   1.00
H264   H     0.70512   0.10572   0.21351   0.00000  Uiso   1.00
H265   H     0.74093   0.15451   0.21181   0.00000  Uiso   1.00
C266   C     0.75845   0.38364   0.30401   0.00000  Uiso   1.00
C267   C     0.77737   0.38227   0.35863   0.00000  Uiso   1.00
H268   H     0.74795   0.36612   0.37764   0.00000  Uiso   1.00
H269   H     0.81417   0.36362   0.36568   0.00000  Uiso   1.00
H270   H     0.78365   0.41607   0.37409   0.00000  Uiso   1.00
H271   H     0.72095   0.40117   0.29843   0.00000  Uiso   1.00
H272   H     0.74969   0.34982   0.28968   0.00000  Uiso   1.00
C273   C     0.74413   0.02334   0.19995   0.00000  Uiso   1.00
N274   N     0.70923   0.00374   0.18064   0.00000  Uiso   1.00
C275   C     0.76224   0.47888   0.30345   0.00000  Uiso   1.00
N276   N     0.73465   0.49891   0.32479   0.00000  Uiso   1.00
C277   C     0.86964   0.32841   0.03446   0.00000  Uiso   1.00
C278   C     0.92281   0.32470   0.01814   0.00000  Uiso   1.00
H279   H     0.95151   0.31255   0.04829   0.00000  Uiso   1.00
H280   H     0.92165   0.30253   0.48591   0.00000  Uiso   1.00
H281   H     0.93518   0.35774   0.00749   0.00000  Uiso   1.00
H282   H     0.84108   0.33854   0.00329   0.00000  Uiso   1.00
H283   H     0.87088   0.35586   0.06164   0.00000  Uiso   1.00
C284   C     0.90664   0.19137   0.47849   0.00000  Uiso   1.00
C285   C     0.95322   0.21407   0.00708   0.00000  Uiso   1.00
H286   H     0.97249   0.23549   0.48288   0.00000  Uiso   1.00
H287   H     0.94145   0.23368   0.03780   0.00000  Uiso   1.00
H288   H     0.98137   0.18875   0.02258   0.00000  Uiso   1.00
H289   H     0.88646   0.17185   0.00363   0.00000  Uiso   1.00
H290   H     0.92112   0.16704   0.45311   0.00000  Uiso   1.00
C291   C     0.78527   0.17845   0.02320   0.00000  Uiso   1.00
N292   N     0.76488   0.14935   0.00116   0.00000  Uiso   1.00
C293   C     0.75314   0.29475   0.46081   0.00000  Uiso   1.00
N294   N     0.71983   0.31304   0.47626   0.00000  Uiso   1.00
C295   C     0.16614   0.66512   0.24958   0.00000  Uiso   1.00
C296   C     0.16654   0.83512   0.25046   0.00000  Uiso   1.00
C297   C     0.18612   0.78611   0.05630   0.00000  Uiso   1.00
C298   C     0.20290   0.72344   0.45020   0.00000  Uiso   1.00
C299   C     0.18691   0.78457   0.10741   0.00000  Uiso   1.00
C300   C     0.20269   0.72583   0.39919   0.00000  Uiso   1.00
C301   C     0.14462   0.71599   0.10160   0.00000  Uiso   1.00
C302   C     0.12906   0.77181   0.39089   0.00000  Uiso   1.00
C303   C     0.14399   0.71480   0.05067   0.00000  Uiso   1.00
C304   C     0.12802   0.77188   0.44156   0.00000  Uiso   1.00
C305   C     0.16614   0.74956   0.02713   0.00000  Uiso   1.00
C306   C     0.16609   0.74857   0.47245   0.00000  Uiso   1.00
C307   C     0.06790   0.75009   0.23759   0.00000  Uiso   1.00
C308   C     0.26543   0.74973   0.26242   0.00000  Uiso   1.00
C309   C     0.01268   0.74999   0.23070   0.00000  Uiso   1.00
C310   C     0.32066   0.74971   0.26932   0.00000  Uiso   1.00
C311   C     0.20698   0.54743   0.27094   0.00000  Uiso   1.00
C312   C     0.20121   0.95306   0.22861   0.00000  Uiso   1.00
C313   C     0.20834   0.59334   0.27132   0.00000  Uiso   1.00
C314   C     0.20387   0.90715   0.23015   0.00000  Uiso   1.00
C315   C     0.16514   0.61699   0.24849   0.00000  Uiso   1.00
C316   C     0.16646   0.88369   0.25203   0.00000  Uiso   1.00
C317   C     0.12119   0.59433   0.22459   0.00000  Uiso   1.00
C318   C     0.13028   0.90720   0.27690   0.00000  Uiso   1.00
C319   C     0.12125   0.54776   0.22433   0.00000  Uiso   1.00
C320   C     0.13019   0.95379   0.27661   0.00000  Uiso   1.00
C321   C     0.16399   0.52470   0.24825   0.00000  Uiso   1.00
C322   C     0.16443   0.97625   0.25079   0.00000  Uiso   1.00
Cu323  Cu    0.16667   0.74999   0.29821   0.00000  Uiso   1.00
Cu324  Cu    0.16667   0.75000   0.20178   0.00000  Uiso   1.00
H325   H     0.32613   0.75014   0.19361   0.00000  Uiso   1.00
H326   H     0.00721   0.74961   0.30642   0.00000  Uiso   1.00
H327   H     0.23974   0.52908   0.28881   0.00000  Uiso   1.00
H328   H     0.22895   0.97125   0.21104   0.00000  Uiso   1.00
H329   H     0.20305   0.81175   0.12958   0.00000  Uiso   1.00
H330   H     0.23102   0.70752   0.38196   0.00000  Uiso   1.00
H331   H     0.12685   0.68983   0.11918   0.00000  Uiso   1.00
H332   H     0.09930   0.78890   0.36734   0.00000  Uiso   1.00
N333   N     0.16667   0.75001   0.12934   0.00000  Uiso   1.00
N334   N     0.16667   0.74999   0.37065   0.00000  Uiso   1.00
O335   O     0.16667   0.68572   0.29071   0.00000  Uiso   1.00
O336   O     0.16666   0.81427   0.20928   0.00000  Uiso   1.00
O337   O     0.16667   0.68573   0.20928   0.00000  Uiso   1.00
O338   O     0.16666   0.81427   0.29072   0.00000  Uiso   1.00
O339   O     0.09161   0.74999   0.28132   0.00000  Uiso   1.00
O340   O     0.24172   0.75000   0.21868   0.00000  Uiso   1.00
O341   O     0.09161   0.75000   0.19988   0.00000  Uiso   1.00
O342   O     0.24172   0.75000   0.30011   0.00000  Uiso   1.00
C343   C     0.25694   0.61567   0.29587   0.00000  Uiso   1.00
C344   C     0.26022   0.61371   0.35123   0.00000  Uiso   1.00
H345   H     0.29423   0.63265   0.36840   0.00000  Uiso   1.00
H346   H     0.22493   0.62820   0.36333   0.00000  Uiso   1.00
H347   H     0.26438   0.57903   0.36358   0.00000  Uiso   1.00
H348   H     0.29129   0.59900   0.28423   0.00000  Uiso   1.00
H349   H     0.25924   0.65063   0.28511   0.00000  Uiso   1.00
C350   C     0.25000   0.88491   0.21234   0.00000  Uiso   1.00
C351   C     0.28815   0.86902   0.25511   0.00000  Uiso   1.00
H352   H     0.27089   0.84313   0.27558   0.00000  Uiso   1.00
H353   H     0.32287   0.85505   0.24143   0.00000  Uiso   1.00
H354   H     0.29960   0.89710   0.28029   0.00000  Uiso   1.00
H355   H     0.23820   0.85710   0.18741   0.00000  Uiso   1.00
H356   H     0.27060   0.90817   0.19109   0.00000  Uiso   1.00
C357   C     0.07365   0.61922   0.20084   0.00000  Uiso   1.00
C358   C     0.06834   0.61629   0.14521   0.00000  Uiso   1.00
H359   H     0.04326   0.64350   0.12916   0.00000  Uiso   1.00
H360   H     0.10661   0.61865   0.13243   0.00000  Uiso   1.00
H361   H     0.05043   0.58466   0.13164   0.00000  Uiso   1.00
H362   H     0.03845   0.60572   0.21351   0.00000  Uiso   1.00
H363   H     0.07426   0.65451   0.21181   0.00000  Uiso   1.00
C364   C     0.09178   0.88364   0.30401   0.00000  Uiso   1.00
C365   C     0.11070   0.88227   0.35863   0.00000  Uiso   1.00
H366   H     0.08129   0.86612   0.37764   0.00000  Uiso   1.00
H367   H     0.14750   0.86362   0.36568   0.00000  Uiso   1.00
H368   H     0.11698   0.91607   0.37409   0.00000  Uiso   1.00
H369   H     0.05429   0.90117   0.29843   0.00000  Uiso   1.00
H370   H     0.08302   0.84982   0.28968   0.00000  Uiso   1.00
C371   C     0.07746   0.52334   0.19995   0.00000  Uiso   1.00
N372   N     0.04256   0.50374   0.18064   0.00000  Uiso   1.00
C373   C     0.09557   0.97888   0.30345   0.00000  Uiso   1.00
N374   N     0.06799   0.99891   0.32479   0.00000  Uiso   1.00
C375   C     0.20298   0.82841   0.03446   0.00000  Uiso   1.00
C376   C     0.25615   0.82470   0.01814   0.00000  Uiso   1.00
H377   H     0.28484   0.81255   0.04829   0.00000  Uiso   1.00
H378   H     0.25498   0.80253   0.48591   0.00000  Uiso   1.00
H379   H     0.26852   0.85774   0.00749   0.00000  Uiso   1.00
H380   H     0.17441   0.83854   0.00329   0.00000  Uiso   1.00
H381   H     0.20422   0.85586   0.06164   0.00000  Uiso   1.00
C382   C     0.23997   0.69137   0.47849   0.00000  Uiso   1.00
C383   C     0.28655   0.71407   0.00708   0.00000  Uiso   1.00
H384   H     0.30583   0.73549   0.48288   0.00000  Uiso   1.00
H385   H     0.27478   0.73368   0.03780   0.00000  Uiso   1.00
H386   H     0.31470   0.68875   0.02258   0.00000  Uiso   1.00
H387   H     0.21979   0.67185   0.00363   0.00000  Uiso   1.00
H388   H     0.25445   0.66704   0.45311   0.00000  Uiso   1.00
C389   C     0.11860   0.67845   0.02320   0.00000  Uiso   1.00
N390   N     0.09821   0.64935   0.00116   0.00000  Uiso   1.00
C391   C     0.08647   0.79475   0.46081   0.00000  Uiso   1.00
N392   N     0.05316   0.81304   0.47626   0.00000  Uiso   1.00
C393   C     0.49947   0.66512   0.24958   0.00000  Uiso   1.00
C394   C     0.49987   0.83512   0.25046   0.00000  Uiso   1.00
C395   C     0.51945   0.78611   0.05630   0.00000  Uiso   1.00
C396   C     0.53624   0.72344   0.45020   0.00000  Uiso   1.00
C397   C     0.52024   0.78457   0.10741   0.00000  Uiso   1.00
C398   C     0.53602   0.72583   0.39919   0.00000  Uiso   1.00
C399   C     0.47795   0.71599   0.10160   0.00000  Uiso   1.00
C400   C     0.46240   0.77181   0.39089   0.00000  Uiso   1.00
C401   C     0.47732   0.71480   0.05067   0.00000  Uiso   1.00
C402   C     0.46135   0.77188   0.44156   0.00000  Uiso   1.00
C403   C     0.49948   0.74956   0.02713   0.00000  Uiso   1.00
C404   C     0.49942   0.74857   0.47245   0.00000  Uiso   1.00
C405   C     0.40123   0.75009   0.23759   0.00000  Uiso   1.00
C406   C     0.59877   0.74973   0.26242   0.00000  Uiso   1.00
C407   C     0.34601   0.74999   0.23070   0.00000  Uiso   1.00
C408   C     0.65400   0.74971   0.26932   0.00000  Uiso   1.00
C409   C     0.54032   0.54743   0.27094   0.00000  Uiso   1.00
C410   C     0.53454   0.95306   0.22861   0.00000  Uiso   1.00
C411   C     0.54167   0.59334   0.27132   0.00000  Uiso   1.00
C412   C     0.53720   0.90715   0.23015   0.00000  Uiso   1.00
C413   C     0.49847   0.61699   0.24849   0.00000  Uiso   1.00
C414   C     0.49979   0.88369   0.25203   0.00000  Uiso   1.00
C415   C     0.45453   0.59433   0.22459   0.00000  Uiso   1.00
C416   C     0.46362   0.90720   0.27690   0.00000  Uiso   1.00
C417   C     0.45458   0.54776   0.22433   0.00000  Uiso   1.00
C418   C     0.46352   0.95379   0.27661   0.00000  Uiso   1.00
C419   C     0.49732   0.52470   0.24825   0.00000  Uiso   1.00
C420   C     0.49776   0.97625   0.25079   0.00000  Uiso   1.00
Cu421  Cu    0.50000   0.74999   0.29821   0.00000  Uiso   1.00
Cu422  Cu    0.50000   0.75000   0.20178   0.00000  Uiso   1.00
H423   H     0.65946   0.75014   0.19361   0.00000  Uiso   1.00
H424   H     0.34054   0.74961   0.30642   0.00000  Uiso   1.00
H425   H     0.57307   0.52908   0.28881   0.00000  Uiso   1.00
H426   H     0.56228   0.97125   0.21104   0.00000  Uiso   1.00
H427   H     0.53638   0.81175   0.12958   0.00000  Uiso   1.00
H428   H     0.56435   0.70752   0.38196   0.00000  Uiso   1.00
H429   H     0.46018   0.68983   0.11918   0.00000  Uiso   1.00
H430   H     0.43263   0.78890   0.36734   0.00000  Uiso   1.00
N431   N     0.50000   0.75001   0.12934   0.00000  Uiso   1.00
N432   N     0.50000   0.74999   0.37065   0.00000  Uiso   1.00
O433   O     0.50000   0.68572   0.29071   0.00000  Uiso   1.00
O434   O     0.50000   0.81427   0.20928   0.00000  Uiso   1.00
O435   O     0.50000   0.68573   0.20928   0.00000  Uiso   1.00
O436   O     0.50000   0.81427   0.29072   0.00000  Uiso   1.00
O437   O     0.42495   0.74999   0.28132   0.00000  Uiso   1.00
O438   O     0.57505   0.75000   0.21868   0.00000  Uiso   1.00
O439   O     0.42495   0.75000   0.19988   0.00000  Uiso   1.00
O440   O     0.57505   0.75000   0.30011   0.00000  Uiso   1.00
C441   C     0.59027   0.61567   0.29587   0.00000  Uiso   1.00
C442   C     0.59355   0.61371   0.35123   0.00000  Uiso   1.00
H443   H     0.62756   0.63265   0.36840   0.00000  Uiso   1.00
H444   H     0.55827   0.62820   0.36333   0.00000  Uiso   1.00
H445   H     0.59772   0.57903   0.36358   0.00000  Uiso   1.00
H446   H     0.62462   0.59900   0.28423   0.00000  Uiso   1.00
H447   H     0.59257   0.65063   0.28511   0.00000  Uiso   1.00
C448   C     0.58333   0.88491   0.21234   0.00000  Uiso   1.00
C449   C     0.62148   0.86902   0.25511   0.00000  Uiso   1.00
H450   H     0.60422   0.84313   0.27558   0.00000  Uiso   1.00
H451   H     0.65620   0.85505   0.24143   0.00000  Uiso   1.00
H452   H     0.63293   0.89710   0.28029   0.00000  Uiso   1.00
H453   H     0.57153   0.85710   0.18741   0.00000  Uiso   1.00
H454   H     0.60393   0.90817   0.19109   0.00000  Uiso   1.00
C455   C     0.40698   0.61922   0.20084   0.00000  Uiso   1.00
C456   C     0.40168   0.61629   0.14521   0.00000  Uiso   1.00
H457   H     0.37659   0.64350   0.12916   0.00000  Uiso   1.00
H458   H     0.43994   0.61865   0.13243   0.00000  Uiso   1.00
H459   H     0.38376   0.58466   0.13164   0.00000  Uiso   1.00
H460   H     0.37179   0.60572   0.21351   0.00000  Uiso   1.00
H461   H     0.40760   0.65451   0.21181   0.00000  Uiso   1.00
C462   C     0.42512   0.88364   0.30401   0.00000  Uiso   1.00
C463   C     0.44404   0.88227   0.35863   0.00000  Uiso   1.00
H464   H     0.41462   0.86612   0.37764   0.00000  Uiso   1.00
H465   H     0.48083   0.86362   0.36568   0.00000  Uiso   1.00
H466   H     0.45032   0.91607   0.37409   0.00000  Uiso   1.00
H467   H     0.38762   0.90117   0.29843   0.00000  Uiso   1.00
H468   H     0.41635   0.84982   0.28968   0.00000  Uiso   1.00
C469   C     0.41079   0.52334   0.19995   0.00000  Uiso   1.00
N470   N     0.37590   0.50374   0.18064   0.00000  Uiso   1.00
C471   C     0.42891   0.97888   0.30345   0.00000  Uiso   1.00
N472   N     0.40132   0.99891   0.32479   0.00000  Uiso   1.00
C473   C     0.53631   0.82841   0.03446   0.00000  Uiso   1.00
C474   C     0.58948   0.82470   0.01814   0.00000  Uiso   1.00
H475   H     0.61817   0.81255   0.04829   0.00000  Uiso   1.00
H476   H     0.58831   0.80253   0.48591   0.00000  Uiso   1.00
H477   H     0.60185   0.85774   0.00749   0.00000  Uiso   1.00
H478   H     0.50774   0.83854   0.00329   0.00000  Uiso   1.00
H479   H     0.53755   0.85586   0.06164   0.00000  Uiso   1.00
C480   C     0.57330   0.69137   0.47849   0.00000  Uiso   1.00
C481   C     0.61988   0.71407   0.00708   0.00000  Uiso   1.00
H482   H     0.63916   0.73549   0.48288   0.00000  Uiso   1.00
H483   H     0.60812   0.73368   0.03780   0.00000  Uiso   1.00
H484   H     0.64803   0.68875   0.02258   0.00000  Uiso   1.00
H485   H     0.55313   0.67185   0.00363   0.00000  Uiso   1.00
H486   H     0.58779   0.66704   0.45311   0.00000  Uiso   1.00
C487   C     0.45194   0.67845   0.02320   0.00000  Uiso   1.00
N488   N     0.43155   0.64935   0.00116   0.00000  Uiso   1.00
C489   C     0.41980   0.79475   0.46081   0.00000  Uiso   1.00
N490   N     0.38649   0.81304   0.47626   0.00000  Uiso   1.00
C491   C     0.83280   0.66512   0.24958   0.00000  Uiso   1.00
C492   C     0.83321   0.83512   0.25046   0.00000  Uiso   1.00
C493   C     0.85278   0.78611   0.05630   0.00000  Uiso   1.00
C494   C     0.86957   0.72344   0.45020   0.00000  Uiso   1.00
C495   C     0.85357   0.78457   0.10741   0.00000  Uiso   1.00
C496   C     0.86936   0.72583   0.39919   0.00000  Uiso   1.00
C497   C     0.81129   0.71599   0.10160   0.00000  Uiso   1.00
C498   C     0.79573   0.77181   0.39089   0.00000  Uiso   1.00
C499   C     0.81066   0.71480   0.05067   0.00000  Uiso   1.00
C500   C     0.79469   0.77188   0.44156   0.00000  Uiso   1.00
C501   C     0.83281   0.74956   0.02713   0.00000  Uiso   1.00
C502   C     0.83276   0.74857   0.47245   0.00000  Uiso   1.00
C503   C     0.73457   0.75009   0.23759   0.00000  Uiso   1.00
C504   C     0.93210   0.74973   0.26242   0.00000  Uiso   1.00
C505   C     0.67934   0.74999   0.23070   0.00000  Uiso   1.00
C506   C     0.98733   0.74971   0.26932   0.00000  Uiso   1.00
C507   C     0.87365   0.54743   0.27094   0.00000  Uiso   1.00
C508   C     0.86788   0.95306   0.22861   0.00000  Uiso   1.00
C509   C     0.87501   0.59334   0.27132   0.00000  Uiso   1.00
C510   C     0.87054   0.90715   0.23015   0.00000  Uiso   1.00
C511   C     0.83181   0.61699   0.24849   0.00000  Uiso   1.00
C512   C     0.83313   0.88369   0.25203   0.00000  Uiso   1.00
C513   C     0.78786   0.59433   0.22459   0.00000  Uiso   1.00
C514   C     0.79695   0.90720   0.27690   0.00000  Uiso   1.00
C515   C     0.78791   0.54776   0.22433   0.00000  Uiso   1.00
C516   C     0.79685   0.95379   0.27661   0.00000  Uiso   1.00
C517   C     0.83066   0.52470   0.24825   0.00000  Uiso   1.00
C518   C     0.83110   0.97625   0.25079   0.00000  Uiso   1.00
Cu519  Cu    0.83333   0.74999   0.29821   0.00000  Uiso   1.00
Cu520  Cu    0.83333   0.75000   0.20178   0.00000  Uiso   1.00
H521   H     0.99279   0.75014   0.19361   0.00000  Uiso   1.00
H522   H     0.67387   0.74961   0.30642   0.00000  Uiso   1.00
H523   H     0.90640   0.52908   0.28881   0.00000  Uiso   1.00
H524   H     0.89562   0.97125   0.21104   0.00000  Uiso   1.00
H525   H     0.86971   0.81175   0.12958   0.00000  Uiso   1.00
H526   H     0.89769   0.70752   0.38196   0.00000  Uiso   1.00
H527   H     0.79351   0.68983   0.11918   0.00000  Uiso   1.00
H528   H     0.76596   0.78890   0.36734   0.00000  Uiso   1.00
N529   N     0.83333   0.75001   0.12934   0.00000  Uiso   1.00
N530   N     0.83333   0.74999   0.37065   0.00000  Uiso   1.00
O531   O     0.83334   0.68572   0.29071   0.00000  Uiso   1.00
O532   O     0.83333   0.81427   0.20928   0.00000  Uiso   1.00
O533   O     0.83334   0.68573   0.20928   0.00000  Uiso   1.00
O534   O     0.83333   0.81427   0.29072   0.00000  Uiso   1.00
O535   O     0.75828   0.74999   0.28132   0.00000  Uiso   1.00
O536   O     0.90839   0.75000   0.21868   0.00000  Uiso   1.00
O537   O     0.75828   0.75000   0.19988   0.00000  Uiso   1.00
O538   O     0.90839   0.75000   0.30011   0.00000  Uiso   1.00
C539   C     0.92360   0.61567   0.29587   0.00000  Uiso   1.00
C540   C     0.92688   0.61371   0.35123   0.00000  Uiso   1.00
H541   H     0.96090   0.63265   0.36840   0.00000  Uiso   1.00
H542   H     0.89160   0.62820   0.36333   0.00000  Uiso   1.00
H543   H     0.93105   0.57903   0.36358   0.00000  Uiso   1.00
H544   H     0.95796   0.59900   0.28423   0.00000  Uiso   1.00
H545   H     0.92591   0.65063   0.28511   0.00000  Uiso   1.00
C546   C     0.91667   0.88491   0.21234   0.00000  Uiso   1.00
C547   C     0.95482   0.86902   0.25511   0.00000  Uiso   1.00
H548   H     0.93756   0.84313   0.27558   0.00000  Uiso   1.00
H549   H     0.98954   0.85505   0.24143   0.00000  Uiso   1.00
H550   H     0.96627   0.89710   0.28029   0.00000  Uiso   1.00
H551   H     0.90487   0.85710   0.18741   0.00000  Uiso   1.00
H552   H     0.93726   0.90817   0.19109   0.00000  Uiso   1.00
C553   C     0.74032   0.61922   0.20084   0.00000  Uiso   1.00
C554   C     0.73501   0.61629   0.14521   0.00000  Uiso   1.00
H555   H     0.70992   0.64350   0.12916   0.00000  Uiso   1.00
H556   H     0.77328   0.61865   0.13243   0.00000  Uiso   1.00
H557   H     0.71710   0.58466   0.13164   0.00000  Uiso   1.00
H558   H     0.70512   0.60572   0.21351   0.00000  Uiso   1.00
H559   H     0.74093   0.65451   0.21181   0.00000  Uiso   1.00
C560   C     0.75845   0.88364   0.30401   0.00000  Uiso   1.00
C561   C     0.77737   0.88227   0.35863   0.00000  Uiso   1.00
H562   H     0.74795   0.86612   0.37764   0.00000  Uiso   1.00
H563   H     0.81417   0.86362   0.36568   0.00000  Uiso   1.00
H564   H     0.78365   0.91607   0.37409   0.00000  Uiso   1.00
H565   H     0.72095   0.90117   0.29843   0.00000  Uiso   1.00
H566   H     0.74969   0.84982   0.28968   0.00000  Uiso   1.00
C567   C     0.74413   0.52334   0.19995   0.00000  Uiso   1.00
N568   N     0.70923   0.50374   0.18064   0.00000  Uiso   1.00
C569   C     0.76224   0.97888   0.30345   0.00000  Uiso   1.00
N570   N     0.73465   0.99891   0.32479   0.00000  Uiso   1.00
C571   C     0.86964   0.82841   0.03446   0.00000  Uiso   1.00
C572   C     0.92281   0.82470   0.01814   0.00000  Uiso   1.00
H573   H     0.95151   0.81255   0.04829   0.00000  Uiso   1.00
H574   H     0.92165   0.80253   0.48591   0.00000  Uiso   1.00
H575   H     0.93518   0.85774   0.00749   0.00000  Uiso   1.00
H576   H     0.84108   0.83854   0.00329   0.00000  Uiso   1.00
H577   H     0.87088   0.85586   0.06164   0.00000  Uiso   1.00
C578   C     0.90664   0.69137   0.47849   0.00000  Uiso   1.00
C579   C     0.95322   0.71407   0.00708   0.00000  Uiso   1.00
H580   H     0.97249   0.73549   0.48288   0.00000  Uiso   1.00
H581   H     0.94145   0.73368   0.03780   0.00000  Uiso   1.00
H582   H     0.98137   0.68875   0.02258   0.00000  Uiso   1.00
H583   H     0.88646   0.67185   0.00363   0.00000  Uiso   1.00
H584   H     0.92112   0.66704   0.45311   0.00000  Uiso   1.00
C585   C     0.78527   0.67845   0.02320   0.00000  Uiso   1.00
N586   N     0.76488   0.64935   0.00116   0.00000  Uiso   1.00
C587   C     0.75314   0.79475   0.46081   0.00000  Uiso   1.00
N588   N     0.71983   0.81304   0.47626   0.00000  Uiso   1.00
C589   C     0.16614   0.16512   0.74958   0.00000  Uiso   1.00
C590   C     0.16654   0.33512   0.75046   0.00000  Uiso   1.00
C591   C     0.18612   0.28611   0.55630   0.00000  Uiso   1.00
C592   C     0.20290   0.22344   0.95020   0.00000  Uiso   1.00
C593   C     0.18691   0.28457   0.60741   0.00000  Uiso   1.00
C594   C     0.20269   0.22583   0.89919   0.00000  Uiso   1.00
C595   C     0.14462   0.21599   0.60160   0.00000  Uiso   1.00
C596   C     0.12906   0.27181   0.89089   0.00000  Uiso   1.00
C597   C     0.14399   0.21480   0.55067   0.00000  Uiso   1.00
C598   C     0.12802   0.27188   0.94156   0.00000  Uiso   1.00
C599   C     0.16614   0.24956   0.52713   0.00000  Uiso   1.00
C600   C     0.16609   0.24857   0.97245   0.00000  Uiso   1.00
C601   C     0.06790   0.25009   0.73759   0.00000  Uiso   1.00
C602   C     0.26543   0.24973   0.76242   0.00000  Uiso   1.00
C603   C     0.01268   0.24999   0.73070   0.00000  Uiso   1.00
C604   C     0.32066   0.24971   0.76932   0.00000  Uiso   1.00
C605   C     0.20698   0.04743   0.77094   0.00000  Uiso   1.00
C606   C     0.20121   0.45306   0.72861   0.00000  Uiso   1.00
C607   C     0.20834   0.09334   0.77132   0.00000  Uiso   1.00
C608   C     0.20387   0.40715   0.73015   0.00000  Uiso   1.00
C609   C     0.16514   0.11699   0.74849   0.00000  Uiso   1.00
C610   C     0.16646   0.38369   0.75203   0.00000  Uiso   1.00
C611   C     0.12119   0.09433   0.72459   0.00000  Uiso   1.00
C612   C     0.13028   0.40720   0.77690   0.00000  Uiso   1.00
C613   C     0.12125   0.04776   0.72433   0.00000  Uiso   1.00
C614   C     0.13019   0.45379   0.77661   0.00000  Uiso   1.00
C615   C     0.16399   0.02470   0.74825   0.00000  Uiso   1.00
C616   C     0.16443   0.47625   0.75079   0.00000  Uiso   1.00
Cu617  Cu    0.16667   0.24999   0.79821   0.00000  Uiso   1.00
Cu618  Cu    0.16667   0.25000   0.70178   0.00000  Uiso   1.00
H619   H     0.32613   0.25014   0.69361   0.00000  Uiso   1.00
H620   H     0.00721   0.24961   0.80642   0.00000  Uiso   1.00
H621   H     0.23974   0.02908   0.78881   0.00000  Uiso   1.00
H622   H     0.22895   0.47125   0.71104   0.00000  Uiso   1.00
H623   H     0.20305   0.31175   0.62958   0.00000  Uiso   1.00
H624   H     0.23102   0.20752   0.88196   0.00000  Uiso   1.00
H625   H     0.12685   0.18983   0.61918   0.00000  Uiso   1.00
H626   H     0.09930   0.28890   0.86734   0.00000  Uiso   1.00
N627   N     0.16667   0.25001   0.62934   0.00000  Uiso   1.00
N628   N     0.16667   0.24999   0.87065   0.00000  Uiso   1.00
O629   O     0.16667   0.18572   0.79071   0.00000  Uiso   1.00
O630   O     0.16666   0.31427   0.70928   0.00000  Uiso   1.00
O631   O     0.16667   0.18573   0.70928   0.00000  Uiso   1.00
O632   O     0.16666   0.31427   0.79072   0.00000  Uiso   1.00
O633   O     0.09161   0.24999   0.78132   0.00000  Uiso   1.00
O634   O     0.24172   0.25000   0.71868   0.00000  Uiso   1.00
O635   O     0.09161   0.25000   0.69988   0.00000  Uiso   1.00
O636   O     0.24172   0.25000   0.80011   0.00000  Uiso   1.00
C637   C     0.25694   0.11567   0.79587   0.00000  Uiso   1.00
C638   C     0.26022   0.11371   0.85123   0.00000  Uiso   1.00
H639   H     0.29423   0.13265   0.86840   0.00000  Uiso   1.00
H640   H     0.22493   0.12820   0.86333   0.00000  Uiso   1.00
H641   H     0.26438   0.07903   0.86358   0.00000  Uiso   1.00
H642   H     0.29129   0.09900   0.78423   0.00000  Uiso   1.00
H643   H     0.25924   0.15063   0.78511   0.00000  Uiso   1.00
C644   C     0.25000   0.38491   0.71234   0.00000  Uiso   1.00
C645   C     0.28815   0.36902   0.75511   0.00000  Uiso   1.00
H646   H     0.27089   0.34313   0.77558   0.00000  Uiso   1.00
H647   H     0.32287   0.35505   0.74143   0.00000  Uiso   1.00
H648   H     0.29960   0.39710   0.78029   0.00000  Uiso   1.00
H649   H     0.23820   0.35710   0.68741   0.00000  Uiso   1.00
H650   H     0.27060   0.40817   0.69109   0.00000  Uiso   1.00
C651   C     0.07365   0.11922   0.70084   0.00000  Uiso   1.00
C652   C     0.06834   0.11629   0.64521   0.00000  Uiso   1.00
H653   H     0.04326   0.14350   0.62916   0.00000  Uiso   1.00
H654   H     0.10661   0.11865   0.63243   0.00000  Uiso   1.00
H655   H     0.05043   0.08466   0.63164   0.00000  Uiso   1.00
H656   H     0.03845   0.10572   0.71351   0.00000  Uiso   1.00
H657   H     0.07426   0.15451   0.71181   0.00000  Uiso   1.00
C658   C     0.09178   0.38364   0.80401   0.00000  Uiso   1.00
C659   C     0.11070   0.38227   0.85863   0.00000  Uiso   1.00
H660   H     0.08129   0.36612   0.87764   0.00000  Uiso   1.00
H661   H     0.14750   0.36362   0.86568   0.00000  Uiso   1.00
H662   H     0.11698   0.41607   0.87409   0.00000  Uiso   1.00
H663   H     0.05429   0.40117   0.79843   0.00000  Uiso   1.00
H664   H     0.08302   0.34982   0.78968   0.00000  Uiso   1.00
C665   C     0.07746   0.02334   0.69995   0.00000  Uiso   1.00
N666   N     0.04256   0.00374   0.68064   0.00000  Uiso   1.00
C667   C     0.09557   0.47888   0.80345   0.00000  Uiso   1.00
N668   N     0.06799   0.49891   0.82479   0.00000  Uiso   1.00
C669   C     0.20298   0.32841   0.53446   0.00000  Uiso   1.00
C670   C     0.25615   0.32470   0.51814   0.00000  Uiso   1.00
H671   H     0.28484   0.31255   0.54829   0.00000  Uiso   1.00
H672   H     0.25498   0.30253   0.98591   0.00000  Uiso   1.00
H673   H     0.26852   0.35774   0.50749   0.00000  Uiso   1.00
H674   H     0.17441   0.33854   0.50329   0.00000  Uiso   1.00
H675   H     0.20422   0.35586   0.56164   0.00000  Uiso   1.00
C676   C     0.23997   0.19137   0.97849   0.00000  Uiso   1.00
C677   C     0.28655   0.21407   0.50708   0.00000  Uiso   1.00
H678   H     0.30583   0.23549   0.98288   0.00000  Uiso   1.00
H679   H     0.27478   0.23368   0.53780   0.00000  Uiso   1.00
H680   H     0.31470   0.18875   0.52258   0.00000  Uiso   1.00
H681   H     0.21979   0.17185   0.50363   0.00000  Uiso   1.00
H682   H     0.25445   0.16704   0.95311   0.00000  Uiso   1.00
C683   C     0.11860   0.17845   0.52320   0.00000  Uiso   1.00
N684   N     0.09821   0.14935   0.50116   0.00000  Uiso   1.00
C685   C     0.08647   0.29475   0.96081   0.00000  Uiso   1.00
N686   N     0.05316   0.31304   0.97626   0.00000  Uiso   1.00
C687   C     0.49947   0.16512   0.74958   0.00000  Uiso   1.00
C688   C     0.49987   0.33512   0.75046   0.00000  Uiso   1.00
C689   C     0.51945   0.28611   0.55630   0.00000  Uiso   1.00
C690   C     0.53624   0.22344   0.95020   0.00000  Uiso   1.00
C691   C     0.52024   0.28457   0.60741   0.00000  Uiso   1.00
C692   C     0.53602   0.22583   0.89919   0.00000  Uiso   1.00
C693   C     0.47795   0.21599   0.60160   0.00000  Uiso   1.00
C694   C     0.46240   0.27181   0.89089   0.00000  Uiso   1.00
C695   C     0.47732   0.21480   0.55067   0.00000  Uiso   1.00
C696   C     0.46135   0.27188   0.94156   0.00000  Uiso   1.00
C697   C     0.49948   0.24956   0.52713   0.00000  Uiso   1.00
C698   C     0.49942   0.24857   0.97245   0.00000  Uiso   1.00
C699   C     0.40123   0.25009   0.73759   0.00000  Uiso   1.00
C700   C     0.59877   0.24973   0.76242   0.00000  Uiso   1.00
C701   C     0.34601   0.24999   0.73070   0.00000  Uiso   1.00
C702   C     0.65400   0.24971   0.76932   0.00000  Uiso   1.00
C703   C     0.54032   0.04743   0.77094   0.00000  Uiso   1.00
C704   C     0.53454   0.45306   0.72861   0.00000  Uiso   1.00
C705   C     0.54167   0.09334   0.77132   0.00000  Uiso   1.00
C706   C     0.53720   0.40715   0.73015   0.00000  Uiso   1.00
C707   C     0.49847   0.11699   0.74849   0.00000  Uiso   1.00
C708   C     0.49979   0.38369   0.75203   0.00000  Uiso   1.00
C709   C     0.45453   0.09433   0.72459   0.00000  Uiso   1.00
C710   C     0.46362   0.40720   0.77690   0.00000  Uiso   1.00
C711   C     0.45458   0.04776   0.72433   0.00000  Uiso   1.00
C712   C     0.46352   0.45379   0.77661   0.00000  Uiso   1.00
C713   C     0.49732   0.02470   0.74825   0.00000  Uiso   1.00
C714   C     0.49776   0.47625   0.75079   0.00000  Uiso   1.00
Cu715  Cu    0.50000   0.24999   0.79821   0.00000  Uiso   1.00
Cu716  Cu    0.50000   0.25000   0.70178   0.00000  Uiso   1.00
H717   H     0.65946   0.25014   0.69361   0.00000  Uiso   1.00
H718   H     0.34054   0.24961   0.80642   0.00000  Uiso   1.00
H719   H     0.57307   0.02908   0.78881   0.00000  Uiso   1.00
H720   H     0.56228   0.47125   0.71104   0.00000  Uiso   1.00
H721   H     0.53638   0.31175   0.62958   0.00000  Uiso   1.00
H722   H     0.56435   0.20752   0.88196   0.00000  Uiso   1.00
H723   H     0.46018   0.18983   0.61918   0.00000  Uiso   1.00
H724   H     0.43263   0.28890   0.86734   0.00000  Uiso   1.00
N725   N     0.50000   0.25001   0.62934   0.00000  Uiso   1.00
N726   N     0.50000   0.24999   0.87065   0.00000  Uiso   1.00
O727   O     0.50000   0.18572   0.79071   0.00000  Uiso   1.00
O728   O     0.50000   0.31427   0.70928   0.00000  Uiso   1.00
O729   O     0.50000   0.18573   0.70928   0.00000  Uiso   1.00
O730   O     0.50000   0.31427   0.79072   0.00000  Uiso   1.00
O731   O     0.42495   0.24999   0.78132   0.00000  Uiso   1.00
O732   O     0.57505   0.25000   0.71868   0.00000  Uiso   1.00
O733   O     0.42495   0.25000   0.69988   0.00000  Uiso   1.00
O734   O     0.57505   0.25000   0.80011   0.00000  Uiso   1.00
C735   C     0.59027   0.11567   0.79587   0.00000  Uiso   1.00
C736   C     0.59355   0.11371   0.85123   0.00000  Uiso   1.00
H737   H     0.62756   0.13265   0.86840   0.00000  Uiso   1.00
H738   H     0.55827   0.12820   0.86333   0.00000  Uiso   1.00
H739   H     0.59772   0.07903   0.86358   0.00000  Uiso   1.00
H740   H     0.62462   0.09900   0.78423   0.00000  Uiso   1.00
H741   H     0.59257   0.15063   0.78511   0.00000  Uiso   1.00
C742   C     0.58333   0.38491   0.71234   0.00000  Uiso   1.00
C743   C     0.62148   0.36902   0.75511   0.00000  Uiso   1.00
H744   H     0.60422   0.34313   0.77558   0.00000  Uiso   1.00
H745   H     0.65620   0.35505   0.74143   0.00000  Uiso   1.00
H746   H     0.63293   0.39710   0.78029   0.00000  Uiso   1.00
H747   H     0.57153   0.35710   0.68741   0.00000  Uiso   1.00
H748   H     0.60393   0.40817   0.69109   0.00000  Uiso   1.00
C749   C     0.40698   0.11922   0.70084   0.00000  Uiso   1.00
C750   C     0.40168   0.11629   0.64521   0.00000  Uiso   1.00
H751   H     0.37659   0.14350   0.62916   0.00000  Uiso   1.00
H752   H     0.43994   0.11865   0.63243   0.00000  Uiso   1.00
H753   H     0.38376   0.08466   0.63164   0.00000  Uiso   1.00
H754   H     0.37179   0.10572   0.71351   0.00000  Uiso   1.00
H755   H     0.40760   0.15451   0.71181   0.00000  Uiso   1.00
C756   C     0.42512   0.38364   0.80401   0.00000  Uiso   1.00
C757   C     0.44404   0.38227   0.85863   0.00000  Uiso   1.00
H758   H     0.41462   0.36612   0.87764   0.00000  Uiso   1.00
H759   H     0.48083   0.36362   0.86568   0.00000  Uiso   1.00
H760   H     0.45032   0.41607   0.87409   0.00000  Uiso   1.00
H761   H     0.38762   0.40117   0.79843   0.00000  Uiso   1.00
H762   H     0.41635   0.34982   0.78968   0.00000  Uiso   1.00
C763   C     0.41079   0.02334   0.69995   0.00000  Uiso   1.00
N764   N     0.37590   0.00374   0.68064   0.00000  Uiso   1.00
C765   C     0.42891   0.47888   0.80345   0.00000  Uiso   1.00
N766   N     0.40132   0.49891   0.82479   0.00000  Uiso   1.00
C767   C     0.53631   0.32841   0.53446   0.00000  Uiso   1.00
C768   C     0.58948   0.32470   0.51814   0.00000  Uiso   1.00
H769   H     0.61817   0.31255   0.54829   0.00000  Uiso   1.00
H770   H     0.58831   0.30253   0.98591   0.00000  Uiso   1.00
H771   H     0.60185   0.35774   0.50749   0.00000  Uiso   1.00
H772   H     0.50774   0.33854   0.50329   0.00000  Uiso   1.00
H773   H     0.53755   0.35586   0.56164   0.00000  Uiso   1.00
C774   C     0.57330   0.19137   0.97849   0.00000  Uiso   1.00
C775   C     0.61988   0.21407   0.50708   0.00000  Uiso   1.00
H776   H     0.63916   0.23549   0.98288   0.00000  Uiso   1.00
H777   H     0.60812   0.23368   0.53780   0.00000  Uiso   1.00
H778   H     0.64803   0.18875   0.52258   0.00000  Uiso   1.00
H779   H     0.55313   0.17185   0.50363   0.00000  Uiso   1.00
H780   H     0.58779   0.16704   0.95311   0.00000  Uiso   1.00
C781   C     0.45194   0.17845   0.52320   0.00000  Uiso   1.00
N782   N     0.43155   0.14935   0.50116   0.00000  Uiso   1.00
C783   C     0.41980   0.29475   0.96081   0.00000  Uiso   1.00
N784   N     0.38649   0.31304   0.97626   0.00000  Uiso   1.00
C785   C     0.83280   0.16512   0.74958   0.00000  Uiso   1.00
C786   C     0.83321   0.33512   0.75046   0.00000  Uiso   1.00
C787   C     0.85278   0.28611   0.55630   0.00000  Uiso   1.00
C788   C     0.86957   0.22344   0.95020   0.00000  Uiso   1.00
C789   C     0.85357   0.28457   0.60741   0.00000  Uiso   1.00
C790   C     0.86936   0.22583   0.89919   0.00000  Uiso   1.00
C791   C     0.81129   0.21599   0.60160   0.00000  Uiso   1.00
C792   C     0.79573   0.27181   0.89089   0.00000  Uiso   1.00
C793   C     0.81066   0.21480   0.55067   0.00000  Uiso   1.00
C794   C     0.79469   0.27188   0.94156   0.00000  Uiso   1.00
C795   C     0.83281   0.24956   0.52713   0.00000  Uiso   1.00
C796   C     0.83276   0.24857   0.97245   0.00000  Uiso   1.00
C797   C     0.73457   0.25009   0.73759   0.00000  Uiso   1.00
C798   C     0.93210   0.24973   0.76242   0.00000  Uiso   1.00
C799   C     0.67934   0.24999   0.73070   0.00000  Uiso   1.00
C800   C     0.98733   0.24971   0.76932   0.00000  Uiso   1.00
C801   C     0.87365   0.04743   0.77094   0.00000  Uiso   1.00
C802   C     0.86788   0.45306   0.72861   0.00000  Uiso   1.00
C803   C     0.87501   0.09334   0.77132   0.00000  Uiso   1.00
C804   C     0.87054   0.40715   0.73015   0.00000  Uiso   1.00
C805   C     0.83181   0.11699   0.74849   0.00000  Uiso   1.00
C806   C     0.83313   0.38369   0.75203   0.00000  Uiso   1.00
C807   C     0.78786   0.09433   0.72459   0.00000  Uiso   1.00
C808   C     0.79695   0.40720   0.77690   0.00000  Uiso   1.00
C809   C     0.78791   0.04776   0.72433   0.00000  Uiso   1.00
C810   C     0.79685   0.45379   0.77661   0.00000  Uiso   1.00
C811   C     0.83066   0.02470   0.74825   0.00000  Uiso   1.00
C812   C     0.83110   0.47625   0.75079   0.00000  Uiso   1.00
Cu813  Cu    0.83333   0.24999   0.79821   0.00000  Uiso   1.00
Cu814  Cu    0.83333   0.25000   0.70178   0.00000  Uiso   1.00
H815   H     0.99279   0.25014   0.69361   0.00000  Uiso   1.00
H816   H     0.67387   0.24961   0.80642   0.00000  Uiso   1.00
H817   H     0.90640   0.02908   0.78881   0.00000  Uiso   1.00
H818   H     0.89562   0.47125   0.71104   0.00000  Uiso   1.00
H819   H     0.86971   0.31175   0.62958   0.00000  Uiso   1.00
H820   H     0.89769   0.20752   0.88196   0.00000  Uiso   1.00
H821   H     0.79351   0.18983   0.61918   0.00000  Uiso   1.00
H822   H     0.76596   0.28890   0.86734   0.00000  Uiso   1.00
N823   N     0.83333   0.25001   0.62934   0.00000  Uiso   1.00
N824   N     0.83333   0.24999   0.87065   0.00000  Uiso   1.00
O825   O     0.83334   0.18572   0.79071   0.00000  Uiso   1.00
O826   O     0.83333   0.31427   0.70928   0.00000  Uiso   1.00
O827   O     0.83334   0.18573   0.70928   0.00000  Uiso   1.00
O828   O     0.83333   0.31427   0.79072   0.00000  Uiso   1.00
O829   O     0.75828   0.24999   0.78132   0.00000  Uiso   1.00
O830   O     0.90839   0.25000   0.71868   0.00000  Uiso   1.00
O831   O     0.75828   0.25000   0.69988   0.00000  Uiso   1.00
O832   O     0.90839   0.25000   0.80011   0.00000  Uiso   1.00
C833   C     0.92360   0.11567   0.79587   0.00000  Uiso   1.00
C834   C     0.92688   0.11371   0.85123   0.00000  Uiso   1.00
H835   H     0.96090   0.13265   0.86840   0.00000  Uiso   1.00
H836   H     0.89160   0.12820   0.86333   0.00000  Uiso   1.00
H837   H     0.93105   0.07903   0.86358   0.00000  Uiso   1.00
H838   H     0.95796   0.09900   0.78423   0.00000  Uiso   1.00
H839   H     0.92591   0.15063   0.78511   0.00000  Uiso   1.00
C840   C     0.91667   0.38491   0.71234   0.00000  Uiso   1.00
C841   C     0.95482   0.36902   0.75511   0.00000  Uiso   1.00
H842   H     0.93756   0.34313   0.77558   0.00000  Uiso   1.00
H843   H     0.98954   0.35505   0.74143   0.00000  Uiso   1.00
H844   H     0.96627   0.39710   0.78029   0.00000  Uiso   1.00
H845   H     0.90487   0.35710   0.68741   0.00000  Uiso   1.00
H846   H     0.93726   0.40817   0.69109   0.00000  Uiso   1.00
C847   C     0.74032   0.11922   0.70084   0.00000  Uiso   1.00
C848   C     0.73501   0.11629   0.64521   0.00000  Uiso   1.00
H849   H     0.70992   0.14350   0.62916   0.00000  Uiso   1.00
H850   H     0.77328   0.11865   0.63243   0.00000  Uiso   1.00
H851   H     0.71710   0.08466   0.63164   0.00000  Uiso   1.00
H852   H     0.70512   0.10572   0.71351   0.00000  Uiso   1.00
H853   H     0.74093   0.15451   0.71181   0.00000  Uiso   1.00
C854   C     0.75845   0.38364   0.80401   0.00000  Uiso   1.00
C855   C     0.77737   0.38227   0.85863   0.00000  Uiso   1.00
H856   H     0.74795   0.36612   0.87764   0.00000  Uiso   1.00
H857   H     0.81417   0.36362   0.86568   0.00000  Uiso   1.00
H858   H     0.78365   0.41607   0.87409   0.00000  Uiso   1.00
H859   H     0.72095   0.40117   0.79843   0.00000  Uiso   1.00
H860   H     0.74969   0.34982   0.78968   0.00000  Uiso   1.00
C861   C     0.74413   0.02334   0.69995   0.00000  Uiso   1.00
N862   N     0.70923   0.00374   0.68064   0.00000  Uiso   1.00
C863   C     0.76224   0.47888   0.80345   0.00000  Uiso   1.00
N864   N     0.73465   0.49891   0.82479   0.00000  Uiso   1.00
C865   C     0.86964   0.32841   0.53446   0.00000  Uiso   1.00
C866   C     0.92281   0.32470   0.51814   0.00000  Uiso   1.00
H867   H     0.95151   0.31255   0.54829   0.00000  Uiso   1.00
H868   H     0.92165   0.30253   0.98591   0.00000  Uiso   1.00
H869   H     0.93518   0.35774   0.50749   0.00000  Uiso   1.00
H870   H     0.84108   0.33854   0.50329   0.00000  Uiso   1.00
H871   H     0.87088   0.35586   0.56164   0.00000  Uiso   1.00
C872   C     0.90664   0.19137   0.97849   0.00000  Uiso   1.00
C873   C     0.95322   0.21407   0.50708   0.00000  Uiso   1.00
H874   H     0.97249   0.23549   0.98288   0.00000  Uiso   1.00
H875   H     0.94145   0.23368   0.53780   0.00000  Uiso   1.00
H876   H     0.98137   0.18875   0.52258   0.00000  Uiso   1.00
H877   H     0.88646   0.17185   0.50363   0.00000  Uiso   1.00
H878   H     0.92112   0.16704   0.95311   0.00000  Uiso   1.00
C879   C     0.78527   0.17845   0.52320   0.00000  Uiso   1.00
N880   N     0.76488   0.14935   0.50116   0.00000  Uiso   1.00
C881   C     0.75314   0.29475   0.96081   0.00000  Uiso   1.00
N882   N     0.71983   0.31304   0.97626   0.00000  Uiso   1.00
C883   C     0.16614   0.66512   0.74958   0.00000  Uiso   1.00
C884   C     0.16654   0.83512   0.75046   0.00000  Uiso   1.00
C885   C     0.18612   0.78611   0.55630   0.00000  Uiso   1.00
C886   C     0.20290   0.72344   0.95020   0.00000  Uiso   1.00
C887   C     0.18691   0.78457   0.60741   0.00000  Uiso   1.00
C888   C     0.20269   0.72583   0.89919   0.00000  Uiso   1.00
C889   C     0.14462   0.71599   0.60160   0.00000  Uiso   1.00
C890   C     0.12906   0.77181   0.89089   0.00000  Uiso   1.00
C891   C     0.14399   0.71480   0.55067   0.00000  Uiso   1.00
C892   C     0.12802   0.77188   0.94156   0.00000  Uiso   1.00
C893   C     0.16614   0.74956   0.52713   0.00000  Uiso   1.00
C894   C     0.16609   0.74857   0.97245   0.00000  Uiso   1.00
C895   C     0.06790   0.75009   0.73759   0.00000  Uiso   1.00
C896   C     0.26543   0.74973   0.76242   0.00000  Uiso   1.00
C897   C     0.01268   0.74999   0.73070   0.00000  Uiso   1.00
C898   C     0.32066   0.74971   0.76932   0.00000  Uiso   1.00
C899   C     0.20698   0.54743   0.77094   0.00000  Uiso   1.00
C900   C     0.20121   0.95306   0.72861   0.00000  Uiso   1.00
C901   C     0.20834   0.59334   0.77132   0.00000  Uiso   1.00
C902   C     0.20387   0.90715   0.73015   0.00000  Uiso   1.00
C903   C     0.16514   0.61699   0.74849   0.00000  Uiso   1.00
C904   C     0.16646   0.88369   0.75203   0.00000  Uiso   1.00
C905   C     0.12119   0.59433   0.72459   0.00000  Uiso   1.00
C906   C     0.13028   0.90720   0.77690   0.00000  Uiso   1.00
C907   C     0.12125   0.54776   0.72433   0.00000  Uiso   1.00
C908   C     0.13019   0.95379   0.77661   0.00000  Uiso   1.00
C909   C     0.16399   0.52470   0.74825   0.00000  Uiso   1.00
C910   C     0.16443   0.97625   0.75079   0.00000  Uiso   1.00
Cu911  Cu    0.16667   0.74999   0.79821   0.00000  Uiso   1.00
Cu912  Cu    0.16667   0.75000   0.70178   0.00000  Uiso   1.00
H913   H     0.32613   0.75014   0.69361   0.00000  Uiso   1.00
H914   H     0.00721   0.74961   0.80642   0.00000  Uiso   1.00
H915   H     0.23974   0.52908   0.78881   0.00000  Uiso   1.00
H916   H     0.22895   0.97125   0.71104   0.00000  Uiso   1.00
H917   H     0.20305   0.81175   0.62958   0.00000  Uiso   1.00
H918   H     0.23102   0.70752   0.88196   0.00000  Uiso   1.00
H919   H     0.12685   0.68983   0.61918   0.00000  Uiso   1.00
H920   H     0.09930   0.78890   0.86734   0.00000  Uiso   1.00
N921   N     0.16667   0.75001   0.62934   0.00000  Uiso   1.00
N922   N     0.16667   0.74999   0.87065   0.00000  Uiso   1.00
O923   O     0.16667   0.68572   0.79071   0.00000  Uiso   1.00
O924   O     0.16666   0.81427   0.70928   0.00000  Uiso   1.00
O925   O     0.16667   0.68573   0.70928   0.00000  Uiso   1.00
O926   O     0.16666   0.81427   0.79072   0.00000  Uiso   1.00
O927   O     0.09161   0.74999   0.78132   0.00000  Uiso   1.00
O928   O     0.24172   0.75000   0.71868   0.00000  Uiso   1.00
O929   O     0.09161   0.75000   0.69988   0.00000  Uiso   1.00
O930   O     0.24172   0.75000   0.80011   0.00000  Uiso   1.00
C931   C     0.25694   0.61567   0.79587   0.00000  Uiso   1.00
C932   C     0.26022   0.61371   0.85123   0.00000  Uiso   1.00
H933   H     0.29423   0.63265   0.86840   0.00000  Uiso   1.00
H934   H     0.22493   0.62820   0.86333   0.00000  Uiso   1.00
H935   H     0.26438   0.57903   0.86358   0.00000  Uiso   1.00
H936   H     0.29129   0.59900   0.78423   0.00000  Uiso   1.00
H937   H     0.25924   0.65063   0.78511   0.00000  Uiso   1.00
C938   C     0.25000   0.88491   0.71234   0.00000  Uiso   1.00
C939   C     0.28815   0.86902   0.75511   0.00000  Uiso   1.00
H940   H     0.27089   0.84313   0.77558   0.00000  Uiso   1.00
H941   H     0.32287   0.85505   0.74143   0.00000  Uiso   1.00
H942   H     0.29960   0.89710   0.78029   0.00000  Uiso   1.00
H943   H     0.23820   0.85710   0.68741   0.00000  Uiso   1.00
H944   H     0.27060   0.90817   0.69109   0.00000  Uiso   1.00
C945   C     0.07365   0.61922   0.70084   0.00000  Uiso   1.00
C946   C     0.06834   0.61629   0.64521   0.00000  Uiso   1.00
H947   H     0.04326   0.64350   0.62916   0.00000  Uiso   1.00
H948   H     0.10661   0.61865   0.63243   0.00000  Uiso   1.00
H949   H     0.05043   0.58466   0.63164   0.00000  Uiso   1.00
H950   H     0.03845   0.60572   0.71351   0.00000  Uiso   1.00
H951   H     0.07426   0.65451   0.71181   0.00000  Uiso   1.00
C952   C     0.09178   0.88364   0.80401   0.00000  Uiso   1.00
C953   C     0.11070   0.88227   0.85863   0.00000  Uiso   1.00
H954   H     0.08129   0.86612   0.87764   0.00000  Uiso   1.00
H955   H     0.14750   0.86362   0.86568   0.00000  Uiso   1.00
H956   H     0.11698   0.91607   0.87409   0.00000  Uiso   1.00
H957   H     0.05429   0.90117   0.79843   0.00000  Uiso   1.00
H958   H     0.08302   0.84982   0.78968   0.00000  Uiso   1.00
C959   C     0.07746   0.52334   0.69995   0.00000  Uiso   1.00
N960   N     0.04256   0.50374   0.68064   0.00000  Uiso   1.00
C961   C     0.09557   0.97888   0.80345   0.00000  Uiso   1.00
N962   N     0.06799   0.99891   0.82479   0.00000  Uiso   1.00
C963   C     0.20298   0.82841   0.53446   0.00000  Uiso   1.00
C964   C     0.25615   0.82470   0.51814   0.00000  Uiso   1.00
H965   H     0.28484   0.81255   0.54829   0.00000  Uiso   1.00
H966   H     0.25498   0.80253   0.98591   0.00000  Uiso   1.00
H967   H     0.26852   0.85774   0.50749   0.00000  Uiso   1.00
H968   H     0.17441   0.83854   0.50329   0.00000  Uiso   1.00
H969   H     0.20422   0.85586   0.56164   0.00000  Uiso   1.00
C970   C     0.23997   0.69137   0.97849   0.00000  Uiso   1.00
C971   C     0.28655   0.71407   0.50708   0.00000  Uiso   1.00
H972   H     0.30583   0.73549   0.98288   0.00000  Uiso   1.00
H973   H     0.27478   0.73368   0.53780   0.00000  Uiso   1.00
H974   H     0.31470   0.68875   0.52258   0.00000  Uiso   1.00
H975   H     0.21979   0.67185   0.50363   0.00000  Uiso   1.00
H976   H     0.25445   0.66704   0.95311   0.00000  Uiso   1.00
C977   C     0.11860   0.67845   0.52320   0.00000  Uiso   1.00
N978   N     0.09821   0.64935   0.50116   0.00000  Uiso   1.00
C979   C     0.08647   0.79475   0.96081   0.00000  Uiso   1.00
N980   N     0.05316   0.81304   0.97626   0.00000  Uiso   1.00
C981   C     0.49947   0.66512   0.74958   0.00000  Uiso   1.00
C982   C     0.49987   0.83512   0.75046   0.00000  Uiso   1.00
C983   C     0.51945   0.78611   0.55630   0.00000  Uiso   1.00
C984   C     0.53624   0.72344   0.95020   0.00000  Uiso   1.00
C985   C     0.52024   0.78457   0.60741   0.00000  Uiso   1.00
C986   C     0.53602   0.72583   0.89919   0.00000  Uiso   1.00
C987   C     0.47795   0.71599   0.60160   0.00000  Uiso   1.00
C988   C     0.46240   0.77181   0.89089   0.00000  Uiso   1.00
C989   C     0.47732   0.71480   0.55067   0.00000  Uiso   1.00
C990   C     0.46135   0.77188   0.94156   0.00000  Uiso   1.00
C991   C     0.49948   0.74956   0.52713   0.00000  Uiso   1.00
C992   C     0.49942   0.74857   0.97245   0.00000  Uiso   1.00
C993   C     0.40123   0.75009   0.73759   0.00000  Uiso   1.00
C994   C     0.59877   0.74973   0.76242   0.00000  Uiso   1.00
C995   C     0.34601   0.74999   0.73070   0.00000  Uiso   1.00
C996   C     0.65400   0.74971   0.76932   0.00000  Uiso   1.00
C997   C     0.54032   0.54743   0.77094   0.00000  Uiso   1.00
C998   C     0.53454   0.95306   0.72861   0.00000  Uiso   1.00
C999   C     0.54167   0.59334   0.77132   0.00000  Uiso   1.00
C1000  C     0.53720   0.90715   0.73015   0.00000  Uiso   1.00
C1001  C     0.49847   0.61699   0.74849   0.00000  Uiso   1.00
C1002  C     0.49979   0.88369   0.75203   0.00000  Uiso   1.00
C1003  C     0.45453   0.59433   0.72459   0.00000  Uiso   1.00
C1004  C     0.46362   0.90720   0.77690   0.00000  Uiso   1.00
C1005  C     0.45458   0.54776   0.72433   0.00000  Uiso   1.00
C1006  C     0.46352   0.95379   0.77661   0.00000  Uiso   1.00
C1007  C     0.49732   0.52470   0.74825   0.00000  Uiso   1.00
C1008  C     0.49776   0.97625   0.75079   0.00000  Uiso   1.00
Cu1009 Cu    0.50000   0.74999   0.79821   0.00000  Uiso   1.00
Cu1010 Cu    0.50000   0.75000   0.70178   0.00000  Uiso   1.00
H1011  H     0.65946   0.75014   0.69361   0.00000  Uiso   1.00
H1012  H     0.34054   0.74961   0.80642   0.00000  Uiso   1.00
H1013  H     0.57307   0.52908   0.78881   0.00000  Uiso   1.00
H1014  H     0.56228   0.97125   0.71104   0.00000  Uiso   1.00
H1015  H     0.53638   0.81175   0.62958   0.00000  Uiso   1.00
H1016  H     0.56435   0.70752   0.88196   0.00000  Uiso   1.00
H1017  H     0.46018   0.68983   0.61918   0.00000  Uiso   1.00
H1018  H     0.43263   0.78890   0.86734   0.00000  Uiso   1.00
N1019  N     0.50000   0.75001   0.62934   0.00000  Uiso   1.00
N1020  N     0.50000   0.74999   0.87065   0.00000  Uiso   1.00
O1021  O     0.50000   0.68572   0.79071   0.00000  Uiso   1.00
O1022  O     0.50000   0.81427   0.70928   0.00000  Uiso   1.00
O1023  O     0.50000   0.68573   0.70928   0.00000  Uiso   1.00
O1024  O     0.50000   0.81427   0.79072   0.00000  Uiso   1.00
O1025  O     0.42495   0.74999   0.78132   0.00000  Uiso   1.00
O1026  O     0.57505   0.75000   0.71868   0.00000  Uiso   1.00
O1027  O     0.42495   0.75000   0.69988   0.00000  Uiso   1.00
O1028  O     0.57505   0.75000   0.80011   0.00000  Uiso   1.00
C1029  C     0.59027   0.61567   0.79587   0.00000  Uiso   1.00
C1030  C     0.59355   0.61371   0.85123   0.00000  Uiso   1.00
H1031  H     0.62756   0.63265   0.86840   0.00000  Uiso   1.00
H1032  H     0.55827   0.62820   0.86333   0.00000  Uiso   1.00
H1033  H     0.59772   0.57903   0.86358   0.00000  Uiso   1.00
H1034  H     0.62462   0.59900   0.78423   0.00000  Uiso   1.00
H1035  H     0.59257   0.65063   0.78511   0.00000  Uiso   1.00
C1036  C     0.58333   0.88491   0.71234   0.00000  Uiso   1.00
C1037  C     0.62148   0.86902   0.75511   0.00000  Uiso   1.00
H1038  H     0.60422   0.84313   0.77558   0.00000  Uiso   1.00
H1039  H     0.65620   0.85505   0.74143   0.00000  Uiso   1.00
H1040  H     0.63293   0.89710   0.78029   0.00000  Uiso   1.00
H1041  H     0.57153   0.85710   0.68741   0.00000  Uiso   1.00
H1042  H     0.60393   0.90817   0.69109   0.00000  Uiso   1.00
C1043  C     0.40698   0.61922   0.70084   0.00000  Uiso   1.00
C1044  C     0.40168   0.61629   0.64521   0.00000  Uiso   1.00
H1045  H     0.37659   0.64350   0.62916   0.00000  Uiso   1.00
H1046  H     0.43994   0.61865   0.63243   0.00000  Uiso   1.00
H1047  H     0.38376   0.58466   0.63164   0.00000  Uiso   1.00
H1048  H     0.37179   0.60572   0.71351   0.00000  Uiso   1.00
H1049  H     0.40760   0.65451   0.71181   0.00000  Uiso   1.00
C1050  C     0.42512   0.88364   0.80401   0.00000  Uiso   1.00
C1051  C     0.44404   0.88227   0.85863   0.00000  Uiso   1.00
H1052  H     0.41462   0.86612   0.87764   0.00000  Uiso   1.00
H1053  H     0.48083   0.86362   0.86568   0.00000  Uiso   1.00
H1054  H     0.45032   0.91607   0.87409   0.00000  Uiso   1.00
H1055  H     0.38762   0.90117   0.79843   0.00000  Uiso   1.00
H1056  H     0.41635   0.84982   0.78968   0.00000  Uiso   1.00
C1057  C     0.41079   0.52334   0.69995   0.00000  Uiso   1.00
N1058  N     0.37590   0.50374   0.68064   0.00000  Uiso   1.00
C1059  C     0.42891   0.97888   0.80345   0.00000  Uiso   1.00
N1060  N     0.40132   0.99891   0.82479   0.00000  Uiso   1.00
C1061  C     0.53631   0.82841   0.53446   0.00000  Uiso   1.00
C1062  C     0.58948   0.82470   0.51814   0.00000  Uiso   1.00
H1063  H     0.61817   0.81255   0.54829   0.00000  Uiso   1.00
H1064  H     0.58831   0.80253   0.98591   0.00000  Uiso   1.00
H1065  H     0.60185   0.85774   0.50749   0.00000  Uiso   1.00
H1066  H     0.50774   0.83854   0.50329   0.00000  Uiso   1.00
H1067  H     0.53755   0.85586   0.56164   0.00000  Uiso   1.00
C1068  C     0.57330   0.69137   0.97849   0.00000  Uiso   1.00
C1069  C     0.61988   0.71407   0.50708   0.00000  Uiso   1.00
H1070  H     0.63916   0.73549   0.98288   0.00000  Uiso   1.00
H1071  H     0.60812   0.73368   0.53780   0.00000  Uiso   1.00
H1072  H     0.64803   0.68875   0.52258   0.00000  Uiso   1.00
H1073  H     0.55313   0.67185   0.50363   0.00000  Uiso   1.00
H1074  H     0.58779   0.66704   0.95311   0.00000  Uiso   1.00
C1075  C     0.45194   0.67845   0.52320   0.00000  Uiso   1.00
N1076  N     0.43155   0.64935   0.50116   0.00000  Uiso   1.00
C1077  C     0.41980   0.79475   0.96081   0.00000  Uiso   1.00
N1078  N     0.38649   0.81304   0.97626   0.00000  Uiso   1.00
C1079  C     0.83280   0.66512   0.74958   0.00000  Uiso   1.00
C1080  C     0.83321   0.83512   0.75046   0.00000  Uiso   1.00
C1081  C     0.85278   0.78611   0.55630   0.00000  Uiso   1.00
C1082  C     0.86957   0.72344   0.95020   0.00000  Uiso   1.00
C1083  C     0.85357   0.78457   0.60741   0.00000  Uiso   1.00
C1084  C     0.86936   0.72583   0.89919   0.00000  Uiso   1.00
C1085  C     0.81129   0.71599   0.60160   0.00000  Uiso   1.00
C1086  C     0.79573   0.77181   0.89089   0.00000  Uiso   1.00
C1087  C     0.81066   0.71480   0.55067   0.00000  Uiso   1.00
C1088  C     0.79469   0.77188   0.94156   0.00000  Uiso   1.00
C1089  C     0.83281   0.74956   0.52713   0.00000  Uiso   1.00
C1090  C     0.83276   0.74857   0.97245   0.00000  Uiso   1.00
C1091  C     0.73457   0.75009   0.73759   0.00000  Uiso   1.00
C1092  C     0.93210   0.74973   0.76242   0.00000  Uiso   1.00
C1093  C     0.67934   0.74999   0.73070   0.00000  Uiso   1.00
C1094  C     0.98733   0.74971   0.76932   0.00000  Uiso   1.00
C1095  C     0.87365   0.54743   0.77094   0.00000  Uiso   1.00
C1096  C     0.86788   0.95306   0.72861   0.00000  Uiso   1.00
C1097  C     0.87501   0.59334   0.77132   0.00000  Uiso   1.00
C1098  C     0.87054   0.90715   0.73015   0.00000  Uiso   1.00
C1099  C     0.83181   0.61699   0.74849   0.00000  Uiso   1.00
C1100  C     0.83313   0.88369   0.75203   0.00000  Uiso   1.00
C1101  C     0.78786   0.59433   0.72459   0.00000  Uiso   1.00
C1102  C     0.79695   0.90720   0.77690   0.00000  Uiso   1.00
C1103  C     0.78791   0.54776   0.72433   0.00000  Uiso   1.00
C1104  C     0.79685   0.95379   0.77661   0.00000  Uiso   1.00
C1105  C     0.83066   0.52470   0.74825   0.00000  Uiso   1.00
C1106  C     0.83110   0.97625   0.75079   0.00000  Uiso   1.00
Cu1107 Cu    0.83333   0.74999   0.79821   0.00000  Uiso   1.00
Cu1108 Cu    0.83333   0.75000   0.70178   0.00000  Uiso   1.00
H1109  H     0.99279   0.75014   0.69361   0.00000  Uiso   1.00
H1110  H     0.67387   0.74961   0.80642   0.00000  Uiso   1.00
H1111  H     0.90640   0.52908   0.78881   0.00000  Uiso   1.00
H1112  H     0.89562   0.97125   0.71104   0.00000  Uiso   1.00
H1113  H     0.86971   0.81175   0.62958   0.00000  Uiso   1.00
H1114  H     0.89769   0.70752   0.88196   0.00000  Uiso   1.00
H1115  H     0.79351   0.68983   0.61918   0.00000  Uiso   1.00
H1116  H     0.76596   0.78890   0.86734   0.00000  Uiso   1.00
N1117  N     0.83333   0.75001   0.62934   0.00000  Uiso   1.00
N1118  N     0.83333   0.74999   0.87065   0.00000  Uiso   1.00
O1119  O     0.83334   0.68572   0.79071   0.00000  Uiso   1.00
O1120  O     0.83333   0.81427   0.70928   0.00000  Uiso   1.00
O1121  O     0.83334   0.68573   0.70928   0.00000  Uiso   1.00
O1122  O     0.83333   0.81427   0.79072   0.00000  Uiso   1.00
O1123  O     0.75828   0.74999   0.78132   0.00000  Uiso   1.00
O1124  O     0.90839   0.75000   0.71868   0.00000  Uiso   1.00
O1125  O     0.75828   0.75000   0.69988   0.00000  Uiso   1.00
O1126  O     0.90839   0.75000   0.80011   0.00000  Uiso   1.00
C1127  C     0.92360   0.61567   0.79587   0.00000  Uiso   1.00
C1128  C     0.92688   0.61371   0.85123   0.00000  Uiso   1.00
H1129  H     0.96090   0.63265   0.86840   0.00000  Uiso   1.00
H1130  H     0.89160   0.62820   0.86333   0.00000  Uiso   1.00
H1131  H     0.93105   0.57903   0.86358   0.00000  Uiso   1.00
H1132  H     0.95796   0.59900   0.78423   0.00000  Uiso   1.00
H1133  H     0.92591   0.65063   0.78511   0.00000  Uiso   1.00
C1134  C     0.91667   0.88491   0.71234   0.00000  Uiso   1.00
C1135  C     0.95482   0.86902   0.75511   0.00000  Uiso   1.00
H1136  H     0.93756   0.84313   0.77558   0.00000  Uiso   1.00
H1137  H     0.98954   0.85505   0.74143   0.00000  Uiso   1.00
H1138  H     0.96627   0.89710   0.78029   0.00000  Uiso   1.00
H1139  H     0.90487   0.85710   0.68741   0.00000  Uiso   1.00
H1140  H     0.93726   0.90817   0.69109   0.00000  Uiso   1.00
C1141  C     0.74032   0.61922   0.70084   0.00000  Uiso   1.00
C1142  C     0.73501   0.61629   0.64521   0.00000  Uiso   1.00
H1143  H     0.70992   0.64350   0.62916   0.00000  Uiso   1.00
H1144  H     0.77328   0.61865   0.63243   0.00000  Uiso   1.00
H1145  H     0.71710   0.58466   0.63164   0.00000  Uiso   1.00
H1146  H     0.70512   0.60572   0.71351   0.00000  Uiso   1.00
H1147  H     0.74093   0.65451   0.71181   0.00000  Uiso   1.00
C1148  C     0.75845   0.88364   0.80401   0.00000  Uiso   1.00
C1149  C     0.77737   0.88227   0.85863   0.00000  Uiso   1.00
H1150  H     0.74795   0.86612   0.87764   0.00000  Uiso   1.00
H1151  H     0.81417   0.86362   0.86568   0.00000  Uiso   1.00
H1152  H     0.78365   0.91607   0.87409   0.00000  Uiso   1.00
H1153  H     0.72095   0.90117   0.79843   0.00000  Uiso   1.00
H1154  H     0.74969   0.84982   0.78968   0.00000  Uiso   1.00
C1155  C     0.74413   0.52334   0.69995   0.00000  Uiso   1.00
N1156  N     0.70923   0.50374   0.68064   0.00000  Uiso   1.00
C1157  C     0.76224   0.97888   0.80345   0.00000  Uiso   1.00
N1158  N     0.73465   0.99891   0.82479   0.00000  Uiso   1.00
C1159  C     0.86964   0.82841   0.53446   0.00000  Uiso   1.00
C1160  C     0.92281   0.82470   0.51814   0.00000  Uiso   1.00
H1161  H     0.95151   0.81255   0.54829   0.00000  Uiso   1.00
H1162  H     0.92165   0.80253   0.98591   0.00000  Uiso   1.00
H1163  H     0.93518   0.85774   0.50749   0.00000  Uiso   1.00
H1164  H     0.84108   0.83854   0.50329   0.00000  Uiso   1.00
H1165  H     0.87088   0.85586   0.56164   0.00000  Uiso   1.00
C1166  C     0.90664   0.69137   0.97849   0.00000  Uiso   1.00
C1167  C     0.95322   0.71407   0.50708   0.00000  Uiso   1.00
H1168  H     0.97249   0.73549   0.98288   0.00000  Uiso   1.00
H1169  H     0.94145   0.73368   0.53780   0.00000  Uiso   1.00
H1170  H     0.98137   0.68875   0.52258   0.00000  Uiso   1.00
H1171  H     0.88646   0.67185   0.50363   0.00000  Uiso   1.00
H1172  H     0.92112   0.66704   0.95311   0.00000  Uiso   1.00
C1173  C     0.78527   0.67845   0.52320   0.00000  Uiso   1.00
N1174  N     0.76488   0.64935   0.50116   0.00000  Uiso   1.00
C1175  C     0.75314   0.79475   0.96081   0.00000  Uiso   1.00
N1176  N     0.71983   0.81304   0.97626   0.00000  Uiso   1.00
loop_
_geom_bond_atom_site_label_1
_geom_bond_atom_site_label_2
_geom_bond_distance
_geom_bond_site_symmetry_2
_ccdc_geom_bond_type
C1     C21     1.459   .     S
C1     O43     1.289   .     A
C1     O41     1.290   .     A
C2     O44     1.289   .     A
C2     C22     1.472   .     S
C2     O42     1.297   .     A
C3     C81     1.519   .     S
C3     C5      1.415   .     A
C3     C11     1.422   .     A
C4     C12     1.424   .     A
C4     C6      1.415   .     A
C4     C88     1.518   .     S
C5     N39     1.364   .     A
C5     H35     1.075   .     S
C6     N40     1.363   .     A
C6     H36     1.081   .     S
C7     H37     1.077   .     S
C7     C9      1.409   .     A
C7     N39     1.361   .     A
C8     H38     1.081   .     S
C8     C10     1.408   .     A
C8     N40     1.361   .     A
C9     C95     1.444   .     S
C9     C11     1.415   .     A
C10    C97     1.444   .     S
C10    C12     1.415   .     A
C11    C600    1.514   1_554 S
C12    C599    1.514   .     S
C13    C15     1.432   .     S
C13    O47     1.285   .     A
C13    O45     1.285   .     A
C14    O46     1.285   .     A
C14    O48     1.285   .     A
C14    C16     1.433   .     S
C15    C212    1.333   1_455 S
C15    H227    1.087   1_455 S
C16    C113    1.333   .     S
C16    H130    1.087   .     S
C17    H33     1.085   .     S
C17    C27     1.394   .     A
C17    C19     1.392   .     A
C18    C28     1.392   .     A
C18    H34     1.085   .     S
C18    C20     1.394   .     A
C19    C21     1.415   .     A
C19    C49     1.518   .     S
C20    C56     1.516   .     S
C20    C22     1.419   .     A
C21    C23     1.423   .     A
C22    C24     1.426   .     A
C23    C63     1.527   .     S
C23    C25     1.412   .     A
C24    C70     1.523   .     S
C24    C26     1.412   .     A
C25    C77     1.451   .     S
C25    C27     1.408   .     A
C26    C28     1.405   .     A
C26    C79     1.453   .     S
C27    C322    1.471   1_545 S
C28    C321    1.471   .     S
Cu29   O48     1.958   .     S
Cu29   O45     1.957   .     S
Cu29   Cu30    2.672   .     S
Cu29   O44     1.962   .     S
Cu29   O41     1.957   .     S
Cu29   N40     2.007   .     S
Cu30   O47     1.958   .     S
Cu30   O43     1.962   .     S
Cu30   O46     1.957   .     S
Cu30   N39     2.007   .     S
Cu30   O42     1.957   .     S
H31    C113    1.087   .     S
H32    C212    1.087   1_455 S
C49    H54     1.112   .     S
C49    H55     1.109   .     S
C49    C50     1.526   .     S
C50    H52     1.110   .     S
C50    H53     1.111   .     S
C50    H51     1.110   .     S
C56    C57     1.524   .     S
C56    H62     1.112   .     S
C56    H61     1.101   .     S
C57    H59     1.110   .     S
C57    H60     1.110   .     S
C57    H58     1.108   .     S
C63    H68     1.112   .     S
C63    H69     1.108   .     S
C63    C64     1.530   .     S
C64    H67     1.109   .     S
C64    H66     1.110   .     S
C64    H65     1.111   .     S
C70    C71     1.528   .     S
C70    H76     1.108   .     S
C70    H75     1.107   .     S
C71    H73     1.110   .     S
C71    H74     1.109   .     S
C71    H72     1.110   .     S
C77    N78     1.157   .     T
C79    N80     1.157   .     T
C81    H86     1.109   .     S
C81    C82     1.524   .     S
C81    H87     1.112   .     S
C82    H83     1.111   .     S
C82    H85     1.110   .     S
C82    H672    1.107   1_554 S
H84    C670    1.107   .     S
C88    H94     1.112   .     S
C88    C677    1.524   .     S
C88    H681    1.109   .     S
C89    H91     1.107   .     S
C89    H92     1.111   .     S
C89    C676    1.524   1_554 S
C89    H678    1.111   1_554 S
H90    C677    1.111   .     S
H93    C676    1.109   1_554 S
C95    N96     1.157   .     T
C97    N98     1.157   .     T
C99    C119    1.459   .     S
C99    O141    1.289   .     A
C99    O139    1.290   .     A
C100   O142    1.289   .     A
C100   C120    1.472   .     S
C100   O140    1.297   .     A
C101   C179    1.519   .     S
C101   C103    1.415   .     A
C101   C109    1.422   .     A
C102   C110    1.424   .     A
C102   C104    1.415   .     A
C102   C186    1.518   .     S
C103   N137    1.364   .     A
C103   H133    1.075   .     S
C104   N138    1.363   .     A
C104   H134    1.081   .     S
C105   H135    1.077   .     S
C105   C107    1.409   .     A
C105   N137    1.361   .     A
C106   H136    1.081   .     S
C106   C108    1.408   .     A
C106   N138    1.361   .     A
C107   C193    1.444   .     S
C107   C109    1.415   .     A
C108   C195    1.444   .     S
C108   C110    1.415   .     A
C109   C698    1.514   1_554 S
C110   C697    1.514   .     S
C111   C113    1.432   .     S
C111   O145    1.285   .     A
C111   O143    1.285   .     A
C112   O144    1.285   .     A
C112   O146    1.285   .     A
C112   C114    1.433   .     S
C114   C211    1.333   .     S
C114   H228    1.087   .     S
C115   H131    1.085   .     S
C115   C125    1.394   .     A
C115   C117    1.392   .     A
C116   C126    1.392   .     A
C116   H132    1.085   .     S
C116   C118    1.394   .     A
C117   C119    1.415   .     A
C117   C147    1.518   .     S
C118   C154    1.516   .     S
C118   C120    1.419   .     A
C119   C121    1.423   .     A
C120   C122    1.426   .     A
C121   C161    1.527   .     S
C121   C123    1.412   .     A
C122   C168    1.523   .     S
C122   C124    1.412   .     A
C123   C175    1.451   .     S
C123   C125    1.408   .     A
C124   C126    1.405   .     A
C124   C177    1.453   .     S
C125   C420    1.471   1_545 S
C126   C419    1.471   .     S
Cu127  O146    1.958   .     S
Cu127  O143    1.957   .     S
Cu127  Cu128   2.672   .     S
Cu127  O142    1.962   .     S
Cu127  O139    1.957   .     S
Cu127  N138    2.007   .     S
Cu128  O145    1.958   .     S
Cu128  O141    1.962   .     S
Cu128  O144    1.957   .     S
Cu128  N137    2.007   .     S
Cu128  O140    1.957   .     S
H129   C211    1.087   .     S
C147   H152    1.112   .     S
C147   H153    1.109   .     S
C147   C148    1.526   .     S
C148   H150    1.110   .     S
C148   H151    1.111   .     S
C148   H149    1.110   .     S
C154   C155    1.524   .     S
C154   H160    1.112   .     S
C154   H159    1.101   .     S
C155   H157    1.110   .     S
C155   H158    1.110   .     S
C155   H156    1.108   .     S
C161   H166    1.112   .     S
C161   H167    1.108   .     S
C161   C162    1.530   .     S
C162   H165    1.109   .     S
C162   H164    1.110   .     S
C162   H163    1.111   .     S
C168   C169    1.528   .     S
C168   H174    1.108   .     S
C168   H173    1.107   .     S
C169   H171    1.110   .     S
C169   H172    1.109   .     S
C169   H170    1.110   .     S
C175   N176    1.157   .     T
C177   N178    1.157   .     T
C179   H184    1.109   .     S
C179   C180    1.524   .     S
C179   H185    1.112   .     S
C180   H181    1.111   .     S
C180   H183    1.110   .     S
C180   H770    1.107   1_554 S
H182   C768    1.107   .     S
C186   H192    1.112   .     S
C186   C775    1.524   .     S
C186   H779    1.109   .     S
C187   H189    1.107   .     S
C187   H190    1.111   .     S
C187   C774    1.524   1_554 S
C187   H776    1.111   1_554 S
H188   C775    1.111   .     S
H191   C774    1.109   1_554 S
C193   N194    1.157   .     T
C195   N196    1.157   .     T
C197   C217    1.459   .     S
C197   O239    1.289   .     A
C197   O237    1.290   .     A
C198   O240    1.289   .     A
C198   C218    1.472   .     S
C198   O238    1.297   .     A
C199   C277    1.519   .     S
C199   C201    1.415   .     A
C199   C207    1.422   .     A
C200   C208    1.424   .     A
C200   C202    1.415   .     A
C200   C284    1.518   .     S
C201   N235    1.364   .     A
C201   H231    1.075   .     S
C202   N236    1.363   .     A
C202   H232    1.081   .     S
C203   H233    1.077   .     S
C203   C205    1.409   .     A
C203   N235    1.361   .     A
C204   H234    1.081   .     S
C204   C206    1.408   .     A
C204   N236    1.361   .     A
C205   C291    1.444   .     S
C205   C207    1.415   .     A
C206   C293    1.444   .     S
C206   C208    1.415   .     A
C207   C796    1.514   1_554 S
C208   C795    1.514   .     S
C209   C211    1.432   .     S
C209   O243    1.285   .     A
C209   O241    1.285   .     A
C210   O242    1.285   .     A
C210   O244    1.285   .     A
C210   C212    1.433   .     S
C212   C15     1.333   1_655 S
C212   H32     1.087   1_655 S
C213   H229    1.085   .     S
C213   C223    1.394   .     A
C213   C215    1.392   .     A
C214   C224    1.392   .     A
C214   H230    1.085   .     S
C214   C216    1.394   .     A
C215   C217    1.415   .     A
C215   C245    1.518   .     S
C216   C252    1.516   .     S
C216   C218    1.419   .     A
C217   C219    1.423   .     A
C218   C220    1.426   .     A
C219   C259    1.527   .     S
C219   C221    1.412   .     A
C220   C266    1.523   .     S
C220   C222    1.412   .     A
C221   C273    1.451   .     S
C221   C223    1.408   .     A
C222   C224    1.405   .     A
C222   C275    1.453   .     S
C223   C518    1.471   1_545 S
C224   C517    1.471   .     S
Cu225  O244    1.958   .     S
Cu225  O241    1.957   .     S
Cu225  Cu226   2.672   .     S
Cu225  O240    1.962   .     S
Cu225  O237    1.957   .     S
Cu225  N236    2.007   .     S
Cu226  O243    1.958   .     S
Cu226  O239    1.962   .     S
Cu226  O242    1.957   .     S
Cu226  N235    2.007   .     S
Cu226  O238    1.957   .     S
H227   C15     1.087   1_655 S
C245   H250    1.112   .     S
C245   H251    1.109   .     S
C245   C246    1.526   .     S
C246   H248    1.110   .     S
C246   H249    1.111   .     S
C246   H247    1.110   .     S
C252   C253    1.524   .     S
C252   H258    1.112   .     S
C252   H257    1.101   .     S
C253   H255    1.110   .     S
C253   H256    1.110   .     S
C253   H254    1.108   .     S
C259   H264    1.112   .     S
C259   H265    1.108   .     S
C259   C260    1.530   .     S
C260   H263    1.109   .     S
C260   H262    1.110   .     S
C260   H261    1.111   .     S
C266   C267    1.528   .     S
C266   H272    1.108   .     S
C266   H271    1.107   .     S
C267   H269    1.110   .     S
C267   H270    1.109   .     S
C267   H268    1.110   .     S
C273   N274    1.157   .     T
C275   N276    1.157   .     T
C277   H282    1.109   .     S
C277   C278    1.524   .     S
C277   H283    1.112   .     S
C278   H279    1.111   .     S
C278   H281    1.110   .     S
C278   H868    1.107   1_554 S
H280   C866    1.107   .     S
C284   H290    1.112   .     S
C284   C873    1.524   .     S
C284   H877    1.109   .     S
C285   H287    1.107   .     S
C285   H288    1.111   .     S
C285   C872    1.524   1_554 S
C285   H874    1.111   1_554 S
H286   C873    1.111   .     S
H289   C872    1.109   1_554 S
C291   N292    1.157   .     T
C293   N294    1.157   .     T
C295   C315    1.459   .     S
C295   O337    1.289   .     A
C295   O335    1.290   .     A
C296   O338    1.289   .     A
C296   C316    1.472   .     S
C296   O336    1.297   .     A
C297   C375    1.519   .     S
C297   C299    1.415   .     A
C297   C305    1.422   .     A
C298   C306    1.424   .     A
C298   C300    1.415   .     A
C298   C382    1.518   .     S
C299   N333    1.364   .     A
C299   H329    1.075   .     S
C300   N334    1.363   .     A
C300   H330    1.081   .     S
C301   H331    1.077   .     S
C301   C303    1.409   .     A
C301   N333    1.361   .     A
C302   H332    1.081   .     S
C302   C304    1.408   .     A
C302   N334    1.361   .     A
C303   C389    1.444   .     S
C303   C305    1.415   .     A
C304   C391    1.444   .     S
C304   C306    1.415   .     A
C305   C894    1.514   1_554 S
C306   C893    1.514   .     S
C307   C309    1.432   .     S
C307   O341    1.285   .     A
C307   O339    1.285   .     A
C308   O340    1.285   .     A
C308   O342    1.285   .     A
C308   C310    1.433   .     S
C309   C506    1.333   1_455 S
C309   H521    1.087   1_455 S
C310   C407    1.333   .     S
C310   H424    1.087   .     S
C311   H327    1.085   .     S
C311   C321    1.394   .     A
C311   C313    1.392   .     A
C312   C322    1.392   .     A
C312   H328    1.085   .     S
C312   C314    1.394   .     A
C313   C315    1.415   .     A
C313   C343    1.518   .     S
C314   C350    1.516   .     S
C314   C316    1.419   .     A
C315   C317    1.423   .     A
C316   C318    1.426   .     A
C317   C357    1.527   .     S
C317   C319    1.412   .     A
C318   C364    1.523   .     S
C318   C320    1.412   .     A
C319   C371    1.451   .     S
C319   C321    1.408   .     A
C320   C322    1.405   .     A
C320   C373    1.453   .     S
C322   C27     1.471   1_565 S
Cu323  O342    1.958   .     S
Cu323  O339    1.957   .     S
Cu323  Cu324   2.672   .     S
Cu323  O338    1.962   .     S
Cu323  O335    1.957   .     S
Cu323  N334    2.007   .     S
Cu324  O341    1.958   .     S
Cu324  O337    1.962   .     S
Cu324  O340    1.957   .     S
Cu324  N333    2.007   .     S
Cu324  O336    1.957   .     S
H325   C407    1.087   .     S
H326   C506    1.087   1_455 S
C343   H348    1.112   .     S
C343   H349    1.109   .     S
C343   C344    1.526   .     S
C344   H346    1.110   .     S
C344   H347    1.111   .     S
C344   H345    1.110   .     S
C350   C351    1.524   .     S
C350   H356    1.112   .     S
C350   H355    1.101   .     S
C351   H353    1.110   .     S
C351   H354    1.110   .     S
C351   H352    1.108   .     S
C357   H362    1.112   .     S
C357   H363    1.108   .     S
C357   C358    1.530   .     S
C358   H361    1.109   .     S
C358   H360    1.110   .     S
C358   H359    1.111   .     S
C364   C365    1.528   .     S
C364   H370    1.108   .     S
C364   H369    1.107   .     S
C365   H367    1.110   .     S
C365   H368    1.109   .     S
C365   H366    1.110   .     S
C371   N372    1.157   .     T
C373   N374    1.157   .     T
C375   H380    1.109   .     S
C375   C376    1.524   .     S
C375   H381    1.112   .     S
C376   H377    1.111   .     S
C376   H379    1.110   .     S
C376   H966    1.107   1_554 S
H378   C964    1.107   .     S
C382   H388    1.112   .     S
C382   C971    1.524   .     S
C382   H975    1.109   .     S
C383   H385    1.107   .     S
C383   H386    1.111   .     S
C383   C970    1.524   1_554 S
C383   H972    1.111   1_554 S
H384   C971    1.111   .     S
H387   C970    1.109   1_554 S
C389   N390    1.157   .     T
C391   N392    1.157   .     T
C393   C413    1.459   .     S
C393   O435    1.289   .     A
C393   O433    1.290   .     A
C394   O436    1.289   .     A
C394   C414    1.472   .     S
C394   O434    1.297   .     A
C395   C473    1.519   .     S
C395   C397    1.415   .     A
C395   C403    1.422   .     A
C396   C404    1.424   .     A
C396   C398    1.415   .     A
C396   C480    1.518   .     S
C397   N431    1.364   .     A
C397   H427    1.075   .     S
C398   N432    1.363   .     A
C398   H428    1.081   .     S
C399   H429    1.077   .     S
C399   C401    1.409   .     A
C399   N431    1.361   .     A
C400   H430    1.081   .     S
C400   C402    1.408   .     A
C400   N432    1.361   .     A
C401   C487    1.444   .     S
C401   C403    1.415   .     A
C402   C489    1.444   .     S
C402   C404    1.415   .     A
C403   C992    1.514   1_554 S
C404   C991    1.514   .     S
C405   C407    1.432   .     S
C405   O439    1.285   .     A
C405   O437    1.285   .     A
C406   O438    1.285   .     A
C406   O440    1.285   .     A
C406   C408    1.433   .     S
C408   C505    1.333   .     S
C408   H522    1.087   .     S
C409   H425    1.085   .     S
C409   C419    1.394   .     A
C409   C411    1.392   .     A
C410   C420    1.392   .     A
C410   H426    1.085   .     S
C410   C412    1.394   .     A
C411   C413    1.415   .     A
C411   C441    1.518   .     S
C412   C448    1.516   .     S
C412   C414    1.419   .     A
C413   C415    1.423   .     A
C414   C416    1.426   .     A
C415   C455    1.527   .     S
C415   C417    1.412   .     A
C416   C462    1.523   .     S
C416   C418    1.412   .     A
C417   C469    1.451   .     S
C417   C419    1.408   .     A
C418   C420    1.405   .     A
C418   C471    1.453   .     S
C420   C125    1.471   1_565 S
Cu421  O440    1.958   .     S
Cu421  O437    1.957   .     S
Cu421  Cu422   2.672   .     S
Cu421  O436    1.962   .     S
Cu421  O433    1.957   .     S
Cu421  N432    2.007   .     S
Cu422  O439    1.958   .     S
Cu422  O435    1.962   .     S
Cu422  O438    1.957   .     S
Cu422  N431    2.007   .     S
Cu422  O434    1.957   .     S
H423   C505    1.087   .     S
C441   H446    1.112   .     S
C441   H447    1.109   .     S
C441   C442    1.526   .     S
C442   H444    1.110   .     S
C442   H445    1.111   .     S
C442   H443    1.110   .     S
C448   C449    1.524   .     S
C448   H454    1.112   .     S
C448   H453    1.101   .     S
C449   H451    1.110   .     S
C449   H452    1.110   .     S
C449   H450    1.108   .     S
C455   H460    1.112   .     S
C455   H461    1.108   .     S
C455   C456    1.530   .     S
C456   H459    1.109   .     S
C456   H458    1.110   .     S
C456   H457    1.111   .     S
C462   C463    1.528   .     S
C462   H468    1.108   .     S
C462   H467    1.107   .     S
C463   H465    1.110   .     S
C463   H466    1.109   .     S
C463   H464    1.110   .     S
C469   N470    1.157   .     T
C471   N472    1.157   .     T
C473   H478    1.109   .     S
C473   C474    1.524   .     S
C473   H479    1.112   .     S
C474   H475    1.111   .     S
C474   H477    1.110   .     S
C474   H1064   1.107   1_554 S
H476   C1062   1.107   .     S
C480   H486    1.112   .     S
C480   C1069   1.524   .     S
C480   H1073   1.109   .     S
C481   H483    1.107   .     S
C481   H484    1.111   .     S
C481   C1068   1.524   1_554 S
C481   H1070   1.111   1_554 S
H482   C1069   1.111   .     S
H485   C1068   1.109   1_554 S
C487   N488    1.157   .     T
C489   N490    1.157   .     T
C491   C511    1.459   .     S
C491   O533    1.289   .     A
C491   O531    1.290   .     A
C492   O534    1.289   .     A
C492   C512    1.472   .     S
C492   O532    1.297   .     A
C493   C571    1.519   .     S
C493   C495    1.415   .     A
C493   C501    1.422   .     A
C494   C502    1.424   .     A
C494   C496    1.415   .     A
C494   C578    1.518   .     S
C495   N529    1.364   .     A
C495   H525    1.075   .     S
C496   N530    1.363   .     A
C496   H526    1.081   .     S
C497   H527    1.077   .     S
C497   C499    1.409   .     A
C497   N529    1.361   .     A
C498   H528    1.081   .     S
C498   C500    1.408   .     A
C498   N530    1.361   .     A
C499   C585    1.444   .     S
C499   C501    1.415   .     A
C500   C587    1.444   .     S
C500   C502    1.415   .     A
C501   C1090   1.514   1_554 S
C502   C1089   1.514   .     S
C503   C505    1.432   .     S
C503   O537    1.285   .     A
C503   O535    1.285   .     A
C504   O536    1.285   .     A
C504   O538    1.285   .     A
C504   C506    1.433   .     S
C506   C309    1.333   1_655 S
C506   H326    1.087   1_655 S
C507   H523    1.085   .     S
C507   C517    1.394   .     A
C507   C509    1.392   .     A
C508   C518    1.392   .     A
C508   H524    1.085   .     S
C508   C510    1.394   .     A
C509   C511    1.415   .     A
C509   C539    1.518   .     S
C510   C546    1.516   .     S
C510   C512    1.419   .     A
C511   C513    1.423   .     A
C512   C514    1.426   .     A
C513   C553    1.527   .     S
C513   C515    1.412   .     A
C514   C560    1.523   .     S
C514   C516    1.412   .     A
C515   C567    1.451   .     S
C515   C517    1.408   .     A
C516   C518    1.405   .     A
C516   C569    1.453   .     S
C518   C223    1.471   1_565 S
Cu519  O538    1.958   .     S
Cu519  O535    1.957   .     S
Cu519  Cu520   2.672   .     S
Cu519  O534    1.962   .     S
Cu519  O531    1.957   .     S
Cu519  N530    2.007   .     S
Cu520  O537    1.958   .     S
Cu520  O533    1.962   .     S
Cu520  O536    1.957   .     S
Cu520  N529    2.007   .     S
Cu520  O532    1.957   .     S
H521   C309    1.087   1_655 S
C539   H544    1.112   .     S
C539   H545    1.109   .     S
C539   C540    1.526   .     S
C540   H542    1.110   .     S
C540   H543    1.111   .     S
C540   H541    1.110   .     S
C546   C547    1.524   .     S
C546   H552    1.112   .     S
C546   H551    1.101   .     S
C547   H549    1.110   .     S
C547   H550    1.110   .     S
C547   H548    1.108   .     S
C553   H558    1.112   .     S
C553   H559    1.108   .     S
C553   C554    1.530   .     S
C554   H557    1.109   .     S
C554   H556    1.110   .     S
C554   H555    1.111   .     S
C560   C561    1.528   .     S
C560   H566    1.108   .     S
C560   H565    1.107   .     S
C561   H563    1.110   .     S
C561   H564    1.109   .     S
C561   H562    1.110   .     S
C567   N568    1.157   .     T
C569   N570    1.157   .     T
C571   H576    1.109   .     S
C571   C572    1.524   .     S
C571   H577    1.112   .     S
C572   H573    1.111   .     S
C572   H575    1.110   .     S
C572   H1162   1.107   1_554 S
H574   C1160   1.107   .     S
C578   H584    1.112   .     S
C578   C1167   1.524   .     S
C578   H1171   1.109   .     S
C579   H581    1.107   .     S
C579   H582    1.111   .     S
C579   C1166   1.524   1_554 S
C579   H1168   1.111   1_554 S
H580   C1167   1.111   .     S
H583   C1166   1.109   1_554 S
C585   N586    1.157   .     T
C587   N588    1.157   .     T
C589   C609    1.459   .     S
C589   O631    1.289   .     A
C589   O629    1.290   .     A
C590   O632    1.289   .     A
C590   C610    1.472   .     S
C590   O630    1.297   .     A
C591   C669    1.519   .     S
C591   C593    1.415   .     A
C591   C599    1.422   .     A
C592   C600    1.424   .     A
C592   C594    1.415   .     A
C592   C676    1.518   .     S
C593   N627    1.364   .     A
C593   H623    1.075   .     S
C594   N628    1.363   .     A
C594   H624    1.081   .     S
C595   H625    1.077   .     S
C595   C597    1.409   .     A
C595   N627    1.361   .     A
C596   H626    1.081   .     S
C596   C598    1.408   .     A
C596   N628    1.361   .     A
C597   C683    1.444   .     S
C597   C599    1.415   .     A
C598   C685    1.444   .     S
C598   C600    1.415   .     A
C600   C11     1.514   1_556 S
C601   C603    1.432   .     S
C601   O635    1.285   .     A
C601   O633    1.285   .     A
C602   O634    1.285   .     A
C602   O636    1.285   .     A
C602   C604    1.433   .     S
C603   C800    1.333   1_455 S
C603   H815    1.087   1_455 S
C604   C701    1.333   .     S
C604   H718    1.087   .     S
C605   H621    1.085   .     S
C605   C615    1.394   .     A
C605   C607    1.392   .     A
C606   C616    1.392   .     A
C606   H622    1.085   .     S
C606   C608    1.394   .     A
C607   C609    1.415   .     A
C607   C637    1.518   .     S
C608   C644    1.516   .     S
C608   C610    1.419   .     A
C609   C611    1.423   .     A
C610   C612    1.426   .     A
C611   C651    1.527   .     S
C611   C613    1.412   .     A
C612   C658    1.523   .     S
C612   C614    1.412   .     A
C613   C665    1.451   .     S
C613   C615    1.408   .     A
C614   C616    1.405   .     A
C614   C667    1.453   .     S
C615   C910    1.471   1_545 S
C616   C909    1.471   .     S
Cu617  O636    1.958   .     S
Cu617  O633    1.957   .     S
Cu617  Cu618   2.672   .     S
Cu617  O632    1.962   .     S
Cu617  O629    1.957   .     S
Cu617  N628    2.007   .     S
Cu618  O635    1.958   .     S
Cu618  O631    1.962   .     S
Cu618  O634    1.957   .     S
Cu618  N627    2.007   .     S
Cu618  O630    1.957   .     S
H619   C701    1.087   .     S
H620   C800    1.087   1_455 S
C637   H642    1.112   .     S
C637   H643    1.109   .     S
C637   C638    1.526   .     S
C638   H640    1.110   .     S
C638   H641    1.111   .     S
C638   H639    1.110   .     S
C644   C645    1.524   .     S
C644   H650    1.112   .     S
C644   H649    1.101   .     S
C645   H647    1.110   .     S
C645   H648    1.110   .     S
C645   H646    1.108   .     S
C651   H656    1.112   .     S
C651   H657    1.108   .     S
C651   C652    1.530   .     S
C652   H655    1.109   .     S
C652   H654    1.110   .     S
C652   H653    1.111   .     S
C658   C659    1.528   .     S
C658   H664    1.108   .     S
C658   H663    1.107   .     S
C659   H661    1.110   .     S
C659   H662    1.109   .     S
C659   H660    1.110   .     S
C665   N666    1.157   .     T
C667   N668    1.157   .     T
C669   H674    1.109   .     S
C669   C670    1.524   .     S
C669   H675    1.112   .     S
C670   H671    1.111   .     S
C670   H673    1.110   .     S
H672   C82     1.107   1_556 S
C676   H682    1.112   .     S
C676   C89     1.524   1_556 S
C676   H93     1.109   1_556 S
C677   H679    1.107   .     S
C677   H680    1.111   .     S
H678   C89     1.111   1_556 S
C683   N684    1.157   .     T
C685   N686    1.157   .     T
C687   C707    1.459   .     S
C687   O729    1.289   .     A
C687   O727    1.290   .     A
C688   O730    1.289   .     A
C688   C708    1.472   .     S
C688   O728    1.297   .     A
C689   C767    1.519   .     S
C689   C691    1.415   .     A
C689   C697    1.422   .     A
C690   C698    1.424   .     A
C690   C692    1.415   .     A
C690   C774    1.518   .     S
C691   N725    1.364   .     A
C691   H721    1.075   .     S
C692   N726    1.363   .     A
C692   H722    1.081   .     S
C693   H723    1.077   .     S
C693   C695    1.409   .     A
C693   N725    1.361   .     A
C694   H724    1.081   .     S
C694   C696    1.408   .     A
C694   N726    1.361   .     A
C695   C781    1.444   .     S
C695   C697    1.415   .     A
C696   C783    1.444   .     S
C696   C698    1.415   .     A
C698   C109    1.514   1_556 S
C699   C701    1.432   .     S
C699   O733    1.285   .     A
C699   O731    1.285   .     A
C700   O732    1.285   .     A
C700   O734    1.285   .     A
C700   C702    1.433   .     S
C702   C799    1.333   .     S
C702   H816    1.087   .     S
C703   H719    1.085   .     S
C703   C713    1.394   .     A
C703   C705    1.392   .     A
C704   C714    1.392   .     A
C704   H720    1.085   .     S
C704   C706    1.394   .     A
C705   C707    1.415   .     A
C705   C735    1.518   .     S
C706   C742    1.516   .     S
C706   C708    1.419   .     A
C707   C709    1.423   .     A
C708   C710    1.426   .     A
C709   C749    1.527   .     S
C709   C711    1.412   .     A
C710   C756    1.523   .     S
C710   C712    1.412   .     A
C711   C763    1.451   .     S
C711   C713    1.408   .     A
C712   C714    1.405   .     A
C712   C765    1.453   .     S
C713   C1008   1.471   1_545 S
C714   C1007   1.471   .     S
Cu715  O734    1.958   .     S
Cu715  O731    1.957   .     S
Cu715  Cu716   2.672   .     S
Cu715  O730    1.962   .     S
Cu715  O727    1.957   .     S
Cu715  N726    2.007   .     S
Cu716  O733    1.958   .     S
Cu716  O729    1.962   .     S
Cu716  O732    1.957   .     S
Cu716  N725    2.007   .     S
Cu716  O728    1.957   .     S
H717   C799    1.087   .     S
C735   H740    1.112   .     S
C735   H741    1.109   .     S
C735   C736    1.526   .     S
C736   H738    1.110   .     S
C736   H739    1.111   .     S
C736   H737    1.110   .     S
C742   C743    1.524   .     S
C742   H748    1.112   .     S
C742   H747    1.101   .     S
C743   H745    1.110   .     S
C743   H746    1.110   .     S
C743   H744    1.108   .     S
C749   H754    1.112   .     S
C749   H755    1.108   .     S
C749   C750    1.530   .     S
C750   H753    1.109   .     S
C750   H752    1.110   .     S
C750   H751    1.111   .     S
C756   C757    1.528   .     S
C756   H762    1.108   .     S
C756   H761    1.107   .     S
C757   H759    1.110   .     S
C757   H760    1.109   .     S
C757   H758    1.110   .     S
C763   N764    1.157   .     T
C765   N766    1.157   .     T
C767   H772    1.109   .     S
C767   C768    1.524   .     S
C767   H773    1.112   .     S
C768   H769    1.111   .     S
C768   H771    1.110   .     S
H770   C180    1.107   1_556 S
C774   H780    1.112   .     S
C774   C187    1.524   1_556 S
C774   H191    1.109   1_556 S
C775   H777    1.107   .     S
C775   H778    1.111   .     S
H776   C187    1.111   1_556 S
C781   N782    1.157   .     T
C783   N784    1.157   .     T
C785   C805    1.459   .     S
C785   O827    1.289   .     A
C785   O825    1.290   .     A
C786   O828    1.289   .     A
C786   C806    1.472   .     S
C786   O826    1.297   .     A
C787   C865    1.519   .     S
C787   C789    1.415   .     A
C787   C795    1.422   .     A
C788   C796    1.424   .     A
C788   C790    1.415   .     A
C788   C872    1.518   .     S
C789   N823    1.364   .     A
C789   H819    1.075   .     S
C790   N824    1.363   .     A
C790   H820    1.081   .     S
C791   H821    1.077   .     S
C791   C793    1.409   .     A
C791   N823    1.361   .     A
C792   H822    1.081   .     S
C792   C794    1.408   .     A
C792   N824    1.361   .     A
C793   C879    1.444   .     S
C793   C795    1.415   .     A
C794   C881    1.444   .     S
C794   C796    1.415   .     A
C796   C207    1.514   1_556 S
C797   C799    1.432   .     S
C797   O831    1.285   .     A
C797   O829    1.285   .     A
C798   O830    1.285   .     A
C798   O832    1.285   .     A
C798   C800    1.433   .     S
C800   C603    1.333   1_655 S
C800   H620    1.087   1_655 S
C801   H817    1.085   .     S
C801   C811    1.394   .     A
C801   C803    1.392   .     A
C802   C812    1.392   .     A
C802   H818    1.085   .     S
C802   C804    1.394   .     A
C803   C805    1.415   .     A
C803   C833    1.518   .     S
C804   C840    1.516   .     S
C804   C806    1.419   .     A
C805   C807    1.423   .     A
C806   C808    1.426   .     A
C807   C847    1.527   .     S
C807   C809    1.412   .     A
C808   C854    1.523   .     S
C808   C810    1.412   .     A
C809   C861    1.451   .     S
C809   C811    1.408   .     A
C810   C812    1.405   .     A
C810   C863    1.453   .     S
C811   C1106   1.471   1_545 S
C812   C1105   1.471   .     S
Cu813  O832    1.958   .     S
Cu813  O829    1.957   .     S
Cu813  Cu814   2.672   .     S
Cu813  O828    1.962   .     S
Cu813  O825    1.957   .     S
Cu813  N824    2.007   .     S
Cu814  O831    1.958   .     S
Cu814  O827    1.962   .     S
Cu814  O830    1.957   .     S
Cu814  N823    2.007   .     S
Cu814  O826    1.957   .     S
H815   C603    1.087   1_655 S
C833   H838    1.112   .     S
C833   H839    1.109   .     S
C833   C834    1.526   .     S
C834   H836    1.110   .     S
C834   H837    1.111   .     S
C834   H835    1.110   .     S
C840   C841    1.524   .     S
C840   H846    1.112   .     S
C840   H845    1.101   .     S
C841   H843    1.110   .     S
C841   H844    1.110   .     S
C841   H842    1.108   .     S
C847   H852    1.112   .     S
C847   H853    1.108   .     S
C847   C848    1.530   .     S
C848   H851    1.109   .     S
C848   H850    1.110   .     S
C848   H849    1.111   .     S
C854   C855    1.528   .     S
C854   H860    1.108   .     S
C854   H859    1.107   .     S
C855   H857    1.110   .     S
C855   H858    1.109   .     S
C855   H856    1.110   .     S
C861   N862    1.157   .     T
C863   N864    1.157   .     T
C865   H870    1.109   .     S
C865   C866    1.524   .     S
C865   H871    1.112   .     S
C866   H867    1.111   .     S
C866   H869    1.110   .     S
H868   C278    1.107   1_556 S
C872   H878    1.112   .     S
C872   C285    1.524   1_556 S
C872   H289    1.109   1_556 S
C873   H875    1.107   .     S
C873   H876    1.111   .     S
H874   C285    1.111   1_556 S
C879   N880    1.157   .     T
C881   N882    1.157   .     T
C883   C903    1.459   .     S
C883   O925    1.289   .     A
C883   O923    1.290   .     A
C884   O926    1.289   .     A
C884   C904    1.472   .     S
C884   O924    1.297   .     A
C885   C963    1.519   .     S
C885   C887    1.415   .     A
C885   C893    1.422   .     A
C886   C894    1.424   .     A
C886   C888    1.415   .     A
C886   C970    1.518   .     S
C887   N921    1.364   .     A
C887   H917    1.075   .     S
C888   N922    1.363   .     A
C888   H918    1.081   .     S
C889   H919    1.077   .     S
C889   C891    1.409   .     A
C889   N921    1.361   .     A
C890   H920    1.081   .     S
C890   C892    1.408   .     A
C890   N922    1.361   .     A
C891   C977    1.444   .     S
C891   C893    1.415   .     A
C892   C979    1.444   .     S
C892   C894    1.415   .     A
C894   C305    1.514   1_556 S
C895   C897    1.432   .     S
C895   O929    1.285   .     A
C895   O927    1.285   .     A
C896   O928    1.285   .     A
C896   O930    1.285   .     A
C896   C898    1.433   .     S
C897   C1094   1.333   1_455 S
C897   H1109   1.087   1_455 S
C898   C995    1.333   .     S
C898   H1012   1.087   .     S
C899   H915    1.085   .     S
C899   C909    1.394   .     A
C899   C901    1.392   .     A
C900   C910    1.392   .     A
C900   H916    1.085   .     S
C900   C902    1.394   .     A
C901   C903    1.415   .     A
C901   C931    1.518   .     S
C902   C938    1.516   .     S
C902   C904    1.419   .     A
C903   C905    1.423   .     A
C904   C906    1.426   .     A
C905   C945    1.527   .     S
C905   C907    1.412   .     A
C906   C952    1.523   .     S
C906   C908    1.412   .     A
C907   C959    1.451   .     S
C907   C909    1.408   .     A
C908   C910    1.405   .     A
C908   C961    1.453   .     S
C910   C615    1.471   1_565 S
Cu911  O930    1.958   .     S
Cu911  O927    1.957   .     S
Cu911  Cu912   2.672   .     S
Cu911  O926    1.962   .     S
Cu911  O923    1.957   .     S
Cu911  N922    2.007   .     S
Cu912  O929    1.958   .     S
Cu912  O925    1.962   .     S
Cu912  O928    1.957   .     S
Cu912  N921    2.007   .     S
Cu912  O924    1.957   .     S
H913   C995    1.087   .     S
H914   C1094   1.087   1_455 S
C931   H936    1.112   .     S
C931   H937    1.109   .     S
C931   C932    1.526   .     S
C932   H934    1.110   .     S
C932   H935    1.111   .     S
C932   H933    1.110   .     S
C938   C939    1.524   .     S
C938   H944    1.112   .     S
C938   H943    1.101   .     S
C939   H941    1.110   .     S
C939   H942    1.110   .     S
C939   H940    1.108   .     S
C945   H950    1.112   .     S
C945   H951    1.108   .     S
C945   C946    1.530   .     S
C946   H949    1.109   .     S
C946   H948    1.110   .     S
C946   H947    1.111   .     S
C952   C953    1.528   .     S
C952   H958    1.108   .     S
C952   H957    1.107   .     S
C953   H955    1.110   .     S
C953   H956    1.109   .     S
C953   H954    1.110   .     S
C959   N960    1.157   .     T
C961   N962    1.157   .     T
C963   H968    1.109   .     S
C963   C964    1.524   .     S
C963   H969    1.112   .     S
C964   H965    1.111   .     S
C964   H967    1.110   .     S
H966   C376    1.107   1_556 S
C970   H976    1.112   .     S
C970   C383    1.524   1_556 S
C970   H387    1.109   1_556 S
C971   H973    1.107   .     S
C971   H974    1.111   .     S
H972   C383    1.111   1_556 S
C977   N978    1.157   .     T
C979   N980    1.157   .     T
C981   C1001   1.459   .     S
C981   O1023   1.289   .     A
C981   O1021   1.290   .     A
C982   O1024   1.289   .     A
C982   C1002   1.472   .     S
C982   O1022   1.297   .     A
C983   C1061   1.519   .     S
C983   C985    1.415   .     A
C983   C991    1.422   .     A
C984   C992    1.424   .     A
C984   C986    1.415   .     A
C984   C1068   1.518   .     S
C985   N1019   1.364   .     A
C985   H1015   1.075   .     S
C986   N1020   1.363   .     A
C986   H1016   1.081   .     S
C987   H1017   1.077   .     S
C987   C989    1.409   .     A
C987   N1019   1.361   .     A
C988   H1018   1.081   .     S
C988   C990    1.408   .     A
C988   N1020   1.361   .     A
C989   C1075   1.444   .     S
C989   C991    1.415   .     A
C990   C1077   1.444   .     S
C990   C992    1.415   .     A
C992   C403    1.514   1_556 S
C993   C995    1.432   .     S
C993   O1027   1.285   .     A
C993   O1025   1.285   .     A
C994   O1026   1.285   .     A
C994   O1028   1.285   .     A
C994   C996    1.433   .     S
C996   C1093   1.333   .     S
C996   H1110   1.087   .     S
C997   H1013   1.085   .     S
C997   C1007   1.394   .     A
C997   C999    1.392   .     A
C998   C1008   1.392   .     A
C998   H1014   1.085   .     S
C998   C1000   1.394   .     A
C999   C1001   1.415   .     A
C999   C1029   1.518   .     S
C1000  C1036   1.516   .     S
C1000  C1002   1.419   .     A
C1001  C1003   1.423   .     A
C1002  C1004   1.426   .     A
C1003  C1043   1.527   .     S
C1003  C1005   1.412   .     A
C1004  C1050   1.523   .     S
C1004  C1006   1.412   .     A
C1005  C1057   1.451   .     S
C1005  C1007   1.408   .     A
C1006  C1008   1.405   .     A
C1006  C1059   1.453   .     S
C1008  C713    1.471   1_565 S
Cu1009 O1028   1.958   .     S
Cu1009 O1025   1.957   .     S
Cu1009 Cu1010  2.672   .     S
Cu1009 O1024   1.962   .     S
Cu1009 O1021   1.957   .     S
Cu1009 N1020   2.007   .     S
Cu1010 O1027   1.958   .     S
Cu1010 O1023   1.962   .     S
Cu1010 O1026   1.957   .     S
Cu1010 N1019   2.007   .     S
Cu1010 O1022   1.957   .     S
H1011  C1093   1.087   .     S
C1029  H1034   1.112   .     S
C1029  H1035   1.109   .     S
C1029  C1030   1.526   .     S
C1030  H1032   1.110   .     S
C1030  H1033   1.111   .     S
C1030  H1031   1.110   .     S
C1036  C1037   1.524   .     S
C1036  H1042   1.112   .     S
C1036  H1041   1.101   .     S
C1037  H1039   1.110   .     S
C1037  H1040   1.110   .     S
C1037  H1038   1.108   .     S
C1043  H1048   1.112   .     S
C1043  H1049   1.108   .     S
C1043  C1044   1.530   .     S
C1044  H1047   1.109   .     S
C1044  H1046   1.110   .     S
C1044  H1045   1.111   .     S
C1050  C1051   1.528   .     S
C1050  H1056   1.108   .     S
C1050  H1055   1.107   .     S
C1051  H1053   1.110   .     S
C1051  H1054   1.109   .     S
C1051  H1052   1.110   .     S
C1057  N1058   1.157   .     T
C1059  N1060   1.157   .     T
C1061  H1066   1.109   .     S
C1061  C1062   1.524   .     S
C1061  H1067   1.112   .     S
C1062  H1063   1.111   .     S
C1062  H1065   1.110   .     S
H1064  C474    1.107   1_556 S
C1068  H1074   1.112   .     S
C1068  C481    1.524   1_556 S
C1068  H485    1.109   1_556 S
C1069  H1071   1.107   .     S
C1069  H1072   1.111   .     S
H1070  C481    1.111   1_556 S
C1075  N1076   1.157   .     T
C1077  N1078   1.157   .     T
C1079  C1099   1.459   .     S
C1079  O1121   1.289   .     A
C1079  O1119   1.290   .     A
C1080  O1122   1.289   .     A
C1080  C1100   1.472   .     S
C1080  O1120   1.297   .     A
C1081  C1159   1.519   .     S
C1081  C1083   1.415   .     A
C1081  C1089   1.422   .     A
C1082  C1090   1.424   .     A
C1082  C1084   1.415   .     A
C1082  C1166   1.518   .     S
C1083  N1117   1.364   .     A
C1083  H1113   1.075   .     S
C1084  N1118   1.363   .     A
C1084  H1114   1.081   .     S
C1085  H1115   1.077   .     S
C1085  C1087   1.409   .     A
C1085  N1117   1.361   .     A
C1086  H1116   1.081   .     S
C1086  C1088   1.408   .     A
C1086  N1118   1.361   .     A
C1087  C1173   1.444   .     S
C1087  C1089   1.415   .     A
C1088  C1175   1.444   .     S
C1088  C1090   1.415   .     A
C1090  C501    1.514   1_556 S
C1091  C1093   1.432   .     S
C1091  O1125   1.285   .     A
C1091  O1123   1.285   .     A
C1092  O1124   1.285   .     A
C1092  O1126   1.285   .     A
C1092  C1094   1.433   .     S
C1094  C897    1.333   1_655 S
C1094  H914    1.087   1_655 S
C1095  H1111   1.085   .     S
C1095  C1105   1.394   .     A
C1095  C1097   1.392   .     A
C1096  C1106   1.392   .     A
C1096  H1112   1.085   .     S
C1096  C1098   1.394   .     A
C1097  C1099   1.415   .     A
C1097  C1127   1.518   .     S
C1098  C1134   1.516   .     S
C1098  C1100   1.419   .     A
C1099  C1101   1.423   .     A
C1100  C1102   1.426   .     A
C1101  C1141   1.527   .     S
C1101  C1103   1.412   .     A
C1102  C1148   1.523   .     S
C1102  C1104   1.412   .     A
C1103  C1155   1.451   .     S
C1103  C1105   1.408   .     A
C1104  C1106   1.405   .     A
C1104  C1157   1.453   .     S
C1106  C811    1.471   1_565 S
Cu1107 O1126   1.958   .     S
Cu1107 O1123   1.957   .     S
Cu1107 Cu1108  2.672   .     S
Cu1107 O1122   1.962   .     S
Cu1107 O1119   1.957   .     S
Cu1107 N1118   2.007   .     S
Cu1108 O1125   1.958   .     S
Cu1108 O1121   1.962   .     S
Cu1108 O1124   1.957   .     S
Cu1108 N1117   2.007   .     S
Cu1108 O1120   1.957   .     S
H1109  C897    1.087   1_655 S
C1127  H1132   1.112   .     S
C1127  H1133   1.109   .     S
C1127  C1128   1.526   .     S
C1128  H1130   1.110   .     S
C1128  H1131   1.111   .     S
C1128  H1129   1.110   .     S
C1134  C1135   1.524   .     S
C1134  H1140   1.112   .     S
C1134  H1139   1.101   .     S
C1135  H1137   1.110   .     S
C1135  H1138   1.110   .     S
C1135  H1136   1.108   .     S
C1141  H1146   1.112   .     S
C1141  H1147   1.108   .     S
C1141  C1142   1.530   .     S
C1142  H1145   1.109   .     S
C1142  H1144   1.110   .     S
C1142  H1143   1.111   .     S
C1148  C1149   1.528   .     S
C1148  H1154   1.108   .     S
C1148  H1153   1.107   .     S
C1149  H1151   1.110   .     S
C1149  H1152   1.109   .     S
C1149  H1150   1.110   .     S
C1155  N1156   1.157   .     T
C1157  N1158   1.157   .     T
C1159  H1164   1.109   .     S
C1159  C1160   1.524   .     S
C1159  H1165   1.112   .     S
C1160  H1161   1.111   .     S
C1160  H1163   1.110   .     S
H1162  C572    1.107   1_556 S
C1166  H1172   1.112   .     S
C1166  C579    1.524   1_556 S
C1166  H583    1.109   1_556 S
C1167  H1169   1.107   .     S
C1167  H1170   1.111   .     S
H1168  C579    1.111   1_556 S
C1173  N1174   1.157   .     T
C1175  N1176   1.157   .     T
