data_str_m2_o1_o18_pcu_sym.189
_audit_creation_date              2020-01-03
_audit_creation_method            'Materials Studio'
_symmetry_space_group_name_H-M    'P1'
_symmetry_Int_Tables_number       1
_symmetry_cell_setting            triclinic
loop_
_symmetry_equiv_pos_as_xyz
  x,y,z
_cell_length_a                    28.5218
_cell_length_b                    32.5036
_cell_length_c                    30.7023
_cell_angle_alpha                 89.7872
_cell_angle_beta                  75.4012
_cell_angle_gamma                 89.9967
loop_
_atom_site_label
_atom_site_type_symbol
_atom_site_fract_x
_atom_site_fract_y
_atom_site_fract_z
_atom_site_U_iso_or_equiv
_atom_site_adp_type
_atom_site_occupancy
C1     C     0.33331   0.08734   0.25003   0.00000  Uiso   1.00
C2     C     0.00002   0.24599   0.24997   0.00000  Uiso   1.00
C3     C     0.19154   0.18736   0.04614   0.00000  Uiso   1.00
C4     C     0.14208   0.14482   0.45414   0.00000  Uiso   1.00
C5     C     0.23982   0.19326   0.02431   0.00000  Uiso   1.00
C6     C     0.09383   0.13879   0.47598   0.00000  Uiso   1.00
C7     C     0.29077   0.02128   0.24984   0.00000  Uiso   1.00
C8     C     0.04257   0.31205   0.25015   0.00000  Uiso   1.00
C9     C     0.29078   0.31205   0.24980   0.00000  Uiso   1.00
C10    C     0.04255   0.02128   0.25020   0.00000  Uiso   1.00
C11    C     0.00001   0.29060   0.24997   0.00000  Uiso   1.00
C12    C     0.33332   0.04274   0.25003   0.00000  Uiso   1.00
C13    C     0.18468   0.13856   0.27499   0.00000  Uiso   1.00
C14    C     0.14866   0.19477   0.22500   0.00000  Uiso   1.00
C15    C     0.13508   0.13853   0.27491   0.00000  Uiso   1.00
C16    C     0.19826   0.19479   0.22507   0.00000  Uiso   1.00
C17    C     0.30658   0.16695   0.33645   0.00000  Uiso   1.00
C18    C     0.02675   0.16633   0.16355   0.00000  Uiso   1.00
C19    C     0.29267   0.16925   0.38632   0.00000  Uiso   1.00
C20    C     0.04065   0.16380   0.11371   0.00000  Uiso   1.00
C21    C     0.30596   0.19035   0.45806   0.00000  Uiso   1.00
C22    C     0.02762   0.14185   0.04216   0.00000  Uiso   1.00
C23    C     0.32462   0.18224   0.41236   0.00000  Uiso   1.00
C24    C     0.00886   0.15020   0.08779   0.00000  Uiso   1.00
C25    C     0.24391   0.16167   0.40797   0.00000  Uiso   1.00
C26    C     0.08933   0.17167   0.09201   0.00000  Uiso   1.00
C27    C     0.22503   0.16846   0.45437   0.00000  Uiso   1.00
C28    C     0.10840   0.16428   0.04576   0.00000  Uiso   1.00
C29    C     0.25694   0.18393   0.47896   0.00000  Uiso   1.00
C30    C     0.07661   0.14842   0.02125   0.00000  Uiso   1.00
C31    C     0.17528   0.16142   0.47675   0.00000  Uiso   1.00
C32    C     0.15821   0.17115   0.02343   0.00000  Uiso   1.00
Cu33   Cu    0.04689   0.16667   0.25000   0.00000  Uiso   1.00
Cu34   Cu    0.28645   0.16666   0.25000   0.00000  Uiso   1.00
H35    H     0.26400   0.20573   0.04311   0.00000  Uiso   1.00
H36    H     0.06976   0.12599   0.45726   0.00000  Uiso   1.00
H37    H     0.11192   0.18271   0.11263   0.00000  Uiso   1.00
H38    H     0.22103   0.15145   0.38724   0.00000  Uiso   1.00
H39    H     0.33008   0.20155   0.47768   0.00000  Uiso   1.00
H40    H     0.00362   0.13028   0.02261   0.00000  Uiso   1.00
H41    H     0.18188   0.19616   0.08098   0.00000  Uiso   1.00
H42    H     0.15191   0.13559   0.41943   0.00000  Uiso   1.00
H43    H     0.25749   0.03729   0.24972   0.00000  Uiso   1.00
H44    H     0.07585   0.29604   0.25028   0.00000  Uiso   1.00
H45    H     0.25752   0.29604   0.24963   0.00000  Uiso   1.00
H46    H     0.07582   0.03730   0.25036   0.00000  Uiso   1.00
H47    H     0.19792   0.11610   0.29507   0.00000  Uiso   1.00
H48    H     0.13542   0.21723   0.20491   0.00000  Uiso   1.00
H49    H     0.11094   0.11599   0.29484   0.00000  Uiso   1.00
H50    H     0.22241   0.21731   0.20511   0.00000  Uiso   1.00
N51    N     0.11736   0.16668   0.24999   0.00000  Uiso   1.00
N52    N     0.21597   0.16666   0.25001   0.00000  Uiso   1.00
O53    O     0.03958   0.10655   0.25000   0.00000  Uiso   1.00
O54    O     0.29375   0.22678   0.25000   0.00000  Uiso   1.00
O55    O     0.29372   0.10654   0.25001   0.00000  Uiso   1.00
O56    O     0.03961   0.22679   0.24999   0.00000  Uiso   1.00
O57    O     0.01852   0.16668   0.31491   0.00000  Uiso   1.00
O58    O     0.31481   0.16666   0.18509   0.00000  Uiso   1.00
O59    O     0.27267   0.16667   0.31492   0.00000  Uiso   1.00
O60    O     0.06067   0.16667   0.18508   0.00000  Uiso   1.00
C61    C     0.28968   0.14313   0.10605   0.00000  Uiso   1.00
H62    H     0.27339   0.11496   0.09788   0.00000  Uiso   1.00
O63    O     0.26356   0.16996   0.12689   0.00000  Uiso   1.00
C64    C     0.04389   0.18884   0.39418   0.00000  Uiso   1.00
H65    H     0.06055   0.21677   0.40249   0.00000  Uiso   1.00
O66    O     0.06965   0.16187   0.37323   0.00000  Uiso   1.00
C67    C     0.66665   0.08734   0.25003   0.00000  Uiso   1.00
C68    C     0.33335   0.24599   0.24997   0.00000  Uiso   1.00
C69    C     0.52487   0.18736   0.04614   0.00000  Uiso   1.00
C70    C     0.47541   0.14482   0.45414   0.00000  Uiso   1.00
C71    C     0.57316   0.19326   0.02431   0.00000  Uiso   1.00
C72    C     0.42716   0.13879   0.47598   0.00000  Uiso   1.00
C73    C     0.62410   0.02128   0.24984   0.00000  Uiso   1.00
C74    C     0.37590   0.31205   0.25015   0.00000  Uiso   1.00
C75    C     0.62412   0.31205   0.24980   0.00000  Uiso   1.00
C76    C     0.37589   0.02128   0.25020   0.00000  Uiso   1.00
C77    C     0.33335   0.29060   0.24997   0.00000  Uiso   1.00
C78    C     0.66665   0.04274   0.25003   0.00000  Uiso   1.00
C79    C     0.51801   0.13856   0.27499   0.00000  Uiso   1.00
C80    C     0.48199   0.19477   0.22500   0.00000  Uiso   1.00
C81    C     0.46841   0.13853   0.27491   0.00000  Uiso   1.00
C82    C     0.53159   0.19479   0.22507   0.00000  Uiso   1.00
C83    C     0.63991   0.16695   0.33645   0.00000  Uiso   1.00
C84    C     0.36008   0.16633   0.16355   0.00000  Uiso   1.00
C85    C     0.62601   0.16925   0.38632   0.00000  Uiso   1.00
C86    C     0.37398   0.16380   0.11371   0.00000  Uiso   1.00
C87    C     0.63929   0.19035   0.45806   0.00000  Uiso   1.00
C88    C     0.36096   0.14185   0.04216   0.00000  Uiso   1.00
C89    C     0.65796   0.18224   0.41236   0.00000  Uiso   1.00
C90    C     0.34219   0.15020   0.08779   0.00000  Uiso   1.00
C91    C     0.57724   0.16167   0.40797   0.00000  Uiso   1.00
C92    C     0.42266   0.17167   0.09201   0.00000  Uiso   1.00
C93    C     0.55837   0.16846   0.45437   0.00000  Uiso   1.00
C94    C     0.44173   0.16428   0.04576   0.00000  Uiso   1.00
C95    C     0.59027   0.18393   0.47896   0.00000  Uiso   1.00
C96    C     0.40995   0.14842   0.02125   0.00000  Uiso   1.00
C97    C     0.50861   0.16142   0.47675   0.00000  Uiso   1.00
C98    C     0.49154   0.17115   0.02343   0.00000  Uiso   1.00
Cu99   Cu    0.38022   0.16667   0.25000   0.00000  Uiso   1.00
Cu100  Cu    0.61978   0.16666   0.25000   0.00000  Uiso   1.00
H101   H     0.59733   0.20573   0.04311   0.00000  Uiso   1.00
H102   H     0.40309   0.12599   0.45726   0.00000  Uiso   1.00
H103   H     0.44526   0.18271   0.11263   0.00000  Uiso   1.00
H104   H     0.55436   0.15145   0.38724   0.00000  Uiso   1.00
H105   H     0.66341   0.20155   0.47768   0.00000  Uiso   1.00
H106   H     0.33695   0.13028   0.02261   0.00000  Uiso   1.00
H107   H     0.51521   0.19616   0.08098   0.00000  Uiso   1.00
H108   H     0.48525   0.13559   0.41943   0.00000  Uiso   1.00
H109   H     0.59082   0.03729   0.24972   0.00000  Uiso   1.00
H110   H     0.40918   0.29604   0.25028   0.00000  Uiso   1.00
H111   H     0.59085   0.29604   0.24963   0.00000  Uiso   1.00
H112   H     0.40915   0.03730   0.25036   0.00000  Uiso   1.00
H113   H     0.53125   0.11610   0.29507   0.00000  Uiso   1.00
H114   H     0.46875   0.21723   0.20491   0.00000  Uiso   1.00
H115   H     0.44428   0.11599   0.29484   0.00000  Uiso   1.00
H116   H     0.55574   0.21731   0.20511   0.00000  Uiso   1.00
N117   N     0.45069   0.16668   0.24999   0.00000  Uiso   1.00
N118   N     0.54931   0.16666   0.25001   0.00000  Uiso   1.00
O119   O     0.37291   0.10655   0.25000   0.00000  Uiso   1.00
O120   O     0.62709   0.22678   0.25000   0.00000  Uiso   1.00
O121   O     0.62706   0.10654   0.25001   0.00000  Uiso   1.00
O122   O     0.37294   0.22679   0.24999   0.00000  Uiso   1.00
O123   O     0.35186   0.16668   0.31491   0.00000  Uiso   1.00
O124   O     0.64814   0.16666   0.18509   0.00000  Uiso   1.00
O125   O     0.60600   0.16667   0.31492   0.00000  Uiso   1.00
O126   O     0.39400   0.16667   0.18508   0.00000  Uiso   1.00
C127   C     0.62301   0.14313   0.10605   0.00000  Uiso   1.00
H128   H     0.60672   0.11496   0.09788   0.00000  Uiso   1.00
O129   O     0.59689   0.16996   0.12689   0.00000  Uiso   1.00
C130   C     0.37722   0.18884   0.39418   0.00000  Uiso   1.00
H131   H     0.39388   0.21677   0.40249   0.00000  Uiso   1.00
O132   O     0.40299   0.16187   0.37323   0.00000  Uiso   1.00
C133   C     0.99998   0.08734   0.25003   0.00000  Uiso   1.00
C134   C     0.66669   0.24599   0.24997   0.00000  Uiso   1.00
C135   C     0.85821   0.18736   0.04614   0.00000  Uiso   1.00
C136   C     0.80875   0.14482   0.45414   0.00000  Uiso   1.00
C137   C     0.90649   0.19326   0.02431   0.00000  Uiso   1.00
C138   C     0.76050   0.13879   0.47598   0.00000  Uiso   1.00
C139   C     0.95743   0.02128   0.24984   0.00000  Uiso   1.00
C140   C     0.70924   0.31205   0.25015   0.00000  Uiso   1.00
C141   C     0.95745   0.31205   0.24980   0.00000  Uiso   1.00
C142   C     0.70922   0.02128   0.25020   0.00000  Uiso   1.00
C143   C     0.66668   0.29060   0.24997   0.00000  Uiso   1.00
C144   C     0.99999   0.04274   0.25003   0.00000  Uiso   1.00
C145   C     0.85135   0.13856   0.27499   0.00000  Uiso   1.00
C146   C     0.81532   0.19477   0.22500   0.00000  Uiso   1.00
C147   C     0.80174   0.13853   0.27491   0.00000  Uiso   1.00
C148   C     0.86493   0.19479   0.22507   0.00000  Uiso   1.00
C149   C     0.97324   0.16695   0.33645   0.00000  Uiso   1.00
C150   C     0.69342   0.16633   0.16355   0.00000  Uiso   1.00
C151   C     0.95934   0.16925   0.38632   0.00000  Uiso   1.00
C152   C     0.70731   0.16380   0.11371   0.00000  Uiso   1.00
C153   C     0.97262   0.19035   0.45806   0.00000  Uiso   1.00
C154   C     0.69429   0.14185   0.04216   0.00000  Uiso   1.00
C155   C     0.99129   0.18224   0.41236   0.00000  Uiso   1.00
C156   C     0.67552   0.15020   0.08779   0.00000  Uiso   1.00
C157   C     0.91057   0.16167   0.40797   0.00000  Uiso   1.00
C158   C     0.75599   0.17167   0.09201   0.00000  Uiso   1.00
C159   C     0.89170   0.16846   0.45437   0.00000  Uiso   1.00
C160   C     0.77507   0.16428   0.04576   0.00000  Uiso   1.00
C161   C     0.92360   0.18393   0.47896   0.00000  Uiso   1.00
C162   C     0.74328   0.14842   0.02125   0.00000  Uiso   1.00
C163   C     0.84195   0.16142   0.47675   0.00000  Uiso   1.00
C164   C     0.82488   0.17115   0.02343   0.00000  Uiso   1.00
Cu165  Cu    0.71355   0.16667   0.25000   0.00000  Uiso   1.00
Cu166  Cu    0.95311   0.16666   0.25000   0.00000  Uiso   1.00
H167   H     0.93067   0.20573   0.04311   0.00000  Uiso   1.00
H168   H     0.73643   0.12599   0.45726   0.00000  Uiso   1.00
H169   H     0.77859   0.18271   0.11263   0.00000  Uiso   1.00
H170   H     0.88769   0.15145   0.38724   0.00000  Uiso   1.00
H171   H     0.99674   0.20155   0.47768   0.00000  Uiso   1.00
H172   H     0.67029   0.13028   0.02261   0.00000  Uiso   1.00
H173   H     0.84854   0.19616   0.08098   0.00000  Uiso   1.00
H174   H     0.81858   0.13559   0.41943   0.00000  Uiso   1.00
H175   H     0.92415   0.03729   0.24972   0.00000  Uiso   1.00
H176   H     0.74252   0.29604   0.25028   0.00000  Uiso   1.00
H177   H     0.92418   0.29604   0.24963   0.00000  Uiso   1.00
H178   H     0.74248   0.03730   0.25036   0.00000  Uiso   1.00
H179   H     0.86458   0.11610   0.29507   0.00000  Uiso   1.00
H180   H     0.80209   0.21723   0.20491   0.00000  Uiso   1.00
H181   H     0.77761   0.11599   0.29484   0.00000  Uiso   1.00
H182   H     0.88907   0.21731   0.20511   0.00000  Uiso   1.00
N183   N     0.78403   0.16668   0.24999   0.00000  Uiso   1.00
N184   N     0.88264   0.16666   0.25001   0.00000  Uiso   1.00
O185   O     0.70625   0.10655   0.25000   0.00000  Uiso   1.00
O186   O     0.96042   0.22678   0.25000   0.00000  Uiso   1.00
O187   O     0.96039   0.10654   0.25001   0.00000  Uiso   1.00
O188   O     0.70628   0.22679   0.24999   0.00000  Uiso   1.00
O189   O     0.68519   0.16668   0.31491   0.00000  Uiso   1.00
O190   O     0.98148   0.16666   0.18509   0.00000  Uiso   1.00
O191   O     0.93933   0.16667   0.31492   0.00000  Uiso   1.00
O192   O     0.72733   0.16667   0.18508   0.00000  Uiso   1.00
C193   C     0.95635   0.14313   0.10605   0.00000  Uiso   1.00
H194   H     0.94005   0.11496   0.09788   0.00000  Uiso   1.00
O195   O     0.93023   0.16996   0.12689   0.00000  Uiso   1.00
C196   C     0.71056   0.18884   0.39418   0.00000  Uiso   1.00
H197   H     0.72722   0.21677   0.40249   0.00000  Uiso   1.00
O198   O     0.73632   0.16187   0.37323   0.00000  Uiso   1.00
C199   C     0.33331   0.42068   0.25003   0.00000  Uiso   1.00
C200   C     0.00002   0.57932   0.24997   0.00000  Uiso   1.00
C201   C     0.19154   0.52070   0.04614   0.00000  Uiso   1.00
C202   C     0.14208   0.47816   0.45414   0.00000  Uiso   1.00
C203   C     0.23982   0.52659   0.02431   0.00000  Uiso   1.00
C204   C     0.09383   0.47213   0.47598   0.00000  Uiso   1.00
C205   C     0.29077   0.35462   0.24984   0.00000  Uiso   1.00
C206   C     0.04257   0.64539   0.25015   0.00000  Uiso   1.00
C207   C     0.29078   0.64538   0.24980   0.00000  Uiso   1.00
C208   C     0.04255   0.35462   0.25020   0.00000  Uiso   1.00
C209   C     0.00001   0.62393   0.24997   0.00000  Uiso   1.00
C210   C     0.33332   0.37607   0.25003   0.00000  Uiso   1.00
C211   C     0.18468   0.47190   0.27499   0.00000  Uiso   1.00
C212   C     0.14866   0.52810   0.22500   0.00000  Uiso   1.00
C213   C     0.13508   0.47186   0.27491   0.00000  Uiso   1.00
C214   C     0.19826   0.52812   0.22507   0.00000  Uiso   1.00
C215   C     0.30658   0.50028   0.33645   0.00000  Uiso   1.00
C216   C     0.02675   0.49967   0.16355   0.00000  Uiso   1.00
C217   C     0.29267   0.50259   0.38632   0.00000  Uiso   1.00
C218   C     0.04065   0.49713   0.11371   0.00000  Uiso   1.00
C219   C     0.30596   0.52368   0.45806   0.00000  Uiso   1.00
C220   C     0.02762   0.47518   0.04216   0.00000  Uiso   1.00
C221   C     0.32462   0.51557   0.41236   0.00000  Uiso   1.00
C222   C     0.00886   0.48353   0.08779   0.00000  Uiso   1.00
C223   C     0.24391   0.49500   0.40797   0.00000  Uiso   1.00
C224   C     0.08933   0.50500   0.09201   0.00000  Uiso   1.00
C225   C     0.22503   0.50179   0.45437   0.00000  Uiso   1.00
C226   C     0.10840   0.49761   0.04576   0.00000  Uiso   1.00
C227   C     0.25694   0.51726   0.47896   0.00000  Uiso   1.00
C228   C     0.07661   0.48175   0.02125   0.00000  Uiso   1.00
C229   C     0.17528   0.49476   0.47675   0.00000  Uiso   1.00
C230   C     0.15821   0.50448   0.02343   0.00000  Uiso   1.00
Cu231  Cu    0.04689   0.50001   0.25000   0.00000  Uiso   1.00
Cu232  Cu    0.28645   0.49999   0.25000   0.00000  Uiso   1.00
H233   H     0.26400   0.53906   0.04311   0.00000  Uiso   1.00
H234   H     0.06976   0.45932   0.45726   0.00000  Uiso   1.00
H235   H     0.11192   0.51604   0.11263   0.00000  Uiso   1.00
H236   H     0.22103   0.48478   0.38724   0.00000  Uiso   1.00
H237   H     0.33008   0.53488   0.47768   0.00000  Uiso   1.00
H238   H     0.00362   0.46362   0.02261   0.00000  Uiso   1.00
H239   H     0.18188   0.52949   0.08098   0.00000  Uiso   1.00
H240   H     0.15191   0.46892   0.41943   0.00000  Uiso   1.00
H241   H     0.25749   0.37063   0.24972   0.00000  Uiso   1.00
H242   H     0.07585   0.62938   0.25028   0.00000  Uiso   1.00
H243   H     0.25752   0.62937   0.24963   0.00000  Uiso   1.00
H244   H     0.07582   0.37063   0.25036   0.00000  Uiso   1.00
H245   H     0.19792   0.44943   0.29507   0.00000  Uiso   1.00
H246   H     0.13542   0.55056   0.20491   0.00000  Uiso   1.00
H247   H     0.11094   0.44932   0.29484   0.00000  Uiso   1.00
H248   H     0.22241   0.55065   0.20511   0.00000  Uiso   1.00
N249   N     0.11736   0.50001   0.24999   0.00000  Uiso   1.00
N250   N     0.21597   0.49999   0.25001   0.00000  Uiso   1.00
O251   O     0.03958   0.43989   0.25000   0.00000  Uiso   1.00
O252   O     0.29375   0.56011   0.25000   0.00000  Uiso   1.00
O253   O     0.29372   0.43988   0.25001   0.00000  Uiso   1.00
O254   O     0.03961   0.56012   0.24999   0.00000  Uiso   1.00
O255   O     0.01852   0.50001   0.31491   0.00000  Uiso   1.00
O256   O     0.31481   0.49999   0.18509   0.00000  Uiso   1.00
O257   O     0.27267   0.50000   0.31492   0.00000  Uiso   1.00
O258   O     0.06067   0.50000   0.18508   0.00000  Uiso   1.00
C259   C     0.28968   0.47647   0.10605   0.00000  Uiso   1.00
H260   H     0.27339   0.44829   0.09788   0.00000  Uiso   1.00
O261   O     0.26356   0.50329   0.12689   0.00000  Uiso   1.00
C262   C     0.04389   0.52218   0.39418   0.00000  Uiso   1.00
H263   H     0.06055   0.55011   0.40249   0.00000  Uiso   1.00
O264   O     0.06965   0.49520   0.37323   0.00000  Uiso   1.00
C265   C     0.66665   0.42068   0.25003   0.00000  Uiso   1.00
C266   C     0.33335   0.57932   0.24997   0.00000  Uiso   1.00
C267   C     0.52487   0.52070   0.04614   0.00000  Uiso   1.00
C268   C     0.47541   0.47816   0.45414   0.00000  Uiso   1.00
C269   C     0.57316   0.52659   0.02431   0.00000  Uiso   1.00
C270   C     0.42716   0.47213   0.47598   0.00000  Uiso   1.00
C271   C     0.62410   0.35462   0.24984   0.00000  Uiso   1.00
C272   C     0.37590   0.64539   0.25015   0.00000  Uiso   1.00
C273   C     0.62412   0.64538   0.24980   0.00000  Uiso   1.00
C274   C     0.37589   0.35462   0.25020   0.00000  Uiso   1.00
C275   C     0.33335   0.62393   0.24997   0.00000  Uiso   1.00
C276   C     0.66665   0.37607   0.25003   0.00000  Uiso   1.00
C277   C     0.51801   0.47190   0.27499   0.00000  Uiso   1.00
C278   C     0.48199   0.52810   0.22500   0.00000  Uiso   1.00
C279   C     0.46841   0.47186   0.27491   0.00000  Uiso   1.00
C280   C     0.53159   0.52812   0.22507   0.00000  Uiso   1.00
C281   C     0.63991   0.50028   0.33645   0.00000  Uiso   1.00
C282   C     0.36008   0.49967   0.16355   0.00000  Uiso   1.00
C283   C     0.62601   0.50259   0.38632   0.00000  Uiso   1.00
C284   C     0.37398   0.49713   0.11371   0.00000  Uiso   1.00
C285   C     0.63929   0.52368   0.45806   0.00000  Uiso   1.00
C286   C     0.36096   0.47518   0.04216   0.00000  Uiso   1.00
C287   C     0.65796   0.51557   0.41236   0.00000  Uiso   1.00
C288   C     0.34219   0.48353   0.08779   0.00000  Uiso   1.00
C289   C     0.57724   0.49500   0.40797   0.00000  Uiso   1.00
C290   C     0.42266   0.50500   0.09201   0.00000  Uiso   1.00
C291   C     0.55837   0.50179   0.45437   0.00000  Uiso   1.00
C292   C     0.44173   0.49761   0.04576   0.00000  Uiso   1.00
C293   C     0.59027   0.51726   0.47896   0.00000  Uiso   1.00
C294   C     0.40995   0.48175   0.02125   0.00000  Uiso   1.00
C295   C     0.50861   0.49476   0.47675   0.00000  Uiso   1.00
C296   C     0.49154   0.50448   0.02343   0.00000  Uiso   1.00
Cu297  Cu    0.38022   0.50001   0.25000   0.00000  Uiso   1.00
Cu298  Cu    0.61978   0.49999   0.25000   0.00000  Uiso   1.00
H299   H     0.59733   0.53906   0.04311   0.00000  Uiso   1.00
H300   H     0.40309   0.45932   0.45726   0.00000  Uiso   1.00
H301   H     0.44526   0.51604   0.11263   0.00000  Uiso   1.00
H302   H     0.55436   0.48478   0.38724   0.00000  Uiso   1.00
H303   H     0.66341   0.53488   0.47768   0.00000  Uiso   1.00
H304   H     0.33695   0.46362   0.02261   0.00000  Uiso   1.00
H305   H     0.51521   0.52949   0.08098   0.00000  Uiso   1.00
H306   H     0.48525   0.46892   0.41943   0.00000  Uiso   1.00
H307   H     0.59082   0.37063   0.24972   0.00000  Uiso   1.00
H308   H     0.40918   0.62938   0.25028   0.00000  Uiso   1.00
H309   H     0.59085   0.62937   0.24963   0.00000  Uiso   1.00
H310   H     0.40915   0.37063   0.25036   0.00000  Uiso   1.00
H311   H     0.53125   0.44943   0.29507   0.00000  Uiso   1.00
H312   H     0.46875   0.55056   0.20491   0.00000  Uiso   1.00
H313   H     0.44428   0.44932   0.29484   0.00000  Uiso   1.00
H314   H     0.55574   0.55065   0.20511   0.00000  Uiso   1.00
N315   N     0.45069   0.50001   0.24999   0.00000  Uiso   1.00
N316   N     0.54931   0.49999   0.25001   0.00000  Uiso   1.00
O317   O     0.37291   0.43989   0.25000   0.00000  Uiso   1.00
O318   O     0.62709   0.56011   0.25000   0.00000  Uiso   1.00
O319   O     0.62706   0.43988   0.25001   0.00000  Uiso   1.00
O320   O     0.37294   0.56012   0.24999   0.00000  Uiso   1.00
O321   O     0.35186   0.50001   0.31491   0.00000  Uiso   1.00
O322   O     0.64814   0.49999   0.18509   0.00000  Uiso   1.00
O323   O     0.60600   0.50000   0.31492   0.00000  Uiso   1.00
O324   O     0.39400   0.50000   0.18508   0.00000  Uiso   1.00
C325   C     0.62301   0.47647   0.10605   0.00000  Uiso   1.00
H326   H     0.60672   0.44829   0.09788   0.00000  Uiso   1.00
O327   O     0.59689   0.50329   0.12689   0.00000  Uiso   1.00
C328   C     0.37722   0.52218   0.39418   0.00000  Uiso   1.00
H329   H     0.39388   0.55011   0.40249   0.00000  Uiso   1.00
O330   O     0.40299   0.49520   0.37323   0.00000  Uiso   1.00
C331   C     0.99998   0.42068   0.25003   0.00000  Uiso   1.00
C332   C     0.66669   0.57932   0.24997   0.00000  Uiso   1.00
C333   C     0.85821   0.52070   0.04614   0.00000  Uiso   1.00
C334   C     0.80875   0.47816   0.45414   0.00000  Uiso   1.00
C335   C     0.90649   0.52659   0.02431   0.00000  Uiso   1.00
C336   C     0.76050   0.47213   0.47598   0.00000  Uiso   1.00
C337   C     0.95743   0.35462   0.24984   0.00000  Uiso   1.00
C338   C     0.70924   0.64539   0.25015   0.00000  Uiso   1.00
C339   C     0.95745   0.64538   0.24980   0.00000  Uiso   1.00
C340   C     0.70922   0.35462   0.25020   0.00000  Uiso   1.00
C341   C     0.66668   0.62393   0.24997   0.00000  Uiso   1.00
C342   C     0.99999   0.37607   0.25003   0.00000  Uiso   1.00
C343   C     0.85135   0.47190   0.27499   0.00000  Uiso   1.00
C344   C     0.81532   0.52810   0.22500   0.00000  Uiso   1.00
C345   C     0.80174   0.47186   0.27491   0.00000  Uiso   1.00
C346   C     0.86493   0.52812   0.22507   0.00000  Uiso   1.00
C347   C     0.97324   0.50028   0.33645   0.00000  Uiso   1.00
C348   C     0.69342   0.49967   0.16355   0.00000  Uiso   1.00
C349   C     0.95934   0.50259   0.38632   0.00000  Uiso   1.00
C350   C     0.70731   0.49713   0.11371   0.00000  Uiso   1.00
C351   C     0.97262   0.52368   0.45806   0.00000  Uiso   1.00
C352   C     0.69429   0.47518   0.04216   0.00000  Uiso   1.00
C353   C     0.99129   0.51557   0.41236   0.00000  Uiso   1.00
C354   C     0.67552   0.48353   0.08779   0.00000  Uiso   1.00
C355   C     0.91057   0.49500   0.40797   0.00000  Uiso   1.00
C356   C     0.75599   0.50500   0.09201   0.00000  Uiso   1.00
C357   C     0.89170   0.50179   0.45437   0.00000  Uiso   1.00
C358   C     0.77507   0.49761   0.04576   0.00000  Uiso   1.00
C359   C     0.92360   0.51726   0.47896   0.00000  Uiso   1.00
C360   C     0.74328   0.48175   0.02125   0.00000  Uiso   1.00
C361   C     0.84195   0.49476   0.47675   0.00000  Uiso   1.00
C362   C     0.82488   0.50448   0.02343   0.00000  Uiso   1.00
Cu363  Cu    0.71355   0.50001   0.25000   0.00000  Uiso   1.00
Cu364  Cu    0.95311   0.49999   0.25000   0.00000  Uiso   1.00
H365   H     0.93067   0.53906   0.04311   0.00000  Uiso   1.00
H366   H     0.73643   0.45932   0.45726   0.00000  Uiso   1.00
H367   H     0.77859   0.51604   0.11263   0.00000  Uiso   1.00
H368   H     0.88769   0.48478   0.38724   0.00000  Uiso   1.00
H369   H     0.99674   0.53488   0.47768   0.00000  Uiso   1.00
H370   H     0.67029   0.46362   0.02261   0.00000  Uiso   1.00
H371   H     0.84854   0.52949   0.08098   0.00000  Uiso   1.00
H372   H     0.81858   0.46892   0.41943   0.00000  Uiso   1.00
H373   H     0.92415   0.37063   0.24972   0.00000  Uiso   1.00
H374   H     0.74252   0.62938   0.25028   0.00000  Uiso   1.00
H375   H     0.92418   0.62937   0.24963   0.00000  Uiso   1.00
H376   H     0.74248   0.37063   0.25036   0.00000  Uiso   1.00
H377   H     0.86458   0.44943   0.29507   0.00000  Uiso   1.00
H378   H     0.80209   0.55056   0.20491   0.00000  Uiso   1.00
H379   H     0.77761   0.44932   0.29484   0.00000  Uiso   1.00
H380   H     0.88907   0.55065   0.20511   0.00000  Uiso   1.00
N381   N     0.78403   0.50001   0.24999   0.00000  Uiso   1.00
N382   N     0.88264   0.49999   0.25001   0.00000  Uiso   1.00
O383   O     0.70625   0.43989   0.25000   0.00000  Uiso   1.00
O384   O     0.96042   0.56011   0.25000   0.00000  Uiso   1.00
O385   O     0.96039   0.43988   0.25001   0.00000  Uiso   1.00
O386   O     0.70628   0.56012   0.24999   0.00000  Uiso   1.00
O387   O     0.68519   0.50001   0.31491   0.00000  Uiso   1.00
O388   O     0.98148   0.49999   0.18509   0.00000  Uiso   1.00
O389   O     0.93933   0.50000   0.31492   0.00000  Uiso   1.00
O390   O     0.72733   0.50000   0.18508   0.00000  Uiso   1.00
C391   C     0.95635   0.47647   0.10605   0.00000  Uiso   1.00
H392   H     0.94005   0.44829   0.09788   0.00000  Uiso   1.00
O393   O     0.93023   0.50329   0.12689   0.00000  Uiso   1.00
C394   C     0.71056   0.52218   0.39418   0.00000  Uiso   1.00
H395   H     0.72722   0.55011   0.40249   0.00000  Uiso   1.00
O396   O     0.73632   0.49520   0.37323   0.00000  Uiso   1.00
C397   C     0.33331   0.75401   0.25003   0.00000  Uiso   1.00
C398   C     0.00002   0.91266   0.24997   0.00000  Uiso   1.00
C399   C     0.19154   0.85403   0.04614   0.00000  Uiso   1.00
C400   C     0.14208   0.81149   0.45414   0.00000  Uiso   1.00
C401   C     0.23982   0.85993   0.02431   0.00000  Uiso   1.00
C402   C     0.09383   0.80546   0.47598   0.00000  Uiso   1.00
C403   C     0.29077   0.68795   0.24984   0.00000  Uiso   1.00
C404   C     0.04257   0.97872   0.25015   0.00000  Uiso   1.00
C405   C     0.29078   0.97872   0.24980   0.00000  Uiso   1.00
C406   C     0.04255   0.68795   0.25020   0.00000  Uiso   1.00
C407   C     0.00001   0.95727   0.24997   0.00000  Uiso   1.00
C408   C     0.33332   0.70940   0.25003   0.00000  Uiso   1.00
C409   C     0.18468   0.80523   0.27499   0.00000  Uiso   1.00
C410   C     0.14866   0.86143   0.22500   0.00000  Uiso   1.00
C411   C     0.13508   0.80520   0.27491   0.00000  Uiso   1.00
C412   C     0.19826   0.86146   0.22507   0.00000  Uiso   1.00
C413   C     0.30658   0.83361   0.33645   0.00000  Uiso   1.00
C414   C     0.02675   0.83300   0.16355   0.00000  Uiso   1.00
C415   C     0.29267   0.83592   0.38632   0.00000  Uiso   1.00
C416   C     0.04065   0.83046   0.11371   0.00000  Uiso   1.00
C417   C     0.30596   0.85702   0.45806   0.00000  Uiso   1.00
C418   C     0.02762   0.80852   0.04216   0.00000  Uiso   1.00
C419   C     0.32462   0.84891   0.41236   0.00000  Uiso   1.00
C420   C     0.00886   0.81686   0.08779   0.00000  Uiso   1.00
C421   C     0.24391   0.82834   0.40797   0.00000  Uiso   1.00
C422   C     0.08933   0.83833   0.09201   0.00000  Uiso   1.00
C423   C     0.22503   0.83513   0.45437   0.00000  Uiso   1.00
C424   C     0.10840   0.83094   0.04576   0.00000  Uiso   1.00
C425   C     0.25694   0.85059   0.47896   0.00000  Uiso   1.00
C426   C     0.07661   0.81509   0.02125   0.00000  Uiso   1.00
C427   C     0.17528   0.82809   0.47675   0.00000  Uiso   1.00
C428   C     0.15821   0.83782   0.02343   0.00000  Uiso   1.00
Cu429  Cu    0.04689   0.83334   0.25000   0.00000  Uiso   1.00
Cu430  Cu    0.28645   0.83333   0.25000   0.00000  Uiso   1.00
H431   H     0.26400   0.87240   0.04311   0.00000  Uiso   1.00
H432   H     0.06976   0.79265   0.45726   0.00000  Uiso   1.00
H433   H     0.11192   0.84938   0.11263   0.00000  Uiso   1.00
H434   H     0.22103   0.81812   0.38724   0.00000  Uiso   1.00
H435   H     0.33008   0.86821   0.47768   0.00000  Uiso   1.00
H436   H     0.00362   0.79695   0.02261   0.00000  Uiso   1.00
H437   H     0.18188   0.86282   0.08098   0.00000  Uiso   1.00
H438   H     0.15191   0.80225   0.41943   0.00000  Uiso   1.00
H439   H     0.25749   0.70396   0.24972   0.00000  Uiso   1.00
H440   H     0.07585   0.96271   0.25028   0.00000  Uiso   1.00
H441   H     0.25752   0.96270   0.24963   0.00000  Uiso   1.00
H442   H     0.07582   0.70396   0.25036   0.00000  Uiso   1.00
H443   H     0.19792   0.78276   0.29507   0.00000  Uiso   1.00
H444   H     0.13542   0.88390   0.20491   0.00000  Uiso   1.00
H445   H     0.11094   0.78265   0.29484   0.00000  Uiso   1.00
H446   H     0.22241   0.88398   0.20511   0.00000  Uiso   1.00
N447   N     0.11736   0.83334   0.24999   0.00000  Uiso   1.00
N448   N     0.21597   0.83332   0.25001   0.00000  Uiso   1.00
O449   O     0.03958   0.77322   0.25000   0.00000  Uiso   1.00
O450   O     0.29375   0.89345   0.25000   0.00000  Uiso   1.00
O451   O     0.29372   0.77321   0.25001   0.00000  Uiso   1.00
O452   O     0.03961   0.89346   0.24999   0.00000  Uiso   1.00
O453   O     0.01852   0.83334   0.31491   0.00000  Uiso   1.00
O454   O     0.31481   0.83332   0.18509   0.00000  Uiso   1.00
O455   O     0.27267   0.83333   0.31492   0.00000  Uiso   1.00
O456   O     0.06067   0.83333   0.18508   0.00000  Uiso   1.00
C457   C     0.28968   0.80980   0.10605   0.00000  Uiso   1.00
H458   H     0.27339   0.78163   0.09788   0.00000  Uiso   1.00
O459   O     0.26356   0.83662   0.12689   0.00000  Uiso   1.00
C460   C     0.04389   0.85551   0.39418   0.00000  Uiso   1.00
H461   H     0.06055   0.88344   0.40249   0.00000  Uiso   1.00
O462   O     0.06965   0.82853   0.37323   0.00000  Uiso   1.00
C463   C     0.66665   0.75401   0.25003   0.00000  Uiso   1.00
C464   C     0.33335   0.91266   0.24997   0.00000  Uiso   1.00
C465   C     0.52487   0.85403   0.04614   0.00000  Uiso   1.00
C466   C     0.47541   0.81149   0.45414   0.00000  Uiso   1.00
C467   C     0.57316   0.85993   0.02431   0.00000  Uiso   1.00
C468   C     0.42716   0.80546   0.47598   0.00000  Uiso   1.00
C469   C     0.62410   0.68795   0.24984   0.00000  Uiso   1.00
C470   C     0.37590   0.97872   0.25015   0.00000  Uiso   1.00
C471   C     0.62412   0.97872   0.24980   0.00000  Uiso   1.00
C472   C     0.37589   0.68795   0.25020   0.00000  Uiso   1.00
C473   C     0.33335   0.95727   0.24997   0.00000  Uiso   1.00
C474   C     0.66665   0.70940   0.25003   0.00000  Uiso   1.00
C475   C     0.51801   0.80523   0.27499   0.00000  Uiso   1.00
C476   C     0.48199   0.86143   0.22500   0.00000  Uiso   1.00
C477   C     0.46841   0.80520   0.27491   0.00000  Uiso   1.00
C478   C     0.53159   0.86146   0.22507   0.00000  Uiso   1.00
C479   C     0.63991   0.83361   0.33645   0.00000  Uiso   1.00
C480   C     0.36008   0.83300   0.16355   0.00000  Uiso   1.00
C481   C     0.62601   0.83592   0.38632   0.00000  Uiso   1.00
C482   C     0.37398   0.83046   0.11371   0.00000  Uiso   1.00
C483   C     0.63929   0.85702   0.45806   0.00000  Uiso   1.00
C484   C     0.36096   0.80852   0.04216   0.00000  Uiso   1.00
C485   C     0.65796   0.84891   0.41236   0.00000  Uiso   1.00
C486   C     0.34219   0.81686   0.08779   0.00000  Uiso   1.00
C487   C     0.57724   0.82834   0.40797   0.00000  Uiso   1.00
C488   C     0.42266   0.83833   0.09201   0.00000  Uiso   1.00
C489   C     0.55837   0.83513   0.45437   0.00000  Uiso   1.00
C490   C     0.44173   0.83094   0.04576   0.00000  Uiso   1.00
C491   C     0.59027   0.85059   0.47896   0.00000  Uiso   1.00
C492   C     0.40995   0.81509   0.02125   0.00000  Uiso   1.00
C493   C     0.50861   0.82809   0.47675   0.00000  Uiso   1.00
C494   C     0.49154   0.83782   0.02343   0.00000  Uiso   1.00
Cu495  Cu    0.38022   0.83334   0.25000   0.00000  Uiso   1.00
Cu496  Cu    0.61978   0.83333   0.25000   0.00000  Uiso   1.00
H497   H     0.59733   0.87240   0.04311   0.00000  Uiso   1.00
H498   H     0.40309   0.79265   0.45726   0.00000  Uiso   1.00
H499   H     0.44526   0.84938   0.11263   0.00000  Uiso   1.00
H500   H     0.55436   0.81812   0.38724   0.00000  Uiso   1.00
H501   H     0.66341   0.86821   0.47768   0.00000  Uiso   1.00
H502   H     0.33695   0.79695   0.02261   0.00000  Uiso   1.00
H503   H     0.51521   0.86282   0.08098   0.00000  Uiso   1.00
H504   H     0.48525   0.80225   0.41943   0.00000  Uiso   1.00
H505   H     0.59082   0.70396   0.24972   0.00000  Uiso   1.00
H506   H     0.40918   0.96271   0.25028   0.00000  Uiso   1.00
H507   H     0.59085   0.96270   0.24963   0.00000  Uiso   1.00
H508   H     0.40915   0.70396   0.25036   0.00000  Uiso   1.00
H509   H     0.53125   0.78276   0.29507   0.00000  Uiso   1.00
H510   H     0.46875   0.88390   0.20491   0.00000  Uiso   1.00
H511   H     0.44428   0.78265   0.29484   0.00000  Uiso   1.00
H512   H     0.55574   0.88398   0.20511   0.00000  Uiso   1.00
N513   N     0.45069   0.83334   0.24999   0.00000  Uiso   1.00
N514   N     0.54931   0.83332   0.25001   0.00000  Uiso   1.00
O515   O     0.37291   0.77322   0.25000   0.00000  Uiso   1.00
O516   O     0.62709   0.89345   0.25000   0.00000  Uiso   1.00
O517   O     0.62706   0.77321   0.25001   0.00000  Uiso   1.00
O518   O     0.37294   0.89346   0.24999   0.00000  Uiso   1.00
O519   O     0.35186   0.83334   0.31491   0.00000  Uiso   1.00
O520   O     0.64814   0.83332   0.18509   0.00000  Uiso   1.00
O521   O     0.60600   0.83333   0.31492   0.00000  Uiso   1.00
O522   O     0.39400   0.83333   0.18508   0.00000  Uiso   1.00
C523   C     0.62301   0.80980   0.10605   0.00000  Uiso   1.00
H524   H     0.60672   0.78163   0.09788   0.00000  Uiso   1.00
O525   O     0.59689   0.83662   0.12689   0.00000  Uiso   1.00
C526   C     0.37722   0.85551   0.39418   0.00000  Uiso   1.00
H527   H     0.39388   0.88344   0.40249   0.00000  Uiso   1.00
O528   O     0.40299   0.82853   0.37323   0.00000  Uiso   1.00
C529   C     0.99998   0.75401   0.25003   0.00000  Uiso   1.00
C530   C     0.66669   0.91266   0.24997   0.00000  Uiso   1.00
C531   C     0.85821   0.85403   0.04614   0.00000  Uiso   1.00
C532   C     0.80875   0.81149   0.45414   0.00000  Uiso   1.00
C533   C     0.90649   0.85993   0.02431   0.00000  Uiso   1.00
C534   C     0.76050   0.80546   0.47598   0.00000  Uiso   1.00
C535   C     0.95743   0.68795   0.24984   0.00000  Uiso   1.00
C536   C     0.70924   0.97872   0.25015   0.00000  Uiso   1.00
C537   C     0.95745   0.97872   0.24980   0.00000  Uiso   1.00
C538   C     0.70922   0.68795   0.25020   0.00000  Uiso   1.00
C539   C     0.66668   0.95727   0.24997   0.00000  Uiso   1.00
C540   C     0.99999   0.70940   0.25003   0.00000  Uiso   1.00
C541   C     0.85135   0.80523   0.27499   0.00000  Uiso   1.00
C542   C     0.81532   0.86143   0.22500   0.00000  Uiso   1.00
C543   C     0.80174   0.80520   0.27491   0.00000  Uiso   1.00
C544   C     0.86493   0.86146   0.22507   0.00000  Uiso   1.00
C545   C     0.97324   0.83361   0.33645   0.00000  Uiso   1.00
C546   C     0.69342   0.83300   0.16355   0.00000  Uiso   1.00
C547   C     0.95934   0.83592   0.38632   0.00000  Uiso   1.00
C548   C     0.70731   0.83046   0.11371   0.00000  Uiso   1.00
C549   C     0.97262   0.85702   0.45806   0.00000  Uiso   1.00
C550   C     0.69429   0.80852   0.04216   0.00000  Uiso   1.00
C551   C     0.99129   0.84891   0.41236   0.00000  Uiso   1.00
C552   C     0.67552   0.81686   0.08779   0.00000  Uiso   1.00
C553   C     0.91057   0.82834   0.40797   0.00000  Uiso   1.00
C554   C     0.75599   0.83833   0.09201   0.00000  Uiso   1.00
C555   C     0.89170   0.83513   0.45437   0.00000  Uiso   1.00
C556   C     0.77507   0.83094   0.04576   0.00000  Uiso   1.00
C557   C     0.92360   0.85059   0.47896   0.00000  Uiso   1.00
C558   C     0.74328   0.81509   0.02125   0.00000  Uiso   1.00
C559   C     0.84195   0.82809   0.47675   0.00000  Uiso   1.00
C560   C     0.82488   0.83782   0.02343   0.00000  Uiso   1.00
Cu561  Cu    0.71355   0.83334   0.25000   0.00000  Uiso   1.00
Cu562  Cu    0.95311   0.83333   0.25000   0.00000  Uiso   1.00
H563   H     0.93067   0.87240   0.04311   0.00000  Uiso   1.00
H564   H     0.73643   0.79265   0.45726   0.00000  Uiso   1.00
H565   H     0.77859   0.84938   0.11263   0.00000  Uiso   1.00
H566   H     0.88769   0.81812   0.38724   0.00000  Uiso   1.00
H567   H     0.99674   0.86821   0.47768   0.00000  Uiso   1.00
H568   H     0.67029   0.79695   0.02261   0.00000  Uiso   1.00
H569   H     0.84854   0.86282   0.08098   0.00000  Uiso   1.00
H570   H     0.81858   0.80225   0.41943   0.00000  Uiso   1.00
H571   H     0.92415   0.70396   0.24972   0.00000  Uiso   1.00
H572   H     0.74252   0.96271   0.25028   0.00000  Uiso   1.00
H573   H     0.92418   0.96270   0.24963   0.00000  Uiso   1.00
H574   H     0.74248   0.70396   0.25036   0.00000  Uiso   1.00
H575   H     0.86458   0.78276   0.29507   0.00000  Uiso   1.00
H576   H     0.80209   0.88390   0.20491   0.00000  Uiso   1.00
H577   H     0.77761   0.78265   0.29484   0.00000  Uiso   1.00
H578   H     0.88907   0.88398   0.20511   0.00000  Uiso   1.00
N579   N     0.78403   0.83334   0.24999   0.00000  Uiso   1.00
N580   N     0.88264   0.83332   0.25001   0.00000  Uiso   1.00
O581   O     0.70625   0.77322   0.25000   0.00000  Uiso   1.00
O582   O     0.96042   0.89345   0.25000   0.00000  Uiso   1.00
O583   O     0.96039   0.77321   0.25001   0.00000  Uiso   1.00
O584   O     0.70628   0.89346   0.24999   0.00000  Uiso   1.00
O585   O     0.68519   0.83334   0.31491   0.00000  Uiso   1.00
O586   O     0.98148   0.83332   0.18509   0.00000  Uiso   1.00
O587   O     0.93933   0.83333   0.31492   0.00000  Uiso   1.00
O588   O     0.72733   0.83333   0.18508   0.00000  Uiso   1.00
C589   C     0.95635   0.80980   0.10605   0.00000  Uiso   1.00
H590   H     0.94005   0.78163   0.09788   0.00000  Uiso   1.00
O591   O     0.93023   0.83662   0.12689   0.00000  Uiso   1.00
C592   C     0.71056   0.85551   0.39418   0.00000  Uiso   1.00
H593   H     0.72722   0.88344   0.40249   0.00000  Uiso   1.00
O594   O     0.73632   0.82853   0.37323   0.00000  Uiso   1.00
C595   C     0.33331   0.08734   0.75003   0.00000  Uiso   1.00
C596   C     0.00002   0.24599   0.74997   0.00000  Uiso   1.00
C597   C     0.19154   0.18736   0.54614   0.00000  Uiso   1.00
C598   C     0.14208   0.14482   0.95414   0.00000  Uiso   1.00
C599   C     0.23982   0.19326   0.52431   0.00000  Uiso   1.00
C600   C     0.09383   0.13879   0.97598   0.00000  Uiso   1.00
C601   C     0.29077   0.02128   0.74984   0.00000  Uiso   1.00
C602   C     0.04257   0.31205   0.75015   0.00000  Uiso   1.00
C603   C     0.29078   0.31205   0.74980   0.00000  Uiso   1.00
C604   C     0.04255   0.02128   0.75020   0.00000  Uiso   1.00
C605   C     0.00001   0.29060   0.74997   0.00000  Uiso   1.00
C606   C     0.33332   0.04274   0.75003   0.00000  Uiso   1.00
C607   C     0.18468   0.13856   0.77499   0.00000  Uiso   1.00
C608   C     0.14866   0.19477   0.72500   0.00000  Uiso   1.00
C609   C     0.13508   0.13853   0.77491   0.00000  Uiso   1.00
C610   C     0.19826   0.19479   0.72507   0.00000  Uiso   1.00
C611   C     0.30658   0.16695   0.83645   0.00000  Uiso   1.00
C612   C     0.02675   0.16633   0.66355   0.00000  Uiso   1.00
C613   C     0.29267   0.16925   0.88632   0.00000  Uiso   1.00
C614   C     0.04065   0.16380   0.61371   0.00000  Uiso   1.00
C615   C     0.30596   0.19035   0.95806   0.00000  Uiso   1.00
C616   C     0.02762   0.14185   0.54216   0.00000  Uiso   1.00
C617   C     0.32462   0.18224   0.91236   0.00000  Uiso   1.00
C618   C     0.00886   0.15020   0.58779   0.00000  Uiso   1.00
C619   C     0.24391   0.16167   0.90797   0.00000  Uiso   1.00
C620   C     0.08933   0.17167   0.59201   0.00000  Uiso   1.00
C621   C     0.22503   0.16846   0.95437   0.00000  Uiso   1.00
C622   C     0.10840   0.16428   0.54576   0.00000  Uiso   1.00
C623   C     0.25694   0.18393   0.97896   0.00000  Uiso   1.00
C624   C     0.07661   0.14842   0.52125   0.00000  Uiso   1.00
C625   C     0.17528   0.16142   0.97675   0.00000  Uiso   1.00
C626   C     0.15821   0.17115   0.52343   0.00000  Uiso   1.00
Cu627  Cu    0.04689   0.16667   0.75000   0.00000  Uiso   1.00
Cu628  Cu    0.28645   0.16666   0.75000   0.00000  Uiso   1.00
H629   H     0.26400   0.20573   0.54311   0.00000  Uiso   1.00
H630   H     0.06976   0.12599   0.95726   0.00000  Uiso   1.00
H631   H     0.11192   0.18271   0.61263   0.00000  Uiso   1.00
H632   H     0.22103   0.15145   0.88724   0.00000  Uiso   1.00
H633   H     0.33008   0.20155   0.97768   0.00000  Uiso   1.00
H634   H     0.00362   0.13028   0.52261   0.00000  Uiso   1.00
H635   H     0.18188   0.19616   0.58098   0.00000  Uiso   1.00
H636   H     0.15191   0.13559   0.91943   0.00000  Uiso   1.00
H637   H     0.25749   0.03729   0.74972   0.00000  Uiso   1.00
H638   H     0.07585   0.29604   0.75028   0.00000  Uiso   1.00
H639   H     0.25752   0.29604   0.74963   0.00000  Uiso   1.00
H640   H     0.07582   0.03730   0.75036   0.00000  Uiso   1.00
H641   H     0.19792   0.11610   0.79507   0.00000  Uiso   1.00
H642   H     0.13542   0.21723   0.70491   0.00000  Uiso   1.00
H643   H     0.11094   0.11599   0.79484   0.00000  Uiso   1.00
H644   H     0.22241   0.21731   0.70511   0.00000  Uiso   1.00
N645   N     0.11736   0.16668   0.74999   0.00000  Uiso   1.00
N646   N     0.21597   0.16666   0.75001   0.00000  Uiso   1.00
O647   O     0.03958   0.10655   0.75000   0.00000  Uiso   1.00
O648   O     0.29375   0.22678   0.75000   0.00000  Uiso   1.00
O649   O     0.29372   0.10654   0.75001   0.00000  Uiso   1.00
O650   O     0.03961   0.22679   0.74999   0.00000  Uiso   1.00
O651   O     0.01852   0.16668   0.81491   0.00000  Uiso   1.00
O652   O     0.31481   0.16666   0.68509   0.00000  Uiso   1.00
O653   O     0.27267   0.16667   0.81492   0.00000  Uiso   1.00
O654   O     0.06067   0.16667   0.68508   0.00000  Uiso   1.00
C655   C     0.28968   0.14313   0.60605   0.00000  Uiso   1.00
H656   H     0.27339   0.11496   0.59788   0.00000  Uiso   1.00
O657   O     0.26356   0.16996   0.62689   0.00000  Uiso   1.00
C658   C     0.04389   0.18884   0.89418   0.00000  Uiso   1.00
H659   H     0.06055   0.21677   0.90249   0.00000  Uiso   1.00
O660   O     0.06965   0.16187   0.87323   0.00000  Uiso   1.00
C661   C     0.66665   0.08734   0.75003   0.00000  Uiso   1.00
C662   C     0.33335   0.24599   0.74997   0.00000  Uiso   1.00
C663   C     0.52487   0.18736   0.54614   0.00000  Uiso   1.00
C664   C     0.47541   0.14482   0.95414   0.00000  Uiso   1.00
C665   C     0.57316   0.19326   0.52431   0.00000  Uiso   1.00
C666   C     0.42716   0.13879   0.97598   0.00000  Uiso   1.00
C667   C     0.62410   0.02128   0.74984   0.00000  Uiso   1.00
C668   C     0.37590   0.31205   0.75015   0.00000  Uiso   1.00
C669   C     0.62412   0.31205   0.74980   0.00000  Uiso   1.00
C670   C     0.37589   0.02128   0.75020   0.00000  Uiso   1.00
C671   C     0.33335   0.29060   0.74997   0.00000  Uiso   1.00
C672   C     0.66665   0.04274   0.75003   0.00000  Uiso   1.00
C673   C     0.51801   0.13856   0.77499   0.00000  Uiso   1.00
C674   C     0.48199   0.19477   0.72500   0.00000  Uiso   1.00
C675   C     0.46841   0.13853   0.77491   0.00000  Uiso   1.00
C676   C     0.53159   0.19479   0.72507   0.00000  Uiso   1.00
C677   C     0.63991   0.16695   0.83645   0.00000  Uiso   1.00
C678   C     0.36008   0.16633   0.66355   0.00000  Uiso   1.00
C679   C     0.62601   0.16925   0.88632   0.00000  Uiso   1.00
C680   C     0.37398   0.16380   0.61371   0.00000  Uiso   1.00
C681   C     0.63929   0.19035   0.95806   0.00000  Uiso   1.00
C682   C     0.36096   0.14185   0.54216   0.00000  Uiso   1.00
C683   C     0.65796   0.18224   0.91236   0.00000  Uiso   1.00
C684   C     0.34219   0.15020   0.58779   0.00000  Uiso   1.00
C685   C     0.57724   0.16167   0.90797   0.00000  Uiso   1.00
C686   C     0.42266   0.17167   0.59201   0.00000  Uiso   1.00
C687   C     0.55837   0.16846   0.95437   0.00000  Uiso   1.00
C688   C     0.44173   0.16428   0.54576   0.00000  Uiso   1.00
C689   C     0.59027   0.18393   0.97896   0.00000  Uiso   1.00
C690   C     0.40995   0.14842   0.52125   0.00000  Uiso   1.00
C691   C     0.50861   0.16142   0.97675   0.00000  Uiso   1.00
C692   C     0.49154   0.17115   0.52343   0.00000  Uiso   1.00
Cu693  Cu    0.38022   0.16667   0.75000   0.00000  Uiso   1.00
Cu694  Cu    0.61978   0.16666   0.75000   0.00000  Uiso   1.00
H695   H     0.59733   0.20573   0.54311   0.00000  Uiso   1.00
H696   H     0.40309   0.12599   0.95726   0.00000  Uiso   1.00
H697   H     0.44526   0.18271   0.61263   0.00000  Uiso   1.00
H698   H     0.55436   0.15145   0.88724   0.00000  Uiso   1.00
H699   H     0.66341   0.20155   0.97768   0.00000  Uiso   1.00
H700   H     0.33695   0.13028   0.52261   0.00000  Uiso   1.00
H701   H     0.51521   0.19616   0.58098   0.00000  Uiso   1.00
H702   H     0.48525   0.13559   0.91943   0.00000  Uiso   1.00
H703   H     0.59082   0.03729   0.74972   0.00000  Uiso   1.00
H704   H     0.40918   0.29604   0.75028   0.00000  Uiso   1.00
H705   H     0.59085   0.29604   0.74963   0.00000  Uiso   1.00
H706   H     0.40915   0.03730   0.75036   0.00000  Uiso   1.00
H707   H     0.53125   0.11610   0.79507   0.00000  Uiso   1.00
H708   H     0.46875   0.21723   0.70491   0.00000  Uiso   1.00
H709   H     0.44428   0.11599   0.79484   0.00000  Uiso   1.00
H710   H     0.55574   0.21731   0.70511   0.00000  Uiso   1.00
N711   N     0.45069   0.16668   0.74999   0.00000  Uiso   1.00
N712   N     0.54931   0.16666   0.75001   0.00000  Uiso   1.00
O713   O     0.37291   0.10655   0.75000   0.00000  Uiso   1.00
O714   O     0.62709   0.22678   0.75000   0.00000  Uiso   1.00
O715   O     0.62706   0.10654   0.75001   0.00000  Uiso   1.00
O716   O     0.37294   0.22679   0.74999   0.00000  Uiso   1.00
O717   O     0.35186   0.16668   0.81491   0.00000  Uiso   1.00
O718   O     0.64814   0.16666   0.68509   0.00000  Uiso   1.00
O719   O     0.60600   0.16667   0.81492   0.00000  Uiso   1.00
O720   O     0.39400   0.16667   0.68508   0.00000  Uiso   1.00
C721   C     0.62301   0.14313   0.60605   0.00000  Uiso   1.00
H722   H     0.60672   0.11496   0.59788   0.00000  Uiso   1.00
O723   O     0.59689   0.16996   0.62689   0.00000  Uiso   1.00
C724   C     0.37722   0.18884   0.89418   0.00000  Uiso   1.00
H725   H     0.39388   0.21677   0.90249   0.00000  Uiso   1.00
O726   O     0.40299   0.16187   0.87323   0.00000  Uiso   1.00
C727   C     0.99998   0.08734   0.75003   0.00000  Uiso   1.00
C728   C     0.66669   0.24599   0.74997   0.00000  Uiso   1.00
C729   C     0.85821   0.18736   0.54614   0.00000  Uiso   1.00
C730   C     0.80875   0.14482   0.95414   0.00000  Uiso   1.00
C731   C     0.90649   0.19326   0.52431   0.00000  Uiso   1.00
C732   C     0.76050   0.13879   0.97598   0.00000  Uiso   1.00
C733   C     0.95743   0.02128   0.74984   0.00000  Uiso   1.00
C734   C     0.70924   0.31205   0.75015   0.00000  Uiso   1.00
C735   C     0.95745   0.31205   0.74980   0.00000  Uiso   1.00
C736   C     0.70922   0.02128   0.75020   0.00000  Uiso   1.00
C737   C     0.66668   0.29060   0.74997   0.00000  Uiso   1.00
C738   C     0.99999   0.04274   0.75003   0.00000  Uiso   1.00
C739   C     0.85135   0.13856   0.77499   0.00000  Uiso   1.00
C740   C     0.81532   0.19477   0.72500   0.00000  Uiso   1.00
C741   C     0.80174   0.13853   0.77491   0.00000  Uiso   1.00
C742   C     0.86493   0.19479   0.72507   0.00000  Uiso   1.00
C743   C     0.97324   0.16695   0.83645   0.00000  Uiso   1.00
C744   C     0.69342   0.16633   0.66355   0.00000  Uiso   1.00
C745   C     0.95934   0.16925   0.88632   0.00000  Uiso   1.00
C746   C     0.70731   0.16380   0.61371   0.00000  Uiso   1.00
C747   C     0.97262   0.19035   0.95806   0.00000  Uiso   1.00
C748   C     0.69429   0.14185   0.54216   0.00000  Uiso   1.00
C749   C     0.99129   0.18224   0.91236   0.00000  Uiso   1.00
C750   C     0.67552   0.15020   0.58779   0.00000  Uiso   1.00
C751   C     0.91057   0.16167   0.90797   0.00000  Uiso   1.00
C752   C     0.75599   0.17167   0.59201   0.00000  Uiso   1.00
C753   C     0.89170   0.16846   0.95437   0.00000  Uiso   1.00
C754   C     0.77507   0.16428   0.54576   0.00000  Uiso   1.00
C755   C     0.92360   0.18393   0.97896   0.00000  Uiso   1.00
C756   C     0.74328   0.14842   0.52125   0.00000  Uiso   1.00
C757   C     0.84195   0.16142   0.97675   0.00000  Uiso   1.00
C758   C     0.82488   0.17115   0.52343   0.00000  Uiso   1.00
Cu759  Cu    0.71355   0.16667   0.75000   0.00000  Uiso   1.00
Cu760  Cu    0.95311   0.16666   0.75000   0.00000  Uiso   1.00
H761   H     0.93067   0.20573   0.54311   0.00000  Uiso   1.00
H762   H     0.73643   0.12599   0.95726   0.00000  Uiso   1.00
H763   H     0.77859   0.18271   0.61263   0.00000  Uiso   1.00
H764   H     0.88769   0.15145   0.88724   0.00000  Uiso   1.00
H765   H     0.99674   0.20155   0.97768   0.00000  Uiso   1.00
H766   H     0.67029   0.13028   0.52261   0.00000  Uiso   1.00
H767   H     0.84854   0.19616   0.58098   0.00000  Uiso   1.00
H768   H     0.81858   0.13559   0.91943   0.00000  Uiso   1.00
H769   H     0.92415   0.03729   0.74972   0.00000  Uiso   1.00
H770   H     0.74252   0.29604   0.75028   0.00000  Uiso   1.00
H771   H     0.92418   0.29604   0.74963   0.00000  Uiso   1.00
H772   H     0.74248   0.03730   0.75036   0.00000  Uiso   1.00
H773   H     0.86458   0.11610   0.79507   0.00000  Uiso   1.00
H774   H     0.80209   0.21723   0.70491   0.00000  Uiso   1.00
H775   H     0.77761   0.11599   0.79484   0.00000  Uiso   1.00
H776   H     0.88907   0.21731   0.70511   0.00000  Uiso   1.00
N777   N     0.78403   0.16668   0.74999   0.00000  Uiso   1.00
N778   N     0.88264   0.16666   0.75001   0.00000  Uiso   1.00
O779   O     0.70625   0.10655   0.75000   0.00000  Uiso   1.00
O780   O     0.96042   0.22678   0.75000   0.00000  Uiso   1.00
O781   O     0.96039   0.10654   0.75001   0.00000  Uiso   1.00
O782   O     0.70628   0.22679   0.74999   0.00000  Uiso   1.00
O783   O     0.68519   0.16668   0.81491   0.00000  Uiso   1.00
O784   O     0.98148   0.16666   0.68509   0.00000  Uiso   1.00
O785   O     0.93933   0.16667   0.81492   0.00000  Uiso   1.00
O786   O     0.72733   0.16667   0.68508   0.00000  Uiso   1.00
C787   C     0.95635   0.14313   0.60605   0.00000  Uiso   1.00
H788   H     0.94005   0.11496   0.59788   0.00000  Uiso   1.00
O789   O     0.93023   0.16996   0.62689   0.00000  Uiso   1.00
C790   C     0.71056   0.18884   0.89418   0.00000  Uiso   1.00
H791   H     0.72722   0.21677   0.90249   0.00000  Uiso   1.00
O792   O     0.73632   0.16187   0.87323   0.00000  Uiso   1.00
C793   C     0.33331   0.42068   0.75003   0.00000  Uiso   1.00
C794   C     0.00002   0.57932   0.74997   0.00000  Uiso   1.00
C795   C     0.19154   0.52070   0.54614   0.00000  Uiso   1.00
C796   C     0.14208   0.47816   0.95414   0.00000  Uiso   1.00
C797   C     0.23982   0.52659   0.52431   0.00000  Uiso   1.00
C798   C     0.09383   0.47213   0.97598   0.00000  Uiso   1.00
C799   C     0.29077   0.35462   0.74984   0.00000  Uiso   1.00
C800   C     0.04257   0.64539   0.75015   0.00000  Uiso   1.00
C801   C     0.29078   0.64538   0.74980   0.00000  Uiso   1.00
C802   C     0.04255   0.35462   0.75020   0.00000  Uiso   1.00
C803   C     0.00001   0.62393   0.74997   0.00000  Uiso   1.00
C804   C     0.33332   0.37607   0.75003   0.00000  Uiso   1.00
C805   C     0.18468   0.47190   0.77499   0.00000  Uiso   1.00
C806   C     0.14866   0.52810   0.72500   0.00000  Uiso   1.00
C807   C     0.13508   0.47186   0.77491   0.00000  Uiso   1.00
C808   C     0.19826   0.52812   0.72507   0.00000  Uiso   1.00
C809   C     0.30658   0.50028   0.83645   0.00000  Uiso   1.00
C810   C     0.02675   0.49967   0.66355   0.00000  Uiso   1.00
C811   C     0.29267   0.50259   0.88632   0.00000  Uiso   1.00
C812   C     0.04065   0.49713   0.61371   0.00000  Uiso   1.00
C813   C     0.30596   0.52368   0.95806   0.00000  Uiso   1.00
C814   C     0.02762   0.47518   0.54216   0.00000  Uiso   1.00
C815   C     0.32462   0.51557   0.91236   0.00000  Uiso   1.00
C816   C     0.00886   0.48353   0.58779   0.00000  Uiso   1.00
C817   C     0.24391   0.49500   0.90797   0.00000  Uiso   1.00
C818   C     0.08933   0.50500   0.59201   0.00000  Uiso   1.00
C819   C     0.22503   0.50179   0.95437   0.00000  Uiso   1.00
C820   C     0.10840   0.49761   0.54576   0.00000  Uiso   1.00
C821   C     0.25694   0.51726   0.97896   0.00000  Uiso   1.00
C822   C     0.07661   0.48175   0.52125   0.00000  Uiso   1.00
C823   C     0.17528   0.49476   0.97675   0.00000  Uiso   1.00
C824   C     0.15821   0.50448   0.52343   0.00000  Uiso   1.00
Cu825  Cu    0.04689   0.50001   0.75000   0.00000  Uiso   1.00
Cu826  Cu    0.28645   0.49999   0.75000   0.00000  Uiso   1.00
H827   H     0.26400   0.53906   0.54311   0.00000  Uiso   1.00
H828   H     0.06976   0.45932   0.95726   0.00000  Uiso   1.00
H829   H     0.11192   0.51604   0.61263   0.00000  Uiso   1.00
H830   H     0.22103   0.48478   0.88724   0.00000  Uiso   1.00
H831   H     0.33008   0.53488   0.97768   0.00000  Uiso   1.00
H832   H     0.00362   0.46362   0.52261   0.00000  Uiso   1.00
H833   H     0.18188   0.52949   0.58098   0.00000  Uiso   1.00
H834   H     0.15191   0.46892   0.91943   0.00000  Uiso   1.00
H835   H     0.25749   0.37063   0.74972   0.00000  Uiso   1.00
H836   H     0.07585   0.62938   0.75028   0.00000  Uiso   1.00
H837   H     0.25752   0.62937   0.74963   0.00000  Uiso   1.00
H838   H     0.07582   0.37063   0.75036   0.00000  Uiso   1.00
H839   H     0.19792   0.44943   0.79507   0.00000  Uiso   1.00
H840   H     0.13542   0.55056   0.70491   0.00000  Uiso   1.00
H841   H     0.11094   0.44932   0.79484   0.00000  Uiso   1.00
H842   H     0.22241   0.55065   0.70511   0.00000  Uiso   1.00
N843   N     0.11736   0.50001   0.74999   0.00000  Uiso   1.00
N844   N     0.21597   0.49999   0.75001   0.00000  Uiso   1.00
O845   O     0.03958   0.43989   0.75000   0.00000  Uiso   1.00
O846   O     0.29375   0.56011   0.75000   0.00000  Uiso   1.00
O847   O     0.29372   0.43988   0.75001   0.00000  Uiso   1.00
O848   O     0.03961   0.56012   0.74999   0.00000  Uiso   1.00
O849   O     0.01852   0.50001   0.81491   0.00000  Uiso   1.00
O850   O     0.31481   0.49999   0.68509   0.00000  Uiso   1.00
O851   O     0.27267   0.50000   0.81492   0.00000  Uiso   1.00
O852   O     0.06067   0.50000   0.68508   0.00000  Uiso   1.00
C853   C     0.28968   0.47647   0.60605   0.00000  Uiso   1.00
H854   H     0.27339   0.44829   0.59788   0.00000  Uiso   1.00
O855   O     0.26356   0.50329   0.62689   0.00000  Uiso   1.00
C856   C     0.04389   0.52218   0.89418   0.00000  Uiso   1.00
H857   H     0.06055   0.55011   0.90249   0.00000  Uiso   1.00
O858   O     0.06965   0.49520   0.87323   0.00000  Uiso   1.00
C859   C     0.66665   0.42068   0.75003   0.00000  Uiso   1.00
C860   C     0.33335   0.57932   0.74997   0.00000  Uiso   1.00
C861   C     0.52487   0.52070   0.54614   0.00000  Uiso   1.00
C862   C     0.47541   0.47816   0.95414   0.00000  Uiso   1.00
C863   C     0.57316   0.52659   0.52431   0.00000  Uiso   1.00
C864   C     0.42716   0.47213   0.97598   0.00000  Uiso   1.00
C865   C     0.62410   0.35462   0.74984   0.00000  Uiso   1.00
C866   C     0.37590   0.64539   0.75015   0.00000  Uiso   1.00
C867   C     0.62412   0.64538   0.74980   0.00000  Uiso   1.00
C868   C     0.37589   0.35462   0.75020   0.00000  Uiso   1.00
C869   C     0.33335   0.62393   0.74997   0.00000  Uiso   1.00
C870   C     0.66665   0.37607   0.75003   0.00000  Uiso   1.00
C871   C     0.51801   0.47190   0.77499   0.00000  Uiso   1.00
C872   C     0.48199   0.52810   0.72500   0.00000  Uiso   1.00
C873   C     0.46841   0.47186   0.77491   0.00000  Uiso   1.00
C874   C     0.53159   0.52812   0.72507   0.00000  Uiso   1.00
C875   C     0.63991   0.50028   0.83645   0.00000  Uiso   1.00
C876   C     0.36008   0.49967   0.66355   0.00000  Uiso   1.00
C877   C     0.62601   0.50259   0.88632   0.00000  Uiso   1.00
C878   C     0.37398   0.49713   0.61371   0.00000  Uiso   1.00
C879   C     0.63929   0.52368   0.95806   0.00000  Uiso   1.00
C880   C     0.36096   0.47518   0.54216   0.00000  Uiso   1.00
C881   C     0.65796   0.51557   0.91236   0.00000  Uiso   1.00
C882   C     0.34219   0.48353   0.58779   0.00000  Uiso   1.00
C883   C     0.57724   0.49500   0.90797   0.00000  Uiso   1.00
C884   C     0.42266   0.50500   0.59201   0.00000  Uiso   1.00
C885   C     0.55837   0.50179   0.95437   0.00000  Uiso   1.00
C886   C     0.44173   0.49761   0.54576   0.00000  Uiso   1.00
C887   C     0.59027   0.51726   0.97896   0.00000  Uiso   1.00
C888   C     0.40995   0.48175   0.52125   0.00000  Uiso   1.00
C889   C     0.50861   0.49476   0.97675   0.00000  Uiso   1.00
C890   C     0.49154   0.50448   0.52343   0.00000  Uiso   1.00
Cu891  Cu    0.38022   0.50001   0.75000   0.00000  Uiso   1.00
Cu892  Cu    0.61978   0.49999   0.75000   0.00000  Uiso   1.00
H893   H     0.59733   0.53906   0.54311   0.00000  Uiso   1.00
H894   H     0.40309   0.45932   0.95726   0.00000  Uiso   1.00
H895   H     0.44526   0.51604   0.61263   0.00000  Uiso   1.00
H896   H     0.55436   0.48478   0.88724   0.00000  Uiso   1.00
H897   H     0.66341   0.53488   0.97768   0.00000  Uiso   1.00
H898   H     0.33695   0.46362   0.52261   0.00000  Uiso   1.00
H899   H     0.51521   0.52949   0.58098   0.00000  Uiso   1.00
H900   H     0.48525   0.46892   0.91943   0.00000  Uiso   1.00
H901   H     0.59082   0.37063   0.74972   0.00000  Uiso   1.00
H902   H     0.40918   0.62938   0.75028   0.00000  Uiso   1.00
H903   H     0.59085   0.62937   0.74963   0.00000  Uiso   1.00
H904   H     0.40915   0.37063   0.75036   0.00000  Uiso   1.00
H905   H     0.53125   0.44943   0.79507   0.00000  Uiso   1.00
H906   H     0.46875   0.55056   0.70491   0.00000  Uiso   1.00
H907   H     0.44428   0.44932   0.79484   0.00000  Uiso   1.00
H908   H     0.55574   0.55065   0.70511   0.00000  Uiso   1.00
N909   N     0.45069   0.50001   0.74999   0.00000  Uiso   1.00
N910   N     0.54931   0.49999   0.75001   0.00000  Uiso   1.00
O911   O     0.37291   0.43989   0.75000   0.00000  Uiso   1.00
O912   O     0.62709   0.56011   0.75000   0.00000  Uiso   1.00
O913   O     0.62706   0.43988   0.75001   0.00000  Uiso   1.00
O914   O     0.37294   0.56012   0.74999   0.00000  Uiso   1.00
O915   O     0.35186   0.50001   0.81491   0.00000  Uiso   1.00
O916   O     0.64814   0.49999   0.68509   0.00000  Uiso   1.00
O917   O     0.60600   0.50000   0.81492   0.00000  Uiso   1.00
O918   O     0.39400   0.50000   0.68508   0.00000  Uiso   1.00
C919   C     0.62301   0.47647   0.60605   0.00000  Uiso   1.00
H920   H     0.60672   0.44829   0.59788   0.00000  Uiso   1.00
O921   O     0.59689   0.50329   0.62689   0.00000  Uiso   1.00
C922   C     0.37722   0.52218   0.89418   0.00000  Uiso   1.00
H923   H     0.39388   0.55011   0.90249   0.00000  Uiso   1.00
O924   O     0.40299   0.49520   0.87323   0.00000  Uiso   1.00
C925   C     0.99998   0.42068   0.75003   0.00000  Uiso   1.00
C926   C     0.66669   0.57932   0.74997   0.00000  Uiso   1.00
C927   C     0.85821   0.52070   0.54614   0.00000  Uiso   1.00
C928   C     0.80875   0.47816   0.95414   0.00000  Uiso   1.00
C929   C     0.90649   0.52659   0.52431   0.00000  Uiso   1.00
C930   C     0.76050   0.47213   0.97598   0.00000  Uiso   1.00
C931   C     0.95743   0.35462   0.74984   0.00000  Uiso   1.00
C932   C     0.70924   0.64539   0.75015   0.00000  Uiso   1.00
C933   C     0.95745   0.64538   0.74980   0.00000  Uiso   1.00
C934   C     0.70922   0.35462   0.75020   0.00000  Uiso   1.00
C935   C     0.66668   0.62393   0.74997   0.00000  Uiso   1.00
C936   C     0.99999   0.37607   0.75003   0.00000  Uiso   1.00
C937   C     0.85135   0.47190   0.77499   0.00000  Uiso   1.00
C938   C     0.81532   0.52810   0.72500   0.00000  Uiso   1.00
C939   C     0.80174   0.47186   0.77491   0.00000  Uiso   1.00
C940   C     0.86493   0.52812   0.72507   0.00000  Uiso   1.00
C941   C     0.97324   0.50028   0.83645   0.00000  Uiso   1.00
C942   C     0.69342   0.49967   0.66355   0.00000  Uiso   1.00
C943   C     0.95934   0.50259   0.88632   0.00000  Uiso   1.00
C944   C     0.70731   0.49713   0.61371   0.00000  Uiso   1.00
C945   C     0.97262   0.52368   0.95806   0.00000  Uiso   1.00
C946   C     0.69429   0.47518   0.54216   0.00000  Uiso   1.00
C947   C     0.99129   0.51557   0.91236   0.00000  Uiso   1.00
C948   C     0.67552   0.48353   0.58779   0.00000  Uiso   1.00
C949   C     0.91057   0.49500   0.90797   0.00000  Uiso   1.00
C950   C     0.75599   0.50500   0.59201   0.00000  Uiso   1.00
C951   C     0.89170   0.50179   0.95437   0.00000  Uiso   1.00
C952   C     0.77507   0.49761   0.54576   0.00000  Uiso   1.00
C953   C     0.92360   0.51726   0.97896   0.00000  Uiso   1.00
C954   C     0.74328   0.48175   0.52125   0.00000  Uiso   1.00
C955   C     0.84195   0.49476   0.97675   0.00000  Uiso   1.00
C956   C     0.82488   0.50448   0.52343   0.00000  Uiso   1.00
Cu957  Cu    0.71355   0.50001   0.75000   0.00000  Uiso   1.00
Cu958  Cu    0.95311   0.49999   0.75000   0.00000  Uiso   1.00
H959   H     0.93067   0.53906   0.54311   0.00000  Uiso   1.00
H960   H     0.73643   0.45932   0.95726   0.00000  Uiso   1.00
H961   H     0.77859   0.51604   0.61263   0.00000  Uiso   1.00
H962   H     0.88769   0.48478   0.88724   0.00000  Uiso   1.00
H963   H     0.99674   0.53488   0.97768   0.00000  Uiso   1.00
H964   H     0.67029   0.46362   0.52261   0.00000  Uiso   1.00
H965   H     0.84854   0.52949   0.58098   0.00000  Uiso   1.00
H966   H     0.81858   0.46892   0.91943   0.00000  Uiso   1.00
H967   H     0.92415   0.37063   0.74972   0.00000  Uiso   1.00
H968   H     0.74252   0.62938   0.75028   0.00000  Uiso   1.00
H969   H     0.92418   0.62937   0.74963   0.00000  Uiso   1.00
H970   H     0.74248   0.37063   0.75036   0.00000  Uiso   1.00
H971   H     0.86458   0.44943   0.79507   0.00000  Uiso   1.00
H972   H     0.80209   0.55056   0.70491   0.00000  Uiso   1.00
H973   H     0.77761   0.44932   0.79484   0.00000  Uiso   1.00
H974   H     0.88907   0.55065   0.70511   0.00000  Uiso   1.00
N975   N     0.78403   0.50001   0.74999   0.00000  Uiso   1.00
N976   N     0.88264   0.49999   0.75001   0.00000  Uiso   1.00
O977   O     0.70625   0.43989   0.75000   0.00000  Uiso   1.00
O978   O     0.96042   0.56011   0.75000   0.00000  Uiso   1.00
O979   O     0.96039   0.43988   0.75001   0.00000  Uiso   1.00
O980   O     0.70628   0.56012   0.74999   0.00000  Uiso   1.00
O981   O     0.68519   0.50001   0.81491   0.00000  Uiso   1.00
O982   O     0.98148   0.49999   0.68509   0.00000  Uiso   1.00
O983   O     0.93933   0.50000   0.81492   0.00000  Uiso   1.00
O984   O     0.72733   0.50000   0.68508   0.00000  Uiso   1.00
C985   C     0.95635   0.47647   0.60605   0.00000  Uiso   1.00
H986   H     0.94005   0.44829   0.59788   0.00000  Uiso   1.00
O987   O     0.93023   0.50329   0.62689   0.00000  Uiso   1.00
C988   C     0.71056   0.52218   0.89418   0.00000  Uiso   1.00
H989   H     0.72722   0.55011   0.90249   0.00000  Uiso   1.00
O990   O     0.73632   0.49520   0.87323   0.00000  Uiso   1.00
C991   C     0.33331   0.75401   0.75003   0.00000  Uiso   1.00
C992   C     0.00002   0.91266   0.74997   0.00000  Uiso   1.00
C993   C     0.19154   0.85403   0.54614   0.00000  Uiso   1.00
C994   C     0.14208   0.81149   0.95414   0.00000  Uiso   1.00
C995   C     0.23982   0.85993   0.52431   0.00000  Uiso   1.00
C996   C     0.09383   0.80546   0.97598   0.00000  Uiso   1.00
C997   C     0.29077   0.68795   0.74984   0.00000  Uiso   1.00
C998   C     0.04257   0.97872   0.75015   0.00000  Uiso   1.00
C999   C     0.29078   0.97872   0.74980   0.00000  Uiso   1.00
C1000  C     0.04255   0.68795   0.75020   0.00000  Uiso   1.00
C1001  C     0.00001   0.95727   0.74997   0.00000  Uiso   1.00
C1002  C     0.33332   0.70940   0.75003   0.00000  Uiso   1.00
C1003  C     0.18468   0.80523   0.77499   0.00000  Uiso   1.00
C1004  C     0.14866   0.86143   0.72500   0.00000  Uiso   1.00
C1005  C     0.13508   0.80520   0.77491   0.00000  Uiso   1.00
C1006  C     0.19826   0.86146   0.72507   0.00000  Uiso   1.00
C1007  C     0.30658   0.83361   0.83645   0.00000  Uiso   1.00
C1008  C     0.02675   0.83300   0.66355   0.00000  Uiso   1.00
C1009  C     0.29267   0.83592   0.88632   0.00000  Uiso   1.00
C1010  C     0.04065   0.83046   0.61371   0.00000  Uiso   1.00
C1011  C     0.30596   0.85702   0.95806   0.00000  Uiso   1.00
C1012  C     0.02762   0.80852   0.54216   0.00000  Uiso   1.00
C1013  C     0.32462   0.84891   0.91236   0.00000  Uiso   1.00
C1014  C     0.00886   0.81686   0.58779   0.00000  Uiso   1.00
C1015  C     0.24391   0.82834   0.90797   0.00000  Uiso   1.00
C1016  C     0.08933   0.83833   0.59201   0.00000  Uiso   1.00
C1017  C     0.22503   0.83513   0.95437   0.00000  Uiso   1.00
C1018  C     0.10840   0.83094   0.54576   0.00000  Uiso   1.00
C1019  C     0.25694   0.85059   0.97896   0.00000  Uiso   1.00
C1020  C     0.07661   0.81509   0.52125   0.00000  Uiso   1.00
C1021  C     0.17528   0.82809   0.97675   0.00000  Uiso   1.00
C1022  C     0.15821   0.83782   0.52343   0.00000  Uiso   1.00
Cu1023 Cu    0.04689   0.83334   0.75000   0.00000  Uiso   1.00
Cu1024 Cu    0.28645   0.83333   0.75000   0.00000  Uiso   1.00
H1025  H     0.26400   0.87240   0.54311   0.00000  Uiso   1.00
H1026  H     0.06976   0.79265   0.95726   0.00000  Uiso   1.00
H1027  H     0.11192   0.84938   0.61263   0.00000  Uiso   1.00
H1028  H     0.22103   0.81812   0.88724   0.00000  Uiso   1.00
H1029  H     0.33008   0.86821   0.97768   0.00000  Uiso   1.00
H1030  H     0.00362   0.79695   0.52261   0.00000  Uiso   1.00
H1031  H     0.18188   0.86282   0.58098   0.00000  Uiso   1.00
H1032  H     0.15191   0.80225   0.91943   0.00000  Uiso   1.00
H1033  H     0.25749   0.70396   0.74972   0.00000  Uiso   1.00
H1034  H     0.07585   0.96271   0.75028   0.00000  Uiso   1.00
H1035  H     0.25752   0.96270   0.74963   0.00000  Uiso   1.00
H1036  H     0.07582   0.70396   0.75036   0.00000  Uiso   1.00
H1037  H     0.19792   0.78276   0.79507   0.00000  Uiso   1.00
H1038  H     0.13542   0.88390   0.70491   0.00000  Uiso   1.00
H1039  H     0.11094   0.78265   0.79484   0.00000  Uiso   1.00
H1040  H     0.22241   0.88398   0.70511   0.00000  Uiso   1.00
N1041  N     0.11736   0.83334   0.74999   0.00000  Uiso   1.00
N1042  N     0.21597   0.83332   0.75001   0.00000  Uiso   1.00
O1043  O     0.03958   0.77322   0.75000   0.00000  Uiso   1.00
O1044  O     0.29375   0.89345   0.75000   0.00000  Uiso   1.00
O1045  O     0.29372   0.77321   0.75001   0.00000  Uiso   1.00
O1046  O     0.03961   0.89346   0.74999   0.00000  Uiso   1.00
O1047  O     0.01852   0.83334   0.81491   0.00000  Uiso   1.00
O1048  O     0.31481   0.83332   0.68509   0.00000  Uiso   1.00
O1049  O     0.27267   0.83333   0.81492   0.00000  Uiso   1.00
O1050  O     0.06067   0.83333   0.68508   0.00000  Uiso   1.00
C1051  C     0.28968   0.80980   0.60605   0.00000  Uiso   1.00
H1052  H     0.27339   0.78163   0.59788   0.00000  Uiso   1.00
O1053  O     0.26356   0.83662   0.62689   0.00000  Uiso   1.00
C1054  C     0.04389   0.85551   0.89418   0.00000  Uiso   1.00
H1055  H     0.06055   0.88344   0.90249   0.00000  Uiso   1.00
O1056  O     0.06965   0.82853   0.87323   0.00000  Uiso   1.00
C1057  C     0.66665   0.75401   0.75003   0.00000  Uiso   1.00
C1058  C     0.33335   0.91266   0.74997   0.00000  Uiso   1.00
C1059  C     0.52487   0.85403   0.54614   0.00000  Uiso   1.00
C1060  C     0.47541   0.81149   0.95414   0.00000  Uiso   1.00
C1061  C     0.57316   0.85993   0.52431   0.00000  Uiso   1.00
C1062  C     0.42716   0.80546   0.97598   0.00000  Uiso   1.00
C1063  C     0.62410   0.68795   0.74984   0.00000  Uiso   1.00
C1064  C     0.37590   0.97872   0.75015   0.00000  Uiso   1.00
C1065  C     0.62412   0.97872   0.74980   0.00000  Uiso   1.00
C1066  C     0.37589   0.68795   0.75020   0.00000  Uiso   1.00
C1067  C     0.33335   0.95727   0.74997   0.00000  Uiso   1.00
C1068  C     0.66665   0.70940   0.75003   0.00000  Uiso   1.00
C1069  C     0.51801   0.80523   0.77499   0.00000  Uiso   1.00
C1070  C     0.48199   0.86143   0.72500   0.00000  Uiso   1.00
C1071  C     0.46841   0.80520   0.77491   0.00000  Uiso   1.00
C1072  C     0.53159   0.86146   0.72507   0.00000  Uiso   1.00
C1073  C     0.63991   0.83361   0.83645   0.00000  Uiso   1.00
C1074  C     0.36008   0.83300   0.66355   0.00000  Uiso   1.00
C1075  C     0.62601   0.83592   0.88632   0.00000  Uiso   1.00
C1076  C     0.37398   0.83046   0.61371   0.00000  Uiso   1.00
C1077  C     0.63929   0.85702   0.95806   0.00000  Uiso   1.00
C1078  C     0.36096   0.80852   0.54216   0.00000  Uiso   1.00
C1079  C     0.65796   0.84891   0.91236   0.00000  Uiso   1.00
C1080  C     0.34219   0.81686   0.58779   0.00000  Uiso   1.00
C1081  C     0.57724   0.82834   0.90797   0.00000  Uiso   1.00
C1082  C     0.42266   0.83833   0.59201   0.00000  Uiso   1.00
C1083  C     0.55837   0.83513   0.95437   0.00000  Uiso   1.00
C1084  C     0.44173   0.83094   0.54576   0.00000  Uiso   1.00
C1085  C     0.59027   0.85059   0.97896   0.00000  Uiso   1.00
C1086  C     0.40995   0.81509   0.52125   0.00000  Uiso   1.00
C1087  C     0.50861   0.82809   0.97675   0.00000  Uiso   1.00
C1088  C     0.49154   0.83782   0.52343   0.00000  Uiso   1.00
Cu1089 Cu    0.38022   0.83334   0.75000   0.00000  Uiso   1.00
Cu1090 Cu    0.61978   0.83333   0.75000   0.00000  Uiso   1.00
H1091  H     0.59733   0.87240   0.54311   0.00000  Uiso   1.00
H1092  H     0.40309   0.79265   0.95726   0.00000  Uiso   1.00
H1093  H     0.44526   0.84938   0.61263   0.00000  Uiso   1.00
H1094  H     0.55436   0.81812   0.88724   0.00000  Uiso   1.00
H1095  H     0.66341   0.86821   0.97768   0.00000  Uiso   1.00
H1096  H     0.33695   0.79695   0.52261   0.00000  Uiso   1.00
H1097  H     0.51521   0.86282   0.58098   0.00000  Uiso   1.00
H1098  H     0.48525   0.80225   0.91943   0.00000  Uiso   1.00
H1099  H     0.59082   0.70396   0.74972   0.00000  Uiso   1.00
H1100  H     0.40918   0.96271   0.75028   0.00000  Uiso   1.00
H1101  H     0.59085   0.96270   0.74963   0.00000  Uiso   1.00
H1102  H     0.40915   0.70396   0.75036   0.00000  Uiso   1.00
H1103  H     0.53125   0.78276   0.79507   0.00000  Uiso   1.00
H1104  H     0.46875   0.88390   0.70491   0.00000  Uiso   1.00
H1105  H     0.44428   0.78265   0.79484   0.00000  Uiso   1.00
H1106  H     0.55574   0.88398   0.70511   0.00000  Uiso   1.00
N1107  N     0.45069   0.83334   0.74999   0.00000  Uiso   1.00
N1108  N     0.54931   0.83332   0.75001   0.00000  Uiso   1.00
O1109  O     0.37291   0.77322   0.75000   0.00000  Uiso   1.00
O1110  O     0.62709   0.89345   0.75000   0.00000  Uiso   1.00
O1111  O     0.62706   0.77321   0.75001   0.00000  Uiso   1.00
O1112  O     0.37294   0.89346   0.74999   0.00000  Uiso   1.00
O1113  O     0.35186   0.83334   0.81491   0.00000  Uiso   1.00
O1114  O     0.64814   0.83332   0.68509   0.00000  Uiso   1.00
O1115  O     0.60600   0.83333   0.81492   0.00000  Uiso   1.00
O1116  O     0.39400   0.83333   0.68508   0.00000  Uiso   1.00
C1117  C     0.62301   0.80980   0.60605   0.00000  Uiso   1.00
H1118  H     0.60672   0.78163   0.59788   0.00000  Uiso   1.00
O1119  O     0.59689   0.83662   0.62689   0.00000  Uiso   1.00
C1120  C     0.37722   0.85551   0.89418   0.00000  Uiso   1.00
H1121  H     0.39388   0.88344   0.90249   0.00000  Uiso   1.00
O1122  O     0.40299   0.82853   0.87323   0.00000  Uiso   1.00
C1123  C     0.99998   0.75401   0.75003   0.00000  Uiso   1.00
C1124  C     0.66669   0.91266   0.74997   0.00000  Uiso   1.00
C1125  C     0.85821   0.85403   0.54614   0.00000  Uiso   1.00
C1126  C     0.80875   0.81149   0.95414   0.00000  Uiso   1.00
C1127  C     0.90649   0.85993   0.52431   0.00000  Uiso   1.00
C1128  C     0.76050   0.80546   0.97598   0.00000  Uiso   1.00
C1129  C     0.95743   0.68795   0.74984   0.00000  Uiso   1.00
C1130  C     0.70924   0.97872   0.75015   0.00000  Uiso   1.00
C1131  C     0.95745   0.97872   0.74980   0.00000  Uiso   1.00
C1132  C     0.70922   0.68795   0.75020   0.00000  Uiso   1.00
C1133  C     0.66668   0.95727   0.74997   0.00000  Uiso   1.00
C1134  C     0.99999   0.70940   0.75003   0.00000  Uiso   1.00
C1135  C     0.85135   0.80523   0.77499   0.00000  Uiso   1.00
C1136  C     0.81532   0.86143   0.72500   0.00000  Uiso   1.00
C1137  C     0.80174   0.80520   0.77491   0.00000  Uiso   1.00
C1138  C     0.86493   0.86146   0.72507   0.00000  Uiso   1.00
C1139  C     0.97324   0.83361   0.83645   0.00000  Uiso   1.00
C1140  C     0.69342   0.83300   0.66355   0.00000  Uiso   1.00
C1141  C     0.95934   0.83592   0.88632   0.00000  Uiso   1.00
C1142  C     0.70731   0.83046   0.61371   0.00000  Uiso   1.00
C1143  C     0.97262   0.85702   0.95806   0.00000  Uiso   1.00
C1144  C     0.69429   0.80852   0.54216   0.00000  Uiso   1.00
C1145  C     0.99129   0.84891   0.91236   0.00000  Uiso   1.00
C1146  C     0.67552   0.81686   0.58779   0.00000  Uiso   1.00
C1147  C     0.91057   0.82834   0.90797   0.00000  Uiso   1.00
C1148  C     0.75599   0.83833   0.59201   0.00000  Uiso   1.00
C1149  C     0.89170   0.83513   0.95437   0.00000  Uiso   1.00
C1150  C     0.77507   0.83094   0.54576   0.00000  Uiso   1.00
C1151  C     0.92360   0.85059   0.97896   0.00000  Uiso   1.00
C1152  C     0.74328   0.81509   0.52125   0.00000  Uiso   1.00
C1153  C     0.84195   0.82809   0.97675   0.00000  Uiso   1.00
C1154  C     0.82488   0.83782   0.52343   0.00000  Uiso   1.00
Cu1155 Cu    0.71355   0.83334   0.75000   0.00000  Uiso   1.00
Cu1156 Cu    0.95311   0.83333   0.75000   0.00000  Uiso   1.00
H1157  H     0.93067   0.87240   0.54311   0.00000  Uiso   1.00
H1158  H     0.73643   0.79265   0.95726   0.00000  Uiso   1.00
H1159  H     0.77859   0.84938   0.61263   0.00000  Uiso   1.00
H1160  H     0.88769   0.81812   0.88724   0.00000  Uiso   1.00
H1161  H     0.99674   0.86821   0.97768   0.00000  Uiso   1.00
H1162  H     0.67029   0.79695   0.52261   0.00000  Uiso   1.00
H1163  H     0.84854   0.86282   0.58098   0.00000  Uiso   1.00
H1164  H     0.81858   0.80225   0.91943   0.00000  Uiso   1.00
H1165  H     0.92415   0.70396   0.74972   0.00000  Uiso   1.00
H1166  H     0.74252   0.96271   0.75028   0.00000  Uiso   1.00
H1167  H     0.92418   0.96270   0.74963   0.00000  Uiso   1.00
H1168  H     0.74248   0.70396   0.75036   0.00000  Uiso   1.00
H1169  H     0.86458   0.78276   0.79507   0.00000  Uiso   1.00
H1170  H     0.80209   0.88390   0.70491   0.00000  Uiso   1.00
H1171  H     0.77761   0.78265   0.79484   0.00000  Uiso   1.00
H1172  H     0.88907   0.88398   0.70511   0.00000  Uiso   1.00
N1173  N     0.78403   0.83334   0.74999   0.00000  Uiso   1.00
N1174  N     0.88264   0.83332   0.75001   0.00000  Uiso   1.00
O1175  O     0.70625   0.77322   0.75000   0.00000  Uiso   1.00
O1176  O     0.96042   0.89345   0.75000   0.00000  Uiso   1.00
O1177  O     0.96039   0.77321   0.75001   0.00000  Uiso   1.00
O1178  O     0.70628   0.89346   0.74999   0.00000  Uiso   1.00
O1179  O     0.68519   0.83334   0.81491   0.00000  Uiso   1.00
O1180  O     0.98148   0.83332   0.68509   0.00000  Uiso   1.00
O1181  O     0.93933   0.83333   0.81492   0.00000  Uiso   1.00
O1182  O     0.72733   0.83333   0.68508   0.00000  Uiso   1.00
C1183  C     0.95635   0.80980   0.60605   0.00000  Uiso   1.00
H1184  H     0.94005   0.78163   0.59788   0.00000  Uiso   1.00
O1185  O     0.93023   0.83662   0.62689   0.00000  Uiso   1.00
C1186  C     0.71056   0.85551   0.89418   0.00000  Uiso   1.00
H1187  H     0.72722   0.88344   0.90249   0.00000  Uiso   1.00
O1188  O     0.73632   0.82853   0.87323   0.00000  Uiso   1.00
loop_
_geom_bond_atom_site_label_1
_geom_bond_atom_site_label_2
_geom_bond_distance
_geom_bond_site_symmetry_2
_ccdc_geom_bond_type
C1     O55     1.290   .     A
C1     C12     1.450   .     S
C1     O119    1.290   .     S
C2     O56     1.290   .     A
C2     C11     1.450   .     S
C2     O186    1.290   1_455 S
C3     C5      1.384   .     A
C3     C32     1.416   .     A
C3     H41     1.075   .     S
C4     H42     1.075   .     S
C4     C6      1.384   .     A
C4     C31     1.416   .     A
C5     H35     1.084   .     S
C5     C623    1.389   1_554 S
C6     H36     1.084   .     S
C6     C624    1.389   .     S
C7     C12     1.401   .     A
C7     H43     1.083   .     S
C7     C405    1.384   1_545 S
C8     C11     1.401   .     A
C8     H44     1.083   .     S
C8     C208    1.384   .     S
C9     H45     1.083   .     S
C9     C205    1.384   .     S
C9     C77     1.401   .     S
C10    H46     1.083   .     S
C10    C404    1.384   1_545 S
C10    C144    1.401   1_455 S
C11    C141    1.401   1_455 S
C12    C76     1.401   .     S
C13    N52     1.367   .     A
C13    C15     1.415   .     A
C13    H47     1.082   .     S
C14    C16     1.415   .     A
C14    N51     1.367   .     A
C14    H48     1.082   .     S
C15    N51     1.366   .     A
C15    H49     1.082   .     S
C16    N52     1.366   .     A
C16    H50     1.082   .     S
C17    O59     1.302   .     A
C17    C19     1.484   .     S
C17    O123    1.294   .     S
C18    C20     1.483   .     S
C18    O60     1.302   .     A
C18    O190    1.294   1_455 S
C19    C23     1.420   .     A
C19    C25     1.404   .     A
C20    C24     1.420   .     A
C20    C26     1.403   .     A
C21    C29     1.399   .     A
C21    H39     1.086   .     S
C21    C23     1.396   .     A
C22    H40     1.086   .     S
C22    C24     1.396   .     A
C22    C30     1.399   .     A
C23    C130    1.478   .     S
C24    C193    1.478   1_455 S
C25    H38     1.073   .     S
C25    C27     1.408   .     A
C26    H37     1.073   .     S
C26    C28     1.408   .     A
C27    C29     1.414   .     A
C27    C31     1.430   .     A
C28    C30     1.414   .     A
C28    C32     1.430   .     A
C29    C599    1.389   .     S
C30    C600    1.389   1_554 S
C31    C626    1.429   .     S
C32    C625    1.429   1_554 S
Cu33   N51     2.010   .     S
Cu33   O57     1.953   .     S
Cu33   O56     1.965   .     S
Cu33   O60     1.932   .     S
Cu33   O53     1.965   .     S
Cu33   Cu166   2.675   1_455 S
Cu34   N52     2.010   .     S
Cu34   O55     1.965   .     S
Cu34   O54     1.965   .     S
Cu34   O58     1.953   .     S
Cu34   O59     1.932   .     S
Cu34   Cu99    2.675   .     S
O53    C133    1.290   1_455 S
O54    C68     1.290   .     S
O57    C149    1.294   1_455 S
O58    C84     1.294   .     S
C61    H62     1.085   .     S
C61    O63     1.220   .     D
C61    C90     1.478   .     S
C64    H65     1.085   .     S
C64    O66     1.220   .     D
C64    C155    1.478   1_455 S
C67    O121    1.290   .     A
C67    C78     1.450   .     S
C67    O185    1.290   .     S
C68    O122    1.290   .     A
C68    C77     1.450   .     S
C69    C71     1.384   .     A
C69    C98     1.416   .     A
C69    H107    1.075   .     S
C70    H108    1.075   .     S
C70    C72     1.384   .     A
C70    C97     1.416   .     A
C71    H101    1.084   .     S
C71    C689    1.389   1_554 S
C72    H102    1.084   .     S
C72    C690    1.389   .     S
C73    C78     1.401   .     A
C73    H109    1.083   .     S
C73    C471    1.384   1_545 S
C74    C77     1.401   .     A
C74    H110    1.083   .     S
C74    C274    1.384   .     S
C75    H111    1.083   .     S
C75    C271    1.384   .     S
C75    C143    1.401   .     S
C76    H112    1.083   .     S
C76    C470    1.384   1_545 S
C78    C142    1.401   .     S
C79    N118    1.367   .     A
C79    C81     1.415   .     A
C79    H113    1.082   .     S
C80    C82     1.415   .     A
C80    N117    1.367   .     A
C80    H114    1.082   .     S
C81    N117    1.366   .     A
C81    H115    1.082   .     S
C82    N118    1.366   .     A
C82    H116    1.082   .     S
C83    O125    1.302   .     A
C83    C85     1.484   .     S
C83    O189    1.294   .     S
C84    C86     1.483   .     S
C84    O126    1.302   .     A
C85    C89     1.420   .     A
C85    C91     1.404   .     A
C86    C90     1.420   .     A
C86    C92     1.403   .     A
C87    C95     1.399   .     A
C87    H105    1.086   .     S
C87    C89     1.396   .     A
C88    H106    1.086   .     S
C88    C90     1.396   .     A
C88    C96     1.399   .     A
C89    C196    1.478   .     S
C91    H104    1.073   .     S
C91    C93     1.408   .     A
C92    H103    1.073   .     S
C92    C94     1.408   .     A
C93    C95     1.414   .     A
C93    C97     1.430   .     A
C94    C96     1.414   .     A
C94    C98     1.430   .     A
C95    C665    1.389   .     S
C96    C666    1.389   1_554 S
C97    C692    1.429   .     S
C98    C691    1.429   1_554 S
Cu99   N117    2.010   .     S
Cu99   O123    1.953   .     S
Cu99   O122    1.965   .     S
Cu99   O126    1.932   .     S
Cu99   O119    1.965   .     S
Cu100  N118    2.010   .     S
Cu100  O121    1.965   .     S
Cu100  O120    1.965   .     S
Cu100  O124    1.953   .     S
Cu100  O125    1.932   .     S
Cu100  Cu165   2.675   .     S
O120   C134    1.290   .     S
O124   C150    1.294   .     S
C127   H128    1.085   .     S
C127   O129    1.220   .     D
C127   C156    1.478   .     S
C130   H131    1.085   .     S
C130   O132    1.220   .     D
C133   O187    1.290   .     A
C133   C144    1.450   .     S
C133   O53     1.290   1_655 S
C134   O188    1.290   .     A
C134   C143    1.450   .     S
C135   C137    1.384   .     A
C135   C164    1.416   .     A
C135   H173    1.075   .     S
C136   H174    1.075   .     S
C136   C138    1.384   .     A
C136   C163    1.416   .     A
C137   H167    1.084   .     S
C137   C755    1.389   1_554 S
C138   H168    1.084   .     S
C138   C756    1.389   .     S
C139   C144    1.401   .     A
C139   H175    1.083   .     S
C139   C537    1.384   1_545 S
C140   C143    1.401   .     A
C140   H176    1.083   .     S
C140   C340    1.384   .     S
C141   H177    1.083   .     S
C141   C337    1.384   .     S
C141   C11     1.401   1_655 S
C142   H178    1.083   .     S
C142   C536    1.384   1_545 S
C144   C10     1.401   1_655 S
C145   N184    1.367   .     A
C145   C147    1.415   .     A
C145   H179    1.082   .     S
C146   C148    1.415   .     A
C146   N183    1.367   .     A
C146   H180    1.082   .     S
C147   N183    1.366   .     A
C147   H181    1.082   .     S
C148   N184    1.366   .     A
C148   H182    1.082   .     S
C149   O191    1.302   .     A
C149   C151    1.484   .     S
C149   O57     1.294   1_655 S
C150   C152    1.483   .     S
C150   O192    1.302   .     A
C151   C155    1.420   .     A
C151   C157    1.404   .     A
C152   C156    1.420   .     A
C152   C158    1.403   .     A
C153   C161    1.399   .     A
C153   H171    1.086   .     S
C153   C155    1.396   .     A
C154   H172    1.086   .     S
C154   C156    1.396   .     A
C154   C162    1.399   .     A
C155   C64     1.478   1_655 S
C157   H170    1.073   .     S
C157   C159    1.408   .     A
C158   H169    1.073   .     S
C158   C160    1.408   .     A
C159   C161    1.414   .     A
C159   C163    1.430   .     A
C160   C162    1.414   .     A
C160   C164    1.430   .     A
C161   C731    1.389   .     S
C162   C732    1.389   1_554 S
C163   C758    1.429   .     S
C164   C757    1.429   1_554 S
Cu165  N183    2.010   .     S
Cu165  O189    1.953   .     S
Cu165  O188    1.965   .     S
Cu165  O192    1.932   .     S
Cu165  O185    1.965   .     S
Cu166  N184    2.010   .     S
Cu166  O187    1.965   .     S
Cu166  O186    1.965   .     S
Cu166  O190    1.953   .     S
Cu166  O191    1.932   .     S
Cu166  Cu33    2.675   1_655 S
O186   C2      1.290   1_655 S
O190   C18     1.294   1_655 S
C193   H194    1.085   .     S
C193   O195    1.220   .     D
C193   C24     1.478   1_655 S
C196   H197    1.085   .     S
C196   O198    1.220   .     D
C199   O253    1.290   .     A
C199   C210    1.450   .     S
C199   O317    1.290   .     S
C200   O254    1.290   .     A
C200   C209    1.450   .     S
C200   O384    1.290   1_455 S
C201   C203    1.384   .     A
C201   C230    1.416   .     A
C201   H239    1.075   .     S
C202   H240    1.075   .     S
C202   C204    1.384   .     A
C202   C229    1.416   .     A
C203   H233    1.084   .     S
C203   C821    1.389   1_554 S
C204   H234    1.084   .     S
C204   C822    1.389   .     S
C205   C210    1.401   .     A
C205   H241    1.083   .     S
C206   C209    1.401   .     A
C206   H242    1.083   .     S
C206   C406    1.384   .     S
C207   H243    1.083   .     S
C207   C403    1.384   .     S
C207   C275    1.401   .     S
C208   H244    1.083   .     S
C208   C342    1.401   1_455 S
C209   C339    1.401   1_455 S
C210   C274    1.401   .     S
C211   N250    1.367   .     A
C211   C213    1.415   .     A
C211   H245    1.082   .     S
C212   C214    1.415   .     A
C212   N249    1.367   .     A
C212   H246    1.082   .     S
C213   N249    1.366   .     A
C213   H247    1.082   .     S
C214   N250    1.366   .     A
C214   H248    1.082   .     S
C215   O257    1.302   .     A
C215   C217    1.484   .     S
C215   O321    1.294   .     S
C216   C218    1.483   .     S
C216   O258    1.302   .     A
C216   O388    1.294   1_455 S
C217   C221    1.420   .     A
C217   C223    1.404   .     A
C218   C222    1.420   .     A
C218   C224    1.403   .     A
C219   C227    1.399   .     A
C219   H237    1.086   .     S
C219   C221    1.396   .     A
C220   H238    1.086   .     S
C220   C222    1.396   .     A
C220   C228    1.399   .     A
C221   C328    1.478   .     S
C222   C391    1.478   1_455 S
C223   H236    1.073   .     S
C223   C225    1.408   .     A
C224   H235    1.073   .     S
C224   C226    1.408   .     A
C225   C227    1.414   .     A
C225   C229    1.430   .     A
C226   C228    1.414   .     A
C226   C230    1.430   .     A
C227   C797    1.389   .     S
C228   C798    1.389   1_554 S
C229   C824    1.429   .     S
C230   C823    1.429   1_554 S
Cu231  N249    2.010   .     S
Cu231  O255    1.953   .     S
Cu231  O254    1.965   .     S
Cu231  O258    1.932   .     S
Cu231  O251    1.965   .     S
Cu231  Cu364   2.675   1_455 S
Cu232  N250    2.010   .     S
Cu232  O253    1.965   .     S
Cu232  O252    1.965   .     S
Cu232  O256    1.953   .     S
Cu232  O257    1.932   .     S
Cu232  Cu297   2.675   .     S
O251   C331    1.290   1_455 S
O252   C266    1.290   .     S
O255   C347    1.294   1_455 S
O256   C282    1.294   .     S
C259   H260    1.085   .     S
C259   O261    1.220   .     D
C259   C288    1.478   .     S
C262   H263    1.085   .     S
C262   O264    1.220   .     D
C262   C353    1.478   1_455 S
C265   O319    1.290   .     A
C265   C276    1.450   .     S
C265   O383    1.290   .     S
C266   O320    1.290   .     A
C266   C275    1.450   .     S
C267   C269    1.384   .     A
C267   C296    1.416   .     A
C267   H305    1.075   .     S
C268   H306    1.075   .     S
C268   C270    1.384   .     A
C268   C295    1.416   .     A
C269   H299    1.084   .     S
C269   C887    1.389   1_554 S
C270   H300    1.084   .     S
C270   C888    1.389   .     S
C271   C276    1.401   .     A
C271   H307    1.083   .     S
C272   C275    1.401   .     A
C272   H308    1.083   .     S
C272   C472    1.384   .     S
C273   H309    1.083   .     S
C273   C469    1.384   .     S
C273   C341    1.401   .     S
C274   H310    1.083   .     S
C276   C340    1.401   .     S
C277   N316    1.367   .     A
C277   C279    1.415   .     A
C277   H311    1.082   .     S
C278   C280    1.415   .     A
C278   N315    1.367   .     A
C278   H312    1.082   .     S
C279   N315    1.366   .     A
C279   H313    1.082   .     S
C280   N316    1.366   .     A
C280   H314    1.082   .     S
C281   O323    1.302   .     A
C281   C283    1.484   .     S
C281   O387    1.294   .     S
C282   C284    1.483   .     S
C282   O324    1.302   .     A
C283   C287    1.420   .     A
C283   C289    1.404   .     A
C284   C288    1.420   .     A
C284   C290    1.403   .     A
C285   C293    1.399   .     A
C285   H303    1.086   .     S
C285   C287    1.396   .     A
C286   H304    1.086   .     S
C286   C288    1.396   .     A
C286   C294    1.399   .     A
C287   C394    1.478   .     S
C289   H302    1.073   .     S
C289   C291    1.408   .     A
C290   H301    1.073   .     S
C290   C292    1.408   .     A
C291   C293    1.414   .     A
C291   C295    1.430   .     A
C292   C294    1.414   .     A
C292   C296    1.430   .     A
C293   C863    1.389   .     S
C294   C864    1.389   1_554 S
C295   C890    1.429   .     S
C296   C889    1.429   1_554 S
Cu297  N315    2.010   .     S
Cu297  O321    1.953   .     S
Cu297  O320    1.965   .     S
Cu297  O324    1.932   .     S
Cu297  O317    1.965   .     S
Cu298  N316    2.010   .     S
Cu298  O319    1.965   .     S
Cu298  O318    1.965   .     S
Cu298  O322    1.953   .     S
Cu298  O323    1.932   .     S
Cu298  Cu363   2.675   .     S
O318   C332    1.290   .     S
O322   C348    1.294   .     S
C325   H326    1.085   .     S
C325   O327    1.220   .     D
C325   C354    1.478   .     S
C328   H329    1.085   .     S
C328   O330    1.220   .     D
C331   O385    1.290   .     A
C331   C342    1.450   .     S
C331   O251    1.290   1_655 S
C332   O386    1.290   .     A
C332   C341    1.450   .     S
C333   C335    1.384   .     A
C333   C362    1.416   .     A
C333   H371    1.075   .     S
C334   H372    1.075   .     S
C334   C336    1.384   .     A
C334   C361    1.416   .     A
C335   H365    1.084   .     S
C335   C953    1.389   1_554 S
C336   H366    1.084   .     S
C336   C954    1.389   .     S
C337   C342    1.401   .     A
C337   H373    1.083   .     S
C338   C341    1.401   .     A
C338   H374    1.083   .     S
C338   C538    1.384   .     S
C339   H375    1.083   .     S
C339   C535    1.384   .     S
C339   C209    1.401   1_655 S
C340   H376    1.083   .     S
C342   C208    1.401   1_655 S
C343   N382    1.367   .     A
C343   C345    1.415   .     A
C343   H377    1.082   .     S
C344   C346    1.415   .     A
C344   N381    1.367   .     A
C344   H378    1.082   .     S
C345   N381    1.366   .     A
C345   H379    1.082   .     S
C346   N382    1.366   .     A
C346   H380    1.082   .     S
C347   O389    1.302   .     A
C347   C349    1.484   .     S
C347   O255    1.294   1_655 S
C348   C350    1.483   .     S
C348   O390    1.302   .     A
C349   C353    1.420   .     A
C349   C355    1.404   .     A
C350   C354    1.420   .     A
C350   C356    1.403   .     A
C351   C359    1.399   .     A
C351   H369    1.086   .     S
C351   C353    1.396   .     A
C352   H370    1.086   .     S
C352   C354    1.396   .     A
C352   C360    1.399   .     A
C353   C262    1.478   1_655 S
C355   H368    1.073   .     S
C355   C357    1.408   .     A
C356   H367    1.073   .     S
C356   C358    1.408   .     A
C357   C359    1.414   .     A
C357   C361    1.430   .     A
C358   C360    1.414   .     A
C358   C362    1.430   .     A
C359   C929    1.389   .     S
C360   C930    1.389   1_554 S
C361   C956    1.429   .     S
C362   C955    1.429   1_554 S
Cu363  N381    2.010   .     S
Cu363  O387    1.953   .     S
Cu363  O386    1.965   .     S
Cu363  O390    1.932   .     S
Cu363  O383    1.965   .     S
Cu364  N382    2.010   .     S
Cu364  O385    1.965   .     S
Cu364  O384    1.965   .     S
Cu364  O388    1.953   .     S
Cu364  O389    1.932   .     S
Cu364  Cu231   2.675   1_655 S
O384   C200    1.290   1_655 S
O388   C216    1.294   1_655 S
C391   H392    1.085   .     S
C391   O393    1.220   .     D
C391   C222    1.478   1_655 S
C394   H395    1.085   .     S
C394   O396    1.220   .     D
C397   O451    1.290   .     A
C397   C408    1.450   .     S
C397   O515    1.290   .     S
C398   O452    1.290   .     A
C398   C407    1.450   .     S
C398   O582    1.290   1_455 S
C399   C401    1.384   .     A
C399   C428    1.416   .     A
C399   H437    1.075   .     S
C400   H438    1.075   .     S
C400   C402    1.384   .     A
C400   C427    1.416   .     A
C401   H431    1.084   .     S
C401   C1019   1.389   1_554 S
C402   H432    1.084   .     S
C402   C1020   1.389   .     S
C403   C408    1.401   .     A
C403   H439    1.083   .     S
C404   C407    1.401   .     A
C404   H440    1.083   .     S
C404   C10     1.384   1_565 S
C405   H441    1.083   .     S
C405   C7      1.384   1_565 S
C405   C473    1.401   .     S
C406   H442    1.083   .     S
C406   C540    1.401   1_455 S
C407   C537    1.401   1_455 S
C408   C472    1.401   .     S
C409   N448    1.367   .     A
C409   C411    1.415   .     A
C409   H443    1.082   .     S
C410   C412    1.415   .     A
C410   N447    1.367   .     A
C410   H444    1.082   .     S
C411   N447    1.366   .     A
C411   H445    1.082   .     S
C412   N448    1.366   .     A
C412   H446    1.082   .     S
C413   O455    1.302   .     A
C413   C415    1.484   .     S
C413   O519    1.294   .     S
C414   C416    1.483   .     S
C414   O456    1.302   .     A
C414   O586    1.294   1_455 S
C415   C419    1.420   .     A
C415   C421    1.404   .     A
C416   C420    1.420   .     A
C416   C422    1.403   .     A
C417   C425    1.399   .     A
C417   H435    1.086   .     S
C417   C419    1.396   .     A
C418   H436    1.086   .     S
C418   C420    1.396   .     A
C418   C426    1.399   .     A
C419   C526    1.478   .     S
C420   C589    1.478   1_455 S
C421   H434    1.073   .     S
C421   C423    1.408   .     A
C422   H433    1.073   .     S
C422   C424    1.408   .     A
C423   C425    1.414   .     A
C423   C427    1.430   .     A
C424   C426    1.414   .     A
C424   C428    1.430   .     A
C425   C995    1.389   .     S
C426   C996    1.389   1_554 S
C427   C1022   1.429   .     S
C428   C1021   1.429   1_554 S
Cu429  N447    2.010   .     S
Cu429  O453    1.953   .     S
Cu429  O452    1.965   .     S
Cu429  O456    1.932   .     S
Cu429  O449    1.965   .     S
Cu429  Cu562   2.675   1_455 S
Cu430  N448    2.010   .     S
Cu430  O451    1.965   .     S
Cu430  O450    1.965   .     S
Cu430  O454    1.953   .     S
Cu430  O455    1.932   .     S
Cu430  Cu495   2.675   .     S
O449   C529    1.290   1_455 S
O450   C464    1.290   .     S
O453   C545    1.294   1_455 S
O454   C480    1.294   .     S
C457   H458    1.085   .     S
C457   O459    1.220   .     D
C457   C486    1.478   .     S
C460   H461    1.085   .     S
C460   O462    1.220   .     D
C460   C551    1.478   1_455 S
C463   O517    1.290   .     A
C463   C474    1.450   .     S
C463   O581    1.290   .     S
C464   O518    1.290   .     A
C464   C473    1.450   .     S
C465   C467    1.384   .     A
C465   C494    1.416   .     A
C465   H503    1.075   .     S
C466   H504    1.075   .     S
C466   C468    1.384   .     A
C466   C493    1.416   .     A
C467   H497    1.084   .     S
C467   C1085   1.389   1_554 S
C468   H498    1.084   .     S
C468   C1086   1.389   .     S
C469   C474    1.401   .     A
C469   H505    1.083   .     S
C470   C473    1.401   .     A
C470   H506    1.083   .     S
C470   C76     1.384   1_565 S
C471   H507    1.083   .     S
C471   C73     1.384   1_565 S
C471   C539    1.401   .     S
C472   H508    1.083   .     S
C474   C538    1.401   .     S
C475   N514    1.367   .     A
C475   C477    1.415   .     A
C475   H509    1.082   .     S
C476   C478    1.415   .     A
C476   N513    1.367   .     A
C476   H510    1.082   .     S
C477   N513    1.366   .     A
C477   H511    1.082   .     S
C478   N514    1.366   .     A
C478   H512    1.082   .     S
C479   O521    1.302   .     A
C479   C481    1.484   .     S
C479   O585    1.294   .     S
C480   C482    1.483   .     S
C480   O522    1.302   .     A
C481   C485    1.420   .     A
C481   C487    1.404   .     A
C482   C486    1.420   .     A
C482   C488    1.403   .     A
C483   C491    1.399   .     A
C483   H501    1.086   .     S
C483   C485    1.396   .     A
C484   H502    1.086   .     S
C484   C486    1.396   .     A
C484   C492    1.399   .     A
C485   C592    1.478   .     S
C487   H500    1.073   .     S
C487   C489    1.408   .     A
C488   H499    1.073   .     S
C488   C490    1.408   .     A
C489   C491    1.414   .     A
C489   C493    1.430   .     A
C490   C492    1.414   .     A
C490   C494    1.430   .     A
C491   C1061   1.389   .     S
C492   C1062   1.389   1_554 S
C493   C1088   1.429   .     S
C494   C1087   1.429   1_554 S
Cu495  N513    2.010   .     S
Cu495  O519    1.953   .     S
Cu495  O518    1.965   .     S
Cu495  O522    1.932   .     S
Cu495  O515    1.965   .     S
Cu496  N514    2.010   .     S
Cu496  O517    1.965   .     S
Cu496  O516    1.965   .     S
Cu496  O520    1.953   .     S
Cu496  O521    1.932   .     S
Cu496  Cu561   2.675   .     S
O516   C530    1.290   .     S
O520   C546    1.294   .     S
C523   H524    1.085   .     S
C523   O525    1.220   .     D
C523   C552    1.478   .     S
C526   H527    1.085   .     S
C526   O528    1.220   .     D
C529   O583    1.290   .     A
C529   C540    1.450   .     S
C529   O449    1.290   1_655 S
C530   O584    1.290   .     A
C530   C539    1.450   .     S
C531   C533    1.384   .     A
C531   C560    1.416   .     A
C531   H569    1.075   .     S
C532   H570    1.075   .     S
C532   C534    1.384   .     A
C532   C559    1.416   .     A
C533   H563    1.084   .     S
C533   C1151   1.389   1_554 S
C534   H564    1.084   .     S
C534   C1152   1.389   .     S
C535   C540    1.401   .     A
C535   H571    1.083   .     S
C536   C539    1.401   .     A
C536   H572    1.083   .     S
C536   C142    1.384   1_565 S
C537   H573    1.083   .     S
C537   C139    1.384   1_565 S
C537   C407    1.401   1_655 S
C538   H574    1.083   .     S
C540   C406    1.401   1_655 S
C541   N580    1.367   .     A
C541   C543    1.415   .     A
C541   H575    1.082   .     S
C542   C544    1.415   .     A
C542   N579    1.367   .     A
C542   H576    1.082   .     S
C543   N579    1.366   .     A
C543   H577    1.082   .     S
C544   N580    1.366   .     A
C544   H578    1.082   .     S
C545   O587    1.302   .     A
C545   C547    1.484   .     S
C545   O453    1.294   1_655 S
C546   C548    1.483   .     S
C546   O588    1.302   .     A
C547   C551    1.420   .     A
C547   C553    1.404   .     A
C548   C552    1.420   .     A
C548   C554    1.403   .     A
C549   C557    1.399   .     A
C549   H567    1.086   .     S
C549   C551    1.396   .     A
C550   H568    1.086   .     S
C550   C552    1.396   .     A
C550   C558    1.399   .     A
C551   C460    1.478   1_655 S
C553   H566    1.073   .     S
C553   C555    1.408   .     A
C554   H565    1.073   .     S
C554   C556    1.408   .     A
C555   C557    1.414   .     A
C555   C559    1.430   .     A
C556   C558    1.414   .     A
C556   C560    1.430   .     A
C557   C1127   1.389   .     S
C558   C1128   1.389   1_554 S
C559   C1154   1.429   .     S
C560   C1153   1.429   1_554 S
Cu561  N579    2.010   .     S
Cu561  O585    1.953   .     S
Cu561  O584    1.965   .     S
Cu561  O588    1.932   .     S
Cu561  O581    1.965   .     S
Cu562  N580    2.010   .     S
Cu562  O583    1.965   .     S
Cu562  O582    1.965   .     S
Cu562  O586    1.953   .     S
Cu562  O587    1.932   .     S
Cu562  Cu429   2.675   1_655 S
O582   C398    1.290   1_655 S
O586   C414    1.294   1_655 S
C589   H590    1.085   .     S
C589   O591    1.220   .     D
C589   C420    1.478   1_655 S
C592   H593    1.085   .     S
C592   O594    1.220   .     D
C595   O649    1.290   .     A
C595   C606    1.450   .     S
C595   O713    1.290   .     S
C596   O650    1.290   .     A
C596   C605    1.450   .     S
C596   O780    1.290   1_455 S
C597   C599    1.384   .     A
C597   C626    1.416   .     A
C597   H635    1.075   .     S
C598   H636    1.075   .     S
C598   C600    1.384   .     A
C598   C625    1.416   .     A
C599   H629    1.084   .     S
C600   H630    1.084   .     S
C600   C30     1.389   1_556 S
C601   C606    1.401   .     A
C601   H637    1.083   .     S
C601   C999    1.384   1_545 S
C602   C605    1.401   .     A
C602   H638    1.083   .     S
C602   C802    1.384   .     S
C603   H639    1.083   .     S
C603   C799    1.384   .     S
C603   C671    1.401   .     S
C604   H640    1.083   .     S
C604   C998    1.384   1_545 S
C604   C738    1.401   1_455 S
C605   C735    1.401   1_455 S
C606   C670    1.401   .     S
C607   N646    1.367   .     A
C607   C609    1.415   .     A
C607   H641    1.082   .     S
C608   C610    1.415   .     A
C608   N645    1.367   .     A
C608   H642    1.082   .     S
C609   N645    1.366   .     A
C609   H643    1.082   .     S
C610   N646    1.366   .     A
C610   H644    1.082   .     S
C611   O653    1.302   .     A
C611   C613    1.484   .     S
C611   O717    1.294   .     S
C612   C614    1.483   .     S
C612   O654    1.302   .     A
C612   O784    1.294   1_455 S
C613   C617    1.420   .     A
C613   C619    1.404   .     A
C614   C618    1.420   .     A
C614   C620    1.403   .     A
C615   C623    1.399   .     A
C615   H633    1.086   .     S
C615   C617    1.396   .     A
C616   H634    1.086   .     S
C616   C618    1.396   .     A
C616   C624    1.399   .     A
C617   C724    1.478   .     S
C618   C787    1.478   1_455 S
C619   H632    1.073   .     S
C619   C621    1.408   .     A
C620   H631    1.073   .     S
C620   C622    1.408   .     A
C621   C623    1.414   .     A
C621   C625    1.430   .     A
C622   C624    1.414   .     A
C622   C626    1.430   .     A
C623   C5      1.389   1_556 S
C625   C32     1.429   1_556 S
Cu627  N645    2.010   .     S
Cu627  O651    1.953   .     S
Cu627  O650    1.965   .     S
Cu627  O654    1.932   .     S
Cu627  O647    1.965   .     S
Cu627  Cu760   2.675   1_455 S
Cu628  N646    2.010   .     S
Cu628  O649    1.965   .     S
Cu628  O648    1.965   .     S
Cu628  O652    1.953   .     S
Cu628  O653    1.932   .     S
Cu628  Cu693   2.675   .     S
O647   C727    1.290   1_455 S
O648   C662    1.290   .     S
O651   C743    1.294   1_455 S
O652   C678    1.294   .     S
C655   H656    1.085   .     S
C655   O657    1.220   .     D
C655   C684    1.478   .     S
C658   H659    1.085   .     S
C658   O660    1.220   .     D
C658   C749    1.478   1_455 S
C661   O715    1.290   .     A
C661   C672    1.450   .     S
C661   O779    1.290   .     S
C662   O716    1.290   .     A
C662   C671    1.450   .     S
C663   C665    1.384   .     A
C663   C692    1.416   .     A
C663   H701    1.075   .     S
C664   H702    1.075   .     S
C664   C666    1.384   .     A
C664   C691    1.416   .     A
C665   H695    1.084   .     S
C666   H696    1.084   .     S
C666   C96     1.389   1_556 S
C667   C672    1.401   .     A
C667   H703    1.083   .     S
C667   C1065   1.384   1_545 S
C668   C671    1.401   .     A
C668   H704    1.083   .     S
C668   C868    1.384   .     S
C669   H705    1.083   .     S
C669   C865    1.384   .     S
C669   C737    1.401   .     S
C670   H706    1.083   .     S
C670   C1064   1.384   1_545 S
C672   C736    1.401   .     S
C673   N712    1.367   .     A
C673   C675    1.415   .     A
C673   H707    1.082   .     S
C674   C676    1.415   .     A
C674   N711    1.367   .     A
C674   H708    1.082   .     S
C675   N711    1.366   .     A
C675   H709    1.082   .     S
C676   N712    1.366   .     A
C676   H710    1.082   .     S
C677   O719    1.302   .     A
C677   C679    1.484   .     S
C677   O783    1.294   .     S
C678   C680    1.483   .     S
C678   O720    1.302   .     A
C679   C683    1.420   .     A
C679   C685    1.404   .     A
C680   C684    1.420   .     A
C680   C686    1.403   .     A
C681   C689    1.399   .     A
C681   H699    1.086   .     S
C681   C683    1.396   .     A
C682   H700    1.086   .     S
C682   C684    1.396   .     A
C682   C690    1.399   .     A
C683   C790    1.478   .     S
C685   H698    1.073   .     S
C685   C687    1.408   .     A
C686   H697    1.073   .     S
C686   C688    1.408   .     A
C687   C689    1.414   .     A
C687   C691    1.430   .     A
C688   C690    1.414   .     A
C688   C692    1.430   .     A
C689   C71     1.389   1_556 S
C691   C98     1.429   1_556 S
Cu693  N711    2.010   .     S
Cu693  O717    1.953   .     S
Cu693  O716    1.965   .     S
Cu693  O720    1.932   .     S
Cu693  O713    1.965   .     S
Cu694  N712    2.010   .     S
Cu694  O715    1.965   .     S
Cu694  O714    1.965   .     S
Cu694  O718    1.953   .     S
Cu694  O719    1.932   .     S
Cu694  Cu759   2.675   .     S
O714   C728    1.290   .     S
O718   C744    1.294   .     S
C721   H722    1.085   .     S
C721   O723    1.220   .     D
C721   C750    1.478   .     S
C724   H725    1.085   .     S
C724   O726    1.220   .     D
C727   O781    1.290   .     A
C727   C738    1.450   .     S
C727   O647    1.290   1_655 S
C728   O782    1.290   .     A
C728   C737    1.450   .     S
C729   C731    1.384   .     A
C729   C758    1.416   .     A
C729   H767    1.075   .     S
C730   H768    1.075   .     S
C730   C732    1.384   .     A
C730   C757    1.416   .     A
C731   H761    1.084   .     S
C732   H762    1.084   .     S
C732   C162    1.389   1_556 S
C733   C738    1.401   .     A
C733   H769    1.083   .     S
C733   C1131   1.384   1_545 S
C734   C737    1.401   .     A
C734   H770    1.083   .     S
C734   C934    1.384   .     S
C735   H771    1.083   .     S
C735   C931    1.384   .     S
C735   C605    1.401   1_655 S
C736   H772    1.083   .     S
C736   C1130   1.384   1_545 S
C738   C604    1.401   1_655 S
C739   N778    1.367   .     A
C739   C741    1.415   .     A
C739   H773    1.082   .     S
C740   C742    1.415   .     A
C740   N777    1.367   .     A
C740   H774    1.082   .     S
C741   N777    1.366   .     A
C741   H775    1.082   .     S
C742   N778    1.366   .     A
C742   H776    1.082   .     S
C743   O785    1.302   .     A
C743   C745    1.484   .     S
C743   O651    1.294   1_655 S
C744   C746    1.483   .     S
C744   O786    1.302   .     A
C745   C749    1.420   .     A
C745   C751    1.404   .     A
C746   C750    1.420   .     A
C746   C752    1.403   .     A
C747   C755    1.399   .     A
C747   H765    1.086   .     S
C747   C749    1.396   .     A
C748   H766    1.086   .     S
C748   C750    1.396   .     A
C748   C756    1.399   .     A
C749   C658    1.478   1_655 S
C751   H764    1.073   .     S
C751   C753    1.408   .     A
C752   H763    1.073   .     S
C752   C754    1.408   .     A
C753   C755    1.414   .     A
C753   C757    1.430   .     A
C754   C756    1.414   .     A
C754   C758    1.430   .     A
C755   C137    1.389   1_556 S
C757   C164    1.429   1_556 S
Cu759  N777    2.010   .     S
Cu759  O783    1.953   .     S
Cu759  O782    1.965   .     S
Cu759  O786    1.932   .     S
Cu759  O779    1.965   .     S
Cu760  N778    2.010   .     S
Cu760  O781    1.965   .     S
Cu760  O780    1.965   .     S
Cu760  O784    1.953   .     S
Cu760  O785    1.932   .     S
Cu760  Cu627   2.675   1_655 S
O780   C596    1.290   1_655 S
O784   C612    1.294   1_655 S
C787   H788    1.085   .     S
C787   O789    1.220   .     D
C787   C618    1.478   1_655 S
C790   H791    1.085   .     S
C790   O792    1.220   .     D
C793   O847    1.290   .     A
C793   C804    1.450   .     S
C793   O911    1.290   .     S
C794   O848    1.290   .     A
C794   C803    1.450   .     S
C794   O978    1.290   1_455 S
C795   C797    1.384   .     A
C795   C824    1.416   .     A
C795   H833    1.075   .     S
C796   H834    1.075   .     S
C796   C798    1.384   .     A
C796   C823    1.416   .     A
C797   H827    1.084   .     S
C798   H828    1.084   .     S
C798   C228    1.389   1_556 S
C799   C804    1.401   .     A
C799   H835    1.083   .     S
C800   C803    1.401   .     A
C800   H836    1.083   .     S
C800   C1000   1.384   .     S
C801   H837    1.083   .     S
C801   C997    1.384   .     S
C801   C869    1.401   .     S
C802   H838    1.083   .     S
C802   C936    1.401   1_455 S
C803   C933    1.401   1_455 S
C804   C868    1.401   .     S
C805   N844    1.367   .     A
C805   C807    1.415   .     A
C805   H839    1.082   .     S
C806   C808    1.415   .     A
C806   N843    1.367   .     A
C806   H840    1.082   .     S
C807   N843    1.366   .     A
C807   H841    1.082   .     S
C808   N844    1.366   .     A
C808   H842    1.082   .     S
C809   O851    1.302   .     A
C809   C811    1.484   .     S
C809   O915    1.294   .     S
C810   C812    1.483   .     S
C810   O852    1.302   .     A
C810   O982    1.294   1_455 S
C811   C815    1.420   .     A
C811   C817    1.404   .     A
C812   C816    1.420   .     A
C812   C818    1.403   .     A
C813   C821    1.399   .     A
C813   H831    1.086   .     S
C813   C815    1.396   .     A
C814   H832    1.086   .     S
C814   C816    1.396   .     A
C814   C822    1.399   .     A
C815   C922    1.478   .     S
C816   C985    1.478   1_455 S
C817   H830    1.073   .     S
C817   C819    1.408   .     A
C818   H829    1.073   .     S
C818   C820    1.408   .     A
C819   C821    1.414   .     A
C819   C823    1.430   .     A
C820   C822    1.414   .     A
C820   C824    1.430   .     A
C821   C203    1.389   1_556 S
C823   C230    1.429   1_556 S
Cu825  N843    2.010   .     S
Cu825  O849    1.953   .     S
Cu825  O848    1.965   .     S
Cu825  O852    1.932   .     S
Cu825  O845    1.965   .     S
Cu825  Cu958   2.675   1_455 S
Cu826  N844    2.010   .     S
Cu826  O847    1.965   .     S
Cu826  O846    1.965   .     S
Cu826  O850    1.953   .     S
Cu826  O851    1.932   .     S
Cu826  Cu891   2.675   .     S
O845   C925    1.290   1_455 S
O846   C860    1.290   .     S
O849   C941    1.294   1_455 S
O850   C876    1.294   .     S
C853   H854    1.085   .     S
C853   O855    1.220   .     D
C853   C882    1.478   .     S
C856   H857    1.085   .     S
C856   O858    1.220   .     D
C856   C947    1.478   1_455 S
C859   O913    1.290   .     A
C859   C870    1.450   .     S
C859   O977    1.290   .     S
C860   O914    1.290   .     A
C860   C869    1.450   .     S
C861   C863    1.384   .     A
C861   C890    1.416   .     A
C861   H899    1.075   .     S
C862   H900    1.075   .     S
C862   C864    1.384   .     A
C862   C889    1.416   .     A
C863   H893    1.084   .     S
C864   H894    1.084   .     S
C864   C294    1.389   1_556 S
C865   C870    1.401   .     A
C865   H901    1.083   .     S
C866   C869    1.401   .     A
C866   H902    1.083   .     S
C866   C1066   1.384   .     S
C867   H903    1.083   .     S
C867   C1063   1.384   .     S
C867   C935    1.401   .     S
C868   H904    1.083   .     S
C870   C934    1.401   .     S
C871   N910    1.367   .     A
C871   C873    1.415   .     A
C871   H905    1.082   .     S
C872   C874    1.415   .     A
C872   N909    1.367   .     A
C872   H906    1.082   .     S
C873   N909    1.366   .     A
C873   H907    1.082   .     S
C874   N910    1.366   .     A
C874   H908    1.082   .     S
C875   O917    1.302   .     A
C875   C877    1.484   .     S
C875   O981    1.294   .     S
C876   C878    1.483   .     S
C876   O918    1.302   .     A
C877   C881    1.420   .     A
C877   C883    1.404   .     A
C878   C882    1.420   .     A
C878   C884    1.403   .     A
C879   C887    1.399   .     A
C879   H897    1.086   .     S
C879   C881    1.396   .     A
C880   H898    1.086   .     S
C880   C882    1.396   .     A
C880   C888    1.399   .     A
C881   C988    1.478   .     S
C883   H896    1.073   .     S
C883   C885    1.408   .     A
C884   H895    1.073   .     S
C884   C886    1.408   .     A
C885   C887    1.414   .     A
C885   C889    1.430   .     A
C886   C888    1.414   .     A
C886   C890    1.430   .     A
C887   C269    1.389   1_556 S
C889   C296    1.429   1_556 S
Cu891  N909    2.010   .     S
Cu891  O915    1.953   .     S
Cu891  O914    1.965   .     S
Cu891  O918    1.932   .     S
Cu891  O911    1.965   .     S
Cu892  N910    2.010   .     S
Cu892  O913    1.965   .     S
Cu892  O912    1.965   .     S
Cu892  O916    1.953   .     S
Cu892  O917    1.932   .     S
Cu892  Cu957   2.675   .     S
O912   C926    1.290   .     S
O916   C942    1.294   .     S
C919   H920    1.085   .     S
C919   O921    1.220   .     D
C919   C948    1.478   .     S
C922   H923    1.085   .     S
C922   O924    1.220   .     D
C925   O979    1.290   .     A
C925   C936    1.450   .     S
C925   O845    1.290   1_655 S
C926   O980    1.290   .     A
C926   C935    1.450   .     S
C927   C929    1.384   .     A
C927   C956    1.416   .     A
C927   H965    1.075   .     S
C928   H966    1.075   .     S
C928   C930    1.384   .     A
C928   C955    1.416   .     A
C929   H959    1.084   .     S
C930   H960    1.084   .     S
C930   C360    1.389   1_556 S
C931   C936    1.401   .     A
C931   H967    1.083   .     S
C932   C935    1.401   .     A
C932   H968    1.083   .     S
C932   C1132   1.384   .     S
C933   H969    1.083   .     S
C933   C1129   1.384   .     S
C933   C803    1.401   1_655 S
C934   H970    1.083   .     S
C936   C802    1.401   1_655 S
C937   N976    1.367   .     A
C937   C939    1.415   .     A
C937   H971    1.082   .     S
C938   C940    1.415   .     A
C938   N975    1.367   .     A
C938   H972    1.082   .     S
C939   N975    1.366   .     A
C939   H973    1.082   .     S
C940   N976    1.366   .     A
C940   H974    1.082   .     S
C941   O983    1.302   .     A
C941   C943    1.484   .     S
C941   O849    1.294   1_655 S
C942   C944    1.483   .     S
C942   O984    1.302   .     A
C943   C947    1.420   .     A
C943   C949    1.404   .     A
C944   C948    1.420   .     A
C944   C950    1.403   .     A
C945   C953    1.399   .     A
C945   H963    1.086   .     S
C945   C947    1.396   .     A
C946   H964    1.086   .     S
C946   C948    1.396   .     A
C946   C954    1.399   .     A
C947   C856    1.478   1_655 S
C949   H962    1.073   .     S
C949   C951    1.408   .     A
C950   H961    1.073   .     S
C950   C952    1.408   .     A
C951   C953    1.414   .     A
C951   C955    1.430   .     A
C952   C954    1.414   .     A
C952   C956    1.430   .     A
C953   C335    1.389   1_556 S
C955   C362    1.429   1_556 S
Cu957  N975    2.010   .     S
Cu957  O981    1.953   .     S
Cu957  O980    1.965   .     S
Cu957  O984    1.932   .     S
Cu957  O977    1.965   .     S
Cu958  N976    2.010   .     S
Cu958  O979    1.965   .     S
Cu958  O978    1.965   .     S
Cu958  O982    1.953   .     S
Cu958  O983    1.932   .     S
Cu958  Cu825   2.675   1_655 S
O978   C794    1.290   1_655 S
O982   C810    1.294   1_655 S
C985   H986    1.085   .     S
C985   O987    1.220   .     D
C985   C816    1.478   1_655 S
C988   H989    1.085   .     S
C988   O990    1.220   .     D
C991   O1045   1.290   .     A
C991   C1002   1.450   .     S
C991   O1109   1.290   .     S
C992   O1046   1.290   .     A
C992   C1001   1.450   .     S
C992   O1176   1.290   1_455 S
C993   C995    1.384   .     A
C993   C1022   1.416   .     A
C993   H1031   1.075   .     S
C994   H1032   1.075   .     S
C994   C996    1.384   .     A
C994   C1021   1.416   .     A
C995   H1025   1.084   .     S
C996   H1026   1.084   .     S
C996   C426    1.389   1_556 S
C997   C1002   1.401   .     A
C997   H1033   1.083   .     S
C998   C1001   1.401   .     A
C998   H1034   1.083   .     S
C998   C604    1.384   1_565 S
C999   H1035   1.083   .     S
C999   C601    1.384   1_565 S
C999   C1067   1.401   .     S
C1000  H1036   1.083   .     S
C1000  C1134   1.401   1_455 S
C1001  C1131   1.401   1_455 S
C1002  C1066   1.401   .     S
C1003  N1042   1.367   .     A
C1003  C1005   1.415   .     A
C1003  H1037   1.082   .     S
C1004  C1006   1.415   .     A
C1004  N1041   1.367   .     A
C1004  H1038   1.082   .     S
C1005  N1041   1.366   .     A
C1005  H1039   1.082   .     S
C1006  N1042   1.366   .     A
C1006  H1040   1.082   .     S
C1007  O1049   1.302   .     A
C1007  C1009   1.484   .     S
C1007  O1113   1.294   .     S
C1008  C1010   1.483   .     S
C1008  O1050   1.302   .     A
C1008  O1180   1.294   1_455 S
C1009  C1013   1.420   .     A
C1009  C1015   1.404   .     A
C1010  C1014   1.420   .     A
C1010  C1016   1.403   .     A
C1011  C1019   1.399   .     A
C1011  H1029   1.086   .     S
C1011  C1013   1.396   .     A
C1012  H1030   1.086   .     S
C1012  C1014   1.396   .     A
C1012  C1020   1.399   .     A
C1013  C1120   1.478   .     S
C1014  C1183   1.478   1_455 S
C1015  H1028   1.073   .     S
C1015  C1017   1.408   .     A
C1016  H1027   1.073   .     S
C1016  C1018   1.408   .     A
C1017  C1019   1.414   .     A
C1017  C1021   1.430   .     A
C1018  C1020   1.414   .     A
C1018  C1022   1.430   .     A
C1019  C401    1.389   1_556 S
C1021  C428    1.429   1_556 S
Cu1023 N1041   2.010   .     S
Cu1023 O1047   1.953   .     S
Cu1023 O1046   1.965   .     S
Cu1023 O1050   1.932   .     S
Cu1023 O1043   1.965   .     S
Cu1023 Cu1156  2.675   1_455 S
Cu1024 N1042   2.010   .     S
Cu1024 O1045   1.965   .     S
Cu1024 O1044   1.965   .     S
Cu1024 O1048   1.953   .     S
Cu1024 O1049   1.932   .     S
Cu1024 Cu1089  2.675   .     S
O1043  C1123   1.290   1_455 S
O1044  C1058   1.290   .     S
O1047  C1139   1.294   1_455 S
O1048  C1074   1.294   .     S
C1051  H1052   1.085   .     S
C1051  O1053   1.220   .     D
C1051  C1080   1.478   .     S
C1054  H1055   1.085   .     S
C1054  O1056   1.220   .     D
C1054  C1145   1.478   1_455 S
C1057  O1111   1.290   .     A
C1057  C1068   1.450   .     S
C1057  O1175   1.290   .     S
C1058  O1112   1.290   .     A
C1058  C1067   1.450   .     S
C1059  C1061   1.384   .     A
C1059  C1088   1.416   .     A
C1059  H1097   1.075   .     S
C1060  H1098   1.075   .     S
C1060  C1062   1.384   .     A
C1060  C1087   1.416   .     A
C1061  H1091   1.084   .     S
C1062  H1092   1.084   .     S
C1062  C492    1.389   1_556 S
C1063  C1068   1.401   .     A
C1063  H1099   1.083   .     S
C1064  C1067   1.401   .     A
C1064  H1100   1.083   .     S
C1064  C670    1.384   1_565 S
C1065  H1101   1.083   .     S
C1065  C667    1.384   1_565 S
C1065  C1133   1.401   .     S
C1066  H1102   1.083   .     S
C1068  C1132   1.401   .     S
C1069  N1108   1.367   .     A
C1069  C1071   1.415   .     A
C1069  H1103   1.082   .     S
C1070  C1072   1.415   .     A
C1070  N1107   1.367   .     A
C1070  H1104   1.082   .     S
C1071  N1107   1.366   .     A
C1071  H1105   1.082   .     S
C1072  N1108   1.366   .     A
C1072  H1106   1.082   .     S
C1073  O1115   1.302   .     A
C1073  C1075   1.484   .     S
C1073  O1179   1.294   .     S
C1074  C1076   1.483   .     S
C1074  O1116   1.302   .     A
C1075  C1079   1.420   .     A
C1075  C1081   1.404   .     A
C1076  C1080   1.420   .     A
C1076  C1082   1.403   .     A
C1077  C1085   1.399   .     A
C1077  H1095   1.086   .     S
C1077  C1079   1.396   .     A
C1078  H1096   1.086   .     S
C1078  C1080   1.396   .     A
C1078  C1086   1.399   .     A
C1079  C1186   1.478   .     S
C1081  H1094   1.073   .     S
C1081  C1083   1.408   .     A
C1082  H1093   1.073   .     S
C1082  C1084   1.408   .     A
C1083  C1085   1.414   .     A
C1083  C1087   1.430   .     A
C1084  C1086   1.414   .     A
C1084  C1088   1.430   .     A
C1085  C467    1.389   1_556 S
C1087  C494    1.429   1_556 S
Cu1089 N1107   2.010   .     S
Cu1089 O1113   1.953   .     S
Cu1089 O1112   1.965   .     S
Cu1089 O1116   1.932   .     S
Cu1089 O1109   1.965   .     S
Cu1090 N1108   2.010   .     S
Cu1090 O1111   1.965   .     S
Cu1090 O1110   1.965   .     S
Cu1090 O1114   1.953   .     S
Cu1090 O1115   1.932   .     S
Cu1090 Cu1155  2.675   .     S
O1110  C1124   1.290   .     S
O1114  C1140   1.294   .     S
C1117  H1118   1.085   .     S
C1117  O1119   1.220   .     D
C1117  C1146   1.478   .     S
C1120  H1121   1.085   .     S
C1120  O1122   1.220   .     D
C1123  O1177   1.290   .     A
C1123  C1134   1.450   .     S
C1123  O1043   1.290   1_655 S
C1124  O1178   1.290   .     A
C1124  C1133   1.450   .     S
C1125  C1127   1.384   .     A
C1125  C1154   1.416   .     A
C1125  H1163   1.075   .     S
C1126  H1164   1.075   .     S
C1126  C1128   1.384   .     A
C1126  C1153   1.416   .     A
C1127  H1157   1.084   .     S
C1128  H1158   1.084   .     S
C1128  C558    1.389   1_556 S
C1129  C1134   1.401   .     A
C1129  H1165   1.083   .     S
C1130  C1133   1.401   .     A
C1130  H1166   1.083   .     S
C1130  C736    1.384   1_565 S
C1131  H1167   1.083   .     S
C1131  C733    1.384   1_565 S
C1131  C1001   1.401   1_655 S
C1132  H1168   1.083   .     S
C1134  C1000   1.401   1_655 S
C1135  N1174   1.367   .     A
C1135  C1137   1.415   .     A
C1135  H1169   1.082   .     S
C1136  C1138   1.415   .     A
C1136  N1173   1.367   .     A
C1136  H1170   1.082   .     S
C1137  N1173   1.366   .     A
C1137  H1171   1.082   .     S
C1138  N1174   1.366   .     A
C1138  H1172   1.082   .     S
C1139  O1181   1.302   .     A
C1139  C1141   1.484   .     S
C1139  O1047   1.294   1_655 S
C1140  C1142   1.483   .     S
C1140  O1182   1.302   .     A
C1141  C1145   1.420   .     A
C1141  C1147   1.404   .     A
C1142  C1146   1.420   .     A
C1142  C1148   1.403   .     A
C1143  C1151   1.399   .     A
C1143  H1161   1.086   .     S
C1143  C1145   1.396   .     A
C1144  H1162   1.086   .     S
C1144  C1146   1.396   .     A
C1144  C1152   1.399   .     A
C1145  C1054   1.478   1_655 S
C1147  H1160   1.073   .     S
C1147  C1149   1.408   .     A
C1148  H1159   1.073   .     S
C1148  C1150   1.408   .     A
C1149  C1151   1.414   .     A
C1149  C1153   1.430   .     A
C1150  C1152   1.414   .     A
C1150  C1154   1.430   .     A
C1151  C533    1.389   1_556 S
C1153  C560    1.429   1_556 S
Cu1155 N1173   2.010   .     S
Cu1155 O1179   1.953   .     S
Cu1155 O1178   1.965   .     S
Cu1155 O1182   1.932   .     S
Cu1155 O1175   1.965   .     S
Cu1156 N1174   2.010   .     S
Cu1156 O1177   1.965   .     S
Cu1156 O1176   1.965   .     S
Cu1156 O1180   1.953   .     S
Cu1156 O1181   1.932   .     S
Cu1156 Cu1023  2.675   1_655 S
O1176  C992    1.290   1_655 S
O1180  C1008   1.294   1_655 S
C1183  H1184   1.085   .     S
C1183  O1185   1.220   .     D
C1183  C1014   1.478   1_655 S
C1186  H1187   1.085   .     S
C1186  O1188   1.220   .     D
