data_str_m2_o1_o18_pcu_sym.192
_audit_creation_date              2020-01-03
_audit_creation_method            'Materials Studio'
_symmetry_space_group_name_H-M    'P1'
_symmetry_Int_Tables_number       1
_symmetry_cell_setting            triclinic
loop_
_symmetry_equiv_pos_as_xyz
  x,y,z
_cell_length_a                    28.7295
_cell_length_b                    32.3094
_cell_length_c                    30.9090
_cell_angle_alpha                 88.0110
_cell_angle_beta                  73.4183
_cell_angle_gamma                 88.6309
loop_
_atom_site_label
_atom_site_type_symbol
_atom_site_fract_x
_atom_site_fract_y
_atom_site_fract_z
_atom_site_U_iso_or_equiv
_atom_site_adp_type
_atom_site_occupancy
O1     O     0.03958   0.10655   0.25000   0.00000  Uiso   1.00
O2     O     0.29375   0.22678   0.25000   0.00000  Uiso   1.00
O3     O     0.29372   0.10654   0.25000   0.00000  Uiso   1.00
O4     O     0.03961   0.22679   0.25000   0.00000  Uiso   1.00
C5     C     0.00040   0.08753   0.25038   0.00000  Uiso   1.00
C6     C     0.33268   0.24580   0.25043   0.00000  Uiso   1.00
O7     O     0.01852   0.16668   0.31492   0.00000  Uiso   1.00
O8     O     0.31481   0.16666   0.18508   0.00000  Uiso   1.00
O9     O     0.27267   0.16667   0.31492   0.00000  Uiso   1.00
O10    O     0.06067   0.16667   0.18508   0.00000  Uiso   1.00
C11    C     0.30572   0.16834   0.33601   0.00000  Uiso   1.00
C12    C     0.02759   0.16628   0.16387   0.00000  Uiso   1.00
Cu13   Cu    0.04689   0.16667   0.25000   0.00000  Uiso   1.00
Cu14   Cu    0.28645   0.16666   0.25000   0.00000  Uiso   1.00
C15    C     0.28949   0.17860   0.38387   0.00000  Uiso   1.00
C16    C     0.04270   0.16448   0.11449   0.00000  Uiso   1.00
C17    C     0.29432   0.22286   0.44385   0.00000  Uiso   1.00
C18    C     0.02869   0.14091   0.04616   0.00000  Uiso   1.00
C19    C     0.31543   0.20624   0.40155   0.00000  Uiso   1.00
C20    C     0.01267   0.14615   0.09245   0.00000  Uiso   1.00
C21    C     0.24305   0.16713   0.40919   0.00000  Uiso   1.00
C22    C     0.08798   0.17952   0.08943   0.00000  Uiso   1.00
C23    C     0.21855   0.18766   0.44889   0.00000  Uiso   1.00
C24    C     0.10332   0.17785   0.04188   0.00000  Uiso   1.00
C25    C     0.24548   0.21455   0.46757   0.00000  Uiso   1.00
C26    C     0.07418   0.15592   0.02045   0.00000  Uiso   1.00
C27    C     0.16844   0.18106   0.47086   0.00000  Uiso   1.00
C28    C     0.14879   0.19409   0.01580   0.00000  Uiso   1.00
C29    C     0.17427   0.22437   0.03221   0.00000  Uiso   1.00
C30    C     0.13678   0.16345   0.44872   0.00000  Uiso   1.00
C31    C     0.22284   0.23357   0.00868   0.00000  Uiso   1.00
C32    C     0.09100   0.14905   0.47392   0.00000  Uiso   1.00
H33    H     0.11171   0.19085   0.10775   0.00000  Uiso   1.00
H34    H     0.22643   0.14233   0.39668   0.00000  Uiso   1.00
H35    H     0.31101   0.13399   0.11134   0.00000  Uiso   1.00
H36    H     0.01811   0.21580   0.38223   0.00000  Uiso   1.00
H37    H     0.31594   0.24338   0.45692   0.00000  Uiso   1.00
H38    H     0.00526   0.12448   0.03101   0.00000  Uiso   1.00
C39    C     0.30009   0.02124   0.28607   0.00000  Uiso   1.00
C40    C     0.03296   0.31214   0.21539   0.00000  Uiso   1.00
C41    C     0.29863   0.31141   0.28505   0.00000  Uiso   1.00
C42    C     0.03450   0.02189   0.21650   0.00000  Uiso   1.00
C43    C     0.33172   0.29050   0.24972   0.00000  Uiso   1.00
C44    C     0.00128   0.04284   0.25160   0.00000  Uiso   1.00
C45    C     0.18621   0.13517   0.27056   0.00000  Uiso   1.00
C46    C     0.14699   0.19804   0.22936   0.00000  Uiso   1.00
H47    H     0.20069   0.10976   0.28670   0.00000  Uiso   1.00
H48    H     0.13273   0.22248   0.21175   0.00000  Uiso   1.00
C49    C     0.13689   0.13466   0.27016   0.00000  Uiso   1.00
C50    C     0.19659   0.19824   0.22879   0.00000  Uiso   1.00
N51    N     0.11736   0.16668   0.24999   0.00000  Uiso   1.00
N52    N     0.21597   0.16666   0.25001   0.00000  Uiso   1.00
N53    N     0.24833   0.26360   0.02598   0.00000  Uiso   1.00
O54    O     0.25913   0.29926   0.00504   0.00000  Uiso   1.00
O55    O     0.26086   0.25527   0.06263   0.00000  Uiso   1.00
N56    N     0.06307   0.12521   0.45231   0.00000  Uiso   1.00
O57    O     0.02177   0.13936   0.44823   0.00000  Uiso   1.00
O58    O     0.07659   0.08743   0.44104   0.00000  Uiso   1.00
N59    N     0.14854   0.25098   0.06723   0.00000  Uiso   1.00
H60    H     0.16827   0.26121   0.08775   0.00000  Uiso   1.00
C61    C     0.12150   0.28396   0.05199   0.00000  Uiso   1.00
H62    H     0.10191   0.30301   0.08091   0.00000  Uiso   1.00
H63    H     0.09434   0.27094   0.03704   0.00000  Uiso   1.00
H64    H     0.14657   0.30433   0.02649   0.00000  Uiso   1.00
N65    N     0.14799   0.16552   0.40068   0.00000  Uiso   1.00
H66    H     0.13479   0.14189   0.38647   0.00000  Uiso   1.00
C67    C     0.14035   0.20585   0.38186   0.00000  Uiso   1.00
H68    H     0.15210   0.20495   0.34441   0.00000  Uiso   1.00
H69    H     0.16203   0.22953   0.39237   0.00000  Uiso   1.00
H70    H     0.10125   0.21470   0.39325   0.00000  Uiso   1.00
N71    N     0.26688   0.04300   0.32229   0.00000  Uiso   1.00
O72    O     0.22080   0.03462   0.33432   0.00000  Uiso   1.00
O73    O     0.28289   0.07011   0.34453   0.00000  Uiso   1.00
N74    N     0.06620   0.29049   0.17918   0.00000  Uiso   1.00
O75    O     0.11230   0.29873   0.16746   0.00000  Uiso   1.00
O76    O     0.05032   0.26311   0.15715   0.00000  Uiso   1.00
N77    N     0.26623   0.28873   0.32172   0.00000  Uiso   1.00
O78    O     0.22898   0.27028   0.31557   0.00000  Uiso   1.00
O79    O     0.27003   0.29141   0.36247   0.00000  Uiso   1.00
N80    N     0.06707   0.04453   0.17997   0.00000  Uiso   1.00
O81    O     0.06091   0.04474   0.13985   0.00000  Uiso   1.00
O82    O     0.10600   0.06062   0.18547   0.00000  Uiso   1.00
N83    N     0.10920   0.09883   0.28694   0.00000  Uiso   1.00
H84    H     0.12566   0.07210   0.27208   0.00000  Uiso   1.00
C85    C     0.09234   0.09401   0.33545   0.00000  Uiso   1.00
H86    H     0.12306   0.08448   0.34887   0.00000  Uiso   1.00
H87    H     0.06458   0.06944   0.34469   0.00000  Uiso   1.00
H88    H     0.07537   0.12322   0.35087   0.00000  Uiso   1.00
N89    N     0.22636   0.23010   0.20299   0.00000  Uiso   1.00
H90    H     0.26166   0.22394   0.18504   0.00000  Uiso   1.00
C91    C     0.21164   0.27300   0.21113   0.00000  Uiso   1.00
H92    H     0.24070   0.28991   0.21991   0.00000  Uiso   1.00
H93    H     0.17769   0.27606   0.23929   0.00000  Uiso   1.00
H94    H     0.20590   0.28752   0.17996   0.00000  Uiso   1.00
O95    O     0.37291   0.10655   0.25000   0.00000  Uiso   1.00
O96    O     0.62709   0.22678   0.25000   0.00000  Uiso   1.00
O97    O     0.62706   0.10654   0.25000   0.00000  Uiso   1.00
O98    O     0.37294   0.22679   0.25000   0.00000  Uiso   1.00
C99    C     0.33373   0.08753   0.25038   0.00000  Uiso   1.00
C100   C     0.66602   0.24580   0.25043   0.00000  Uiso   1.00
O101   O     0.35186   0.16668   0.31492   0.00000  Uiso   1.00
O102   O     0.64814   0.16666   0.18508   0.00000  Uiso   1.00
O103   O     0.60600   0.16667   0.31492   0.00000  Uiso   1.00
O104   O     0.39400   0.16667   0.18508   0.00000  Uiso   1.00
C105   C     0.63906   0.16834   0.33601   0.00000  Uiso   1.00
C106   C     0.36092   0.16628   0.16387   0.00000  Uiso   1.00
Cu107  Cu    0.38022   0.16667   0.25000   0.00000  Uiso   1.00
Cu108  Cu    0.61978   0.16666   0.25000   0.00000  Uiso   1.00
C109   C     0.62283   0.17860   0.38387   0.00000  Uiso   1.00
C110   C     0.37603   0.16448   0.11449   0.00000  Uiso   1.00
C111   C     0.62765   0.22286   0.44385   0.00000  Uiso   1.00
C112   C     0.36202   0.14091   0.04616   0.00000  Uiso   1.00
C113   C     0.64877   0.20624   0.40155   0.00000  Uiso   1.00
C114   C     0.34601   0.14615   0.09245   0.00000  Uiso   1.00
C115   C     0.57639   0.16713   0.40919   0.00000  Uiso   1.00
C116   C     0.42132   0.17952   0.08943   0.00000  Uiso   1.00
C117   C     0.55188   0.18766   0.44889   0.00000  Uiso   1.00
C118   C     0.43665   0.17785   0.04188   0.00000  Uiso   1.00
C119   C     0.57881   0.21455   0.46757   0.00000  Uiso   1.00
C120   C     0.40752   0.15592   0.02045   0.00000  Uiso   1.00
C121   C     0.50177   0.18106   0.47086   0.00000  Uiso   1.00
C122   C     0.48212   0.19409   0.01580   0.00000  Uiso   1.00
C123   C     0.50761   0.22437   0.03221   0.00000  Uiso   1.00
C124   C     0.47011   0.16345   0.44872   0.00000  Uiso   1.00
C125   C     0.55618   0.23357   0.00868   0.00000  Uiso   1.00
C126   C     0.42434   0.14905   0.47392   0.00000  Uiso   1.00
H127   H     0.44504   0.19085   0.10775   0.00000  Uiso   1.00
H128   H     0.55976   0.14233   0.39668   0.00000  Uiso   1.00
H129   H     0.64435   0.13399   0.11134   0.00000  Uiso   1.00
H130   H     0.35145   0.21580   0.38223   0.00000  Uiso   1.00
H131   H     0.64928   0.24338   0.45692   0.00000  Uiso   1.00
H132   H     0.33859   0.12448   0.03101   0.00000  Uiso   1.00
C133   C     0.63343   0.02124   0.28607   0.00000  Uiso   1.00
C134   C     0.36629   0.31214   0.21539   0.00000  Uiso   1.00
C135   C     0.63197   0.31141   0.28505   0.00000  Uiso   1.00
C136   C     0.36783   0.02189   0.21650   0.00000  Uiso   1.00
C137   C     0.66505   0.29050   0.24972   0.00000  Uiso   1.00
C138   C     0.33461   0.04284   0.25160   0.00000  Uiso   1.00
C139   C     0.51955   0.13517   0.27056   0.00000  Uiso   1.00
C140   C     0.48033   0.19804   0.22936   0.00000  Uiso   1.00
H141   H     0.53402   0.10976   0.28670   0.00000  Uiso   1.00
H142   H     0.46607   0.22248   0.21175   0.00000  Uiso   1.00
C143   C     0.47023   0.13466   0.27016   0.00000  Uiso   1.00
C144   C     0.52992   0.19824   0.22879   0.00000  Uiso   1.00
N145   N     0.45069   0.16668   0.24999   0.00000  Uiso   1.00
N146   N     0.54931   0.16666   0.25001   0.00000  Uiso   1.00
N147   N     0.58167   0.26360   0.02598   0.00000  Uiso   1.00
O148   O     0.59247   0.29926   0.00504   0.00000  Uiso   1.00
O149   O     0.59420   0.25527   0.06263   0.00000  Uiso   1.00
N150   N     0.39640   0.12521   0.45231   0.00000  Uiso   1.00
O151   O     0.35511   0.13936   0.44823   0.00000  Uiso   1.00
O152   O     0.40992   0.08743   0.44104   0.00000  Uiso   1.00
N153   N     0.48188   0.25098   0.06723   0.00000  Uiso   1.00
H154   H     0.50160   0.26121   0.08775   0.00000  Uiso   1.00
C155   C     0.45484   0.28396   0.05199   0.00000  Uiso   1.00
H156   H     0.43524   0.30301   0.08091   0.00000  Uiso   1.00
H157   H     0.42767   0.27094   0.03704   0.00000  Uiso   1.00
H158   H     0.47991   0.30433   0.02649   0.00000  Uiso   1.00
N159   N     0.48133   0.16552   0.40068   0.00000  Uiso   1.00
H160   H     0.46812   0.14189   0.38647   0.00000  Uiso   1.00
C161   C     0.47369   0.20585   0.38186   0.00000  Uiso   1.00
H162   H     0.48544   0.20495   0.34441   0.00000  Uiso   1.00
H163   H     0.49536   0.22953   0.39237   0.00000  Uiso   1.00
H164   H     0.43458   0.21470   0.39325   0.00000  Uiso   1.00
N165   N     0.60022   0.04300   0.32229   0.00000  Uiso   1.00
O166   O     0.55414   0.03462   0.33432   0.00000  Uiso   1.00
O167   O     0.61622   0.07011   0.34453   0.00000  Uiso   1.00
N168   N     0.39953   0.29049   0.17918   0.00000  Uiso   1.00
O169   O     0.44563   0.29873   0.16746   0.00000  Uiso   1.00
O170   O     0.38365   0.26311   0.15715   0.00000  Uiso   1.00
N171   N     0.59957   0.28873   0.32172   0.00000  Uiso   1.00
O172   O     0.56231   0.27028   0.31557   0.00000  Uiso   1.00
O173   O     0.60336   0.29141   0.36247   0.00000  Uiso   1.00
N174   N     0.40040   0.04453   0.17997   0.00000  Uiso   1.00
O175   O     0.39424   0.04474   0.13985   0.00000  Uiso   1.00
O176   O     0.43933   0.06062   0.18547   0.00000  Uiso   1.00
N177   N     0.44254   0.09883   0.28694   0.00000  Uiso   1.00
H178   H     0.45900   0.07210   0.27208   0.00000  Uiso   1.00
C179   C     0.42568   0.09401   0.33545   0.00000  Uiso   1.00
H180   H     0.45639   0.08448   0.34887   0.00000  Uiso   1.00
H181   H     0.39792   0.06944   0.34469   0.00000  Uiso   1.00
H182   H     0.40870   0.12322   0.35087   0.00000  Uiso   1.00
N183   N     0.55970   0.23010   0.20299   0.00000  Uiso   1.00
H184   H     0.59499   0.22394   0.18504   0.00000  Uiso   1.00
C185   C     0.54497   0.27300   0.21113   0.00000  Uiso   1.00
H186   H     0.57403   0.28991   0.21991   0.00000  Uiso   1.00
H187   H     0.51102   0.27606   0.23929   0.00000  Uiso   1.00
H188   H     0.53923   0.28752   0.17996   0.00000  Uiso   1.00
O189   O     0.70625   0.10655   0.25000   0.00000  Uiso   1.00
O190   O     0.96042   0.22678   0.25000   0.00000  Uiso   1.00
O191   O     0.96039   0.10654   0.25000   0.00000  Uiso   1.00
O192   O     0.70628   0.22679   0.25000   0.00000  Uiso   1.00
C193   C     0.66707   0.08753   0.25038   0.00000  Uiso   1.00
C194   C     0.99935   0.24580   0.25043   0.00000  Uiso   1.00
O195   O     0.68519   0.16668   0.31492   0.00000  Uiso   1.00
O196   O     0.98148   0.16666   0.18508   0.00000  Uiso   1.00
O197   O     0.93933   0.16667   0.31492   0.00000  Uiso   1.00
O198   O     0.72733   0.16667   0.18508   0.00000  Uiso   1.00
C199   C     0.97239   0.16834   0.33601   0.00000  Uiso   1.00
C200   C     0.69426   0.16628   0.16387   0.00000  Uiso   1.00
Cu201  Cu    0.71355   0.16667   0.25000   0.00000  Uiso   1.00
Cu202  Cu    0.95311   0.16666   0.25000   0.00000  Uiso   1.00
C203   C     0.95616   0.17860   0.38387   0.00000  Uiso   1.00
C204   C     0.70937   0.16448   0.11449   0.00000  Uiso   1.00
C205   C     0.96098   0.22286   0.44385   0.00000  Uiso   1.00
C206   C     0.69535   0.14091   0.04616   0.00000  Uiso   1.00
C207   C     0.98210   0.20624   0.40155   0.00000  Uiso   1.00
C208   C     0.67934   0.14615   0.09245   0.00000  Uiso   1.00
C209   C     0.90972   0.16713   0.40919   0.00000  Uiso   1.00
C210   C     0.75465   0.17952   0.08943   0.00000  Uiso   1.00
C211   C     0.88522   0.18766   0.44889   0.00000  Uiso   1.00
C212   C     0.76998   0.17785   0.04188   0.00000  Uiso   1.00
C213   C     0.91215   0.21455   0.46757   0.00000  Uiso   1.00
C214   C     0.74085   0.15592   0.02045   0.00000  Uiso   1.00
C215   C     0.83511   0.18106   0.47086   0.00000  Uiso   1.00
C216   C     0.81546   0.19409   0.01580   0.00000  Uiso   1.00
C217   C     0.84094   0.22437   0.03221   0.00000  Uiso   1.00
C218   C     0.80344   0.16345   0.44872   0.00000  Uiso   1.00
C219   C     0.88951   0.23357   0.00868   0.00000  Uiso   1.00
C220   C     0.75767   0.14905   0.47392   0.00000  Uiso   1.00
H221   H     0.77837   0.19085   0.10775   0.00000  Uiso   1.00
H222   H     0.89309   0.14233   0.39668   0.00000  Uiso   1.00
H223   H     0.97768   0.13399   0.11134   0.00000  Uiso   1.00
H224   H     0.68478   0.21580   0.38223   0.00000  Uiso   1.00
H225   H     0.98261   0.24338   0.45692   0.00000  Uiso   1.00
H226   H     0.67193   0.12448   0.03101   0.00000  Uiso   1.00
C227   C     0.96676   0.02124   0.28607   0.00000  Uiso   1.00
C228   C     0.69963   0.31214   0.21539   0.00000  Uiso   1.00
C229   C     0.96530   0.31141   0.28505   0.00000  Uiso   1.00
C230   C     0.70117   0.02189   0.21650   0.00000  Uiso   1.00
C231   C     0.99838   0.29050   0.24972   0.00000  Uiso   1.00
C232   C     0.66795   0.04284   0.25160   0.00000  Uiso   1.00
C233   C     0.85288   0.13517   0.27056   0.00000  Uiso   1.00
C234   C     0.81366   0.19804   0.22936   0.00000  Uiso   1.00
H235   H     0.86735   0.10976   0.28670   0.00000  Uiso   1.00
H236   H     0.79940   0.22248   0.21175   0.00000  Uiso   1.00
C237   C     0.80356   0.13466   0.27016   0.00000  Uiso   1.00
C238   C     0.86325   0.19824   0.22879   0.00000  Uiso   1.00
N239   N     0.78403   0.16668   0.24999   0.00000  Uiso   1.00
N240   N     0.88264   0.16666   0.25001   0.00000  Uiso   1.00
N241   N     0.91500   0.26360   0.02598   0.00000  Uiso   1.00
O242   O     0.92580   0.29926   0.00504   0.00000  Uiso   1.00
O243   O     0.92753   0.25527   0.06263   0.00000  Uiso   1.00
N244   N     0.72974   0.12521   0.45231   0.00000  Uiso   1.00
O245   O     0.68844   0.13936   0.44823   0.00000  Uiso   1.00
O246   O     0.74326   0.08743   0.44104   0.00000  Uiso   1.00
N247   N     0.81521   0.25098   0.06723   0.00000  Uiso   1.00
H248   H     0.83494   0.26121   0.08775   0.00000  Uiso   1.00
C249   C     0.78817   0.28396   0.05199   0.00000  Uiso   1.00
H250   H     0.76857   0.30301   0.08091   0.00000  Uiso   1.00
H251   H     0.76100   0.27094   0.03704   0.00000  Uiso   1.00
H252   H     0.81324   0.30433   0.02649   0.00000  Uiso   1.00
N253   N     0.81466   0.16552   0.40068   0.00000  Uiso   1.00
H254   H     0.80146   0.14189   0.38647   0.00000  Uiso   1.00
C255   C     0.80702   0.20585   0.38186   0.00000  Uiso   1.00
H256   H     0.81877   0.20495   0.34441   0.00000  Uiso   1.00
H257   H     0.82869   0.22953   0.39237   0.00000  Uiso   1.00
H258   H     0.76792   0.21470   0.39325   0.00000  Uiso   1.00
N259   N     0.93355   0.04300   0.32229   0.00000  Uiso   1.00
O260   O     0.88747   0.03462   0.33432   0.00000  Uiso   1.00
O261   O     0.94956   0.07011   0.34453   0.00000  Uiso   1.00
N262   N     0.73286   0.29049   0.17918   0.00000  Uiso   1.00
O263   O     0.77896   0.29873   0.16746   0.00000  Uiso   1.00
O264   O     0.71699   0.26311   0.15715   0.00000  Uiso   1.00
N265   N     0.93290   0.28873   0.32172   0.00000  Uiso   1.00
O266   O     0.89565   0.27028   0.31557   0.00000  Uiso   1.00
O267   O     0.93670   0.29141   0.36247   0.00000  Uiso   1.00
N268   N     0.73374   0.04453   0.17997   0.00000  Uiso   1.00
O269   O     0.72757   0.04474   0.13985   0.00000  Uiso   1.00
O270   O     0.77267   0.06062   0.18547   0.00000  Uiso   1.00
N271   N     0.77587   0.09883   0.28694   0.00000  Uiso   1.00
H272   H     0.79233   0.07210   0.27208   0.00000  Uiso   1.00
C273   C     0.75901   0.09401   0.33545   0.00000  Uiso   1.00
H274   H     0.78972   0.08448   0.34887   0.00000  Uiso   1.00
H275   H     0.73125   0.06944   0.34469   0.00000  Uiso   1.00
H276   H     0.74204   0.12322   0.35087   0.00000  Uiso   1.00
N277   N     0.89303   0.23010   0.20299   0.00000  Uiso   1.00
H278   H     0.92833   0.22394   0.18504   0.00000  Uiso   1.00
C279   C     0.87831   0.27300   0.21113   0.00000  Uiso   1.00
H280   H     0.90736   0.28991   0.21991   0.00000  Uiso   1.00
H281   H     0.84436   0.27606   0.23929   0.00000  Uiso   1.00
H282   H     0.87257   0.28752   0.17996   0.00000  Uiso   1.00
O283   O     0.03958   0.43989   0.25000   0.00000  Uiso   1.00
O284   O     0.29375   0.56011   0.25000   0.00000  Uiso   1.00
O285   O     0.29372   0.43988   0.25000   0.00000  Uiso   1.00
O286   O     0.03961   0.56012   0.25000   0.00000  Uiso   1.00
C287   C     0.00040   0.42086   0.25038   0.00000  Uiso   1.00
C288   C     0.33268   0.57913   0.25043   0.00000  Uiso   1.00
O289   O     0.01852   0.50001   0.31492   0.00000  Uiso   1.00
O290   O     0.31481   0.49999   0.18508   0.00000  Uiso   1.00
O291   O     0.27267   0.50000   0.31492   0.00000  Uiso   1.00
O292   O     0.06067   0.50000   0.18508   0.00000  Uiso   1.00
C293   C     0.30572   0.50167   0.33601   0.00000  Uiso   1.00
C294   C     0.02759   0.49961   0.16387   0.00000  Uiso   1.00
Cu295  Cu    0.04689   0.50001   0.25000   0.00000  Uiso   1.00
Cu296  Cu    0.28645   0.49999   0.25000   0.00000  Uiso   1.00
C297   C     0.28949   0.51194   0.38387   0.00000  Uiso   1.00
C298   C     0.04270   0.49781   0.11449   0.00000  Uiso   1.00
C299   C     0.29432   0.55619   0.44385   0.00000  Uiso   1.00
C300   C     0.02869   0.47425   0.04616   0.00000  Uiso   1.00
C301   C     0.31543   0.53958   0.40155   0.00000  Uiso   1.00
C302   C     0.01267   0.47948   0.09245   0.00000  Uiso   1.00
C303   C     0.24305   0.50046   0.40919   0.00000  Uiso   1.00
C304   C     0.08798   0.51285   0.08943   0.00000  Uiso   1.00
C305   C     0.21855   0.52099   0.44889   0.00000  Uiso   1.00
C306   C     0.10332   0.51118   0.04188   0.00000  Uiso   1.00
C307   C     0.24548   0.54788   0.46757   0.00000  Uiso   1.00
C308   C     0.07418   0.48925   0.02045   0.00000  Uiso   1.00
C309   C     0.16844   0.51439   0.47086   0.00000  Uiso   1.00
C310   C     0.14879   0.52743   0.01580   0.00000  Uiso   1.00
C311   C     0.17427   0.55771   0.03221   0.00000  Uiso   1.00
C312   C     0.13678   0.49679   0.44872   0.00000  Uiso   1.00
C313   C     0.22284   0.56690   0.00868   0.00000  Uiso   1.00
C314   C     0.09100   0.48238   0.47392   0.00000  Uiso   1.00
H315   H     0.11171   0.52418   0.10775   0.00000  Uiso   1.00
H316   H     0.22643   0.47566   0.39668   0.00000  Uiso   1.00
H317   H     0.31101   0.46732   0.11134   0.00000  Uiso   1.00
H318   H     0.01811   0.54914   0.38223   0.00000  Uiso   1.00
H319   H     0.31594   0.57672   0.45692   0.00000  Uiso   1.00
H320   H     0.00526   0.45781   0.03101   0.00000  Uiso   1.00
C321   C     0.30009   0.35457   0.28607   0.00000  Uiso   1.00
C322   C     0.03296   0.64548   0.21539   0.00000  Uiso   1.00
C323   C     0.29863   0.64475   0.28505   0.00000  Uiso   1.00
C324   C     0.03450   0.35522   0.21650   0.00000  Uiso   1.00
C325   C     0.33172   0.62383   0.24972   0.00000  Uiso   1.00
C326   C     0.00128   0.37617   0.25160   0.00000  Uiso   1.00
C327   C     0.18621   0.46850   0.27056   0.00000  Uiso   1.00
C328   C     0.14699   0.53138   0.22936   0.00000  Uiso   1.00
H329   H     0.20069   0.44309   0.28670   0.00000  Uiso   1.00
H330   H     0.13273   0.55581   0.21175   0.00000  Uiso   1.00
C331   C     0.13689   0.46800   0.27016   0.00000  Uiso   1.00
C332   C     0.19659   0.53157   0.22879   0.00000  Uiso   1.00
N333   N     0.11736   0.50001   0.24999   0.00000  Uiso   1.00
N334   N     0.21597   0.49999   0.25001   0.00000  Uiso   1.00
N335   N     0.24833   0.59694   0.02598   0.00000  Uiso   1.00
O336   O     0.25913   0.63259   0.00504   0.00000  Uiso   1.00
O337   O     0.26086   0.58860   0.06263   0.00000  Uiso   1.00
N338   N     0.06307   0.45854   0.45231   0.00000  Uiso   1.00
O339   O     0.02177   0.47269   0.44823   0.00000  Uiso   1.00
O340   O     0.07659   0.42077   0.44104   0.00000  Uiso   1.00
N341   N     0.14854   0.58432   0.06723   0.00000  Uiso   1.00
H342   H     0.16827   0.59454   0.08775   0.00000  Uiso   1.00
C343   C     0.12150   0.61729   0.05199   0.00000  Uiso   1.00
H344   H     0.10191   0.63634   0.08091   0.00000  Uiso   1.00
H345   H     0.09434   0.60427   0.03704   0.00000  Uiso   1.00
H346   H     0.14657   0.63766   0.02649   0.00000  Uiso   1.00
N347   N     0.14799   0.49886   0.40068   0.00000  Uiso   1.00
H348   H     0.13479   0.47522   0.38647   0.00000  Uiso   1.00
C349   C     0.14035   0.53918   0.38186   0.00000  Uiso   1.00
H350   H     0.15210   0.53828   0.34441   0.00000  Uiso   1.00
H351   H     0.16203   0.56286   0.39237   0.00000  Uiso   1.00
H352   H     0.10125   0.54804   0.39325   0.00000  Uiso   1.00
N353   N     0.26688   0.37633   0.32229   0.00000  Uiso   1.00
O354   O     0.22080   0.36795   0.33432   0.00000  Uiso   1.00
O355   O     0.28289   0.40344   0.34453   0.00000  Uiso   1.00
N356   N     0.06620   0.62382   0.17918   0.00000  Uiso   1.00
O357   O     0.11230   0.63206   0.16746   0.00000  Uiso   1.00
O358   O     0.05032   0.59644   0.15715   0.00000  Uiso   1.00
N359   N     0.26623   0.62206   0.32172   0.00000  Uiso   1.00
O360   O     0.22898   0.60362   0.31557   0.00000  Uiso   1.00
O361   O     0.27003   0.62474   0.36247   0.00000  Uiso   1.00
N362   N     0.06707   0.37787   0.17997   0.00000  Uiso   1.00
O363   O     0.06091   0.37807   0.13985   0.00000  Uiso   1.00
O364   O     0.10600   0.39395   0.18547   0.00000  Uiso   1.00
N365   N     0.10920   0.43216   0.28694   0.00000  Uiso   1.00
H366   H     0.12566   0.40544   0.27208   0.00000  Uiso   1.00
C367   C     0.09234   0.42735   0.33545   0.00000  Uiso   1.00
H368   H     0.12306   0.41781   0.34887   0.00000  Uiso   1.00
H369   H     0.06458   0.40277   0.34469   0.00000  Uiso   1.00
H370   H     0.07537   0.45656   0.35087   0.00000  Uiso   1.00
N371   N     0.22636   0.56343   0.20299   0.00000  Uiso   1.00
H372   H     0.26166   0.55728   0.18504   0.00000  Uiso   1.00
C373   C     0.21164   0.60633   0.21113   0.00000  Uiso   1.00
H374   H     0.24070   0.62325   0.21991   0.00000  Uiso   1.00
H375   H     0.17769   0.60939   0.23929   0.00000  Uiso   1.00
H376   H     0.20590   0.62085   0.17996   0.00000  Uiso   1.00
O377   O     0.37291   0.43989   0.25000   0.00000  Uiso   1.00
O378   O     0.62709   0.56011   0.25000   0.00000  Uiso   1.00
O379   O     0.62706   0.43988   0.25000   0.00000  Uiso   1.00
O380   O     0.37294   0.56012   0.25000   0.00000  Uiso   1.00
C381   C     0.33373   0.42086   0.25038   0.00000  Uiso   1.00
C382   C     0.66602   0.57913   0.25043   0.00000  Uiso   1.00
O383   O     0.35186   0.50001   0.31492   0.00000  Uiso   1.00
O384   O     0.64814   0.49999   0.18508   0.00000  Uiso   1.00
O385   O     0.60600   0.50000   0.31492   0.00000  Uiso   1.00
O386   O     0.39400   0.50000   0.18508   0.00000  Uiso   1.00
C387   C     0.63906   0.50167   0.33601   0.00000  Uiso   1.00
C388   C     0.36092   0.49961   0.16387   0.00000  Uiso   1.00
Cu389  Cu    0.38022   0.50001   0.25000   0.00000  Uiso   1.00
Cu390  Cu    0.61978   0.49999   0.25000   0.00000  Uiso   1.00
C391   C     0.62283   0.51194   0.38387   0.00000  Uiso   1.00
C392   C     0.37603   0.49781   0.11449   0.00000  Uiso   1.00
C393   C     0.62765   0.55619   0.44385   0.00000  Uiso   1.00
C394   C     0.36202   0.47425   0.04616   0.00000  Uiso   1.00
C395   C     0.64877   0.53958   0.40155   0.00000  Uiso   1.00
C396   C     0.34601   0.47948   0.09245   0.00000  Uiso   1.00
C397   C     0.57639   0.50046   0.40919   0.00000  Uiso   1.00
C398   C     0.42132   0.51285   0.08943   0.00000  Uiso   1.00
C399   C     0.55188   0.52099   0.44889   0.00000  Uiso   1.00
C400   C     0.43665   0.51118   0.04188   0.00000  Uiso   1.00
C401   C     0.57881   0.54788   0.46757   0.00000  Uiso   1.00
C402   C     0.40752   0.48925   0.02045   0.00000  Uiso   1.00
C403   C     0.50177   0.51439   0.47086   0.00000  Uiso   1.00
C404   C     0.48212   0.52743   0.01580   0.00000  Uiso   1.00
C405   C     0.50761   0.55771   0.03221   0.00000  Uiso   1.00
C406   C     0.47011   0.49679   0.44872   0.00000  Uiso   1.00
C407   C     0.55618   0.56690   0.00868   0.00000  Uiso   1.00
C408   C     0.42434   0.48238   0.47392   0.00000  Uiso   1.00
H409   H     0.44504   0.52418   0.10775   0.00000  Uiso   1.00
H410   H     0.55976   0.47566   0.39668   0.00000  Uiso   1.00
H411   H     0.64435   0.46732   0.11134   0.00000  Uiso   1.00
H412   H     0.35145   0.54914   0.38223   0.00000  Uiso   1.00
H413   H     0.64928   0.57672   0.45692   0.00000  Uiso   1.00
H414   H     0.33859   0.45781   0.03101   0.00000  Uiso   1.00
C415   C     0.63343   0.35457   0.28607   0.00000  Uiso   1.00
C416   C     0.36629   0.64548   0.21539   0.00000  Uiso   1.00
C417   C     0.63197   0.64475   0.28505   0.00000  Uiso   1.00
C418   C     0.36783   0.35522   0.21650   0.00000  Uiso   1.00
C419   C     0.66505   0.62383   0.24972   0.00000  Uiso   1.00
C420   C     0.33461   0.37617   0.25160   0.00000  Uiso   1.00
C421   C     0.51955   0.46850   0.27056   0.00000  Uiso   1.00
C422   C     0.48033   0.53138   0.22936   0.00000  Uiso   1.00
H423   H     0.53402   0.44309   0.28670   0.00000  Uiso   1.00
H424   H     0.46607   0.55581   0.21175   0.00000  Uiso   1.00
C425   C     0.47023   0.46800   0.27016   0.00000  Uiso   1.00
C426   C     0.52992   0.53157   0.22879   0.00000  Uiso   1.00
N427   N     0.45069   0.50001   0.24999   0.00000  Uiso   1.00
N428   N     0.54931   0.49999   0.25001   0.00000  Uiso   1.00
N429   N     0.58167   0.59694   0.02598   0.00000  Uiso   1.00
O430   O     0.59247   0.63259   0.00504   0.00000  Uiso   1.00
O431   O     0.59420   0.58860   0.06263   0.00000  Uiso   1.00
N432   N     0.39640   0.45854   0.45231   0.00000  Uiso   1.00
O433   O     0.35511   0.47269   0.44823   0.00000  Uiso   1.00
O434   O     0.40992   0.42077   0.44104   0.00000  Uiso   1.00
N435   N     0.48188   0.58432   0.06723   0.00000  Uiso   1.00
H436   H     0.50160   0.59454   0.08775   0.00000  Uiso   1.00
C437   C     0.45484   0.61729   0.05199   0.00000  Uiso   1.00
H438   H     0.43524   0.63634   0.08091   0.00000  Uiso   1.00
H439   H     0.42767   0.60427   0.03704   0.00000  Uiso   1.00
H440   H     0.47991   0.63766   0.02649   0.00000  Uiso   1.00
N441   N     0.48133   0.49886   0.40068   0.00000  Uiso   1.00
H442   H     0.46812   0.47522   0.38647   0.00000  Uiso   1.00
C443   C     0.47369   0.53918   0.38186   0.00000  Uiso   1.00
H444   H     0.48544   0.53828   0.34441   0.00000  Uiso   1.00
H445   H     0.49536   0.56286   0.39237   0.00000  Uiso   1.00
H446   H     0.43458   0.54804   0.39325   0.00000  Uiso   1.00
N447   N     0.60022   0.37633   0.32229   0.00000  Uiso   1.00
O448   O     0.55414   0.36795   0.33432   0.00000  Uiso   1.00
O449   O     0.61622   0.40344   0.34453   0.00000  Uiso   1.00
N450   N     0.39953   0.62382   0.17918   0.00000  Uiso   1.00
O451   O     0.44563   0.63206   0.16746   0.00000  Uiso   1.00
O452   O     0.38365   0.59644   0.15715   0.00000  Uiso   1.00
N453   N     0.59957   0.62206   0.32172   0.00000  Uiso   1.00
O454   O     0.56231   0.60362   0.31557   0.00000  Uiso   1.00
O455   O     0.60336   0.62474   0.36247   0.00000  Uiso   1.00
N456   N     0.40040   0.37787   0.17997   0.00000  Uiso   1.00
O457   O     0.39424   0.37807   0.13985   0.00000  Uiso   1.00
O458   O     0.43933   0.39395   0.18547   0.00000  Uiso   1.00
N459   N     0.44254   0.43216   0.28694   0.00000  Uiso   1.00
H460   H     0.45900   0.40544   0.27208   0.00000  Uiso   1.00
C461   C     0.42568   0.42735   0.33545   0.00000  Uiso   1.00
H462   H     0.45639   0.41781   0.34887   0.00000  Uiso   1.00
H463   H     0.39792   0.40277   0.34469   0.00000  Uiso   1.00
H464   H     0.40870   0.45656   0.35087   0.00000  Uiso   1.00
N465   N     0.55970   0.56343   0.20299   0.00000  Uiso   1.00
H466   H     0.59499   0.55728   0.18504   0.00000  Uiso   1.00
C467   C     0.54497   0.60633   0.21113   0.00000  Uiso   1.00
H468   H     0.57403   0.62325   0.21991   0.00000  Uiso   1.00
H469   H     0.51102   0.60939   0.23929   0.00000  Uiso   1.00
H470   H     0.53923   0.62085   0.17996   0.00000  Uiso   1.00
O471   O     0.70625   0.43989   0.25000   0.00000  Uiso   1.00
O472   O     0.96042   0.56011   0.25000   0.00000  Uiso   1.00
O473   O     0.96039   0.43988   0.25000   0.00000  Uiso   1.00
O474   O     0.70628   0.56012   0.25000   0.00000  Uiso   1.00
C475   C     0.66707   0.42086   0.25038   0.00000  Uiso   1.00
C476   C     0.99935   0.57913   0.25043   0.00000  Uiso   1.00
O477   O     0.68519   0.50001   0.31492   0.00000  Uiso   1.00
O478   O     0.98148   0.49999   0.18508   0.00000  Uiso   1.00
O479   O     0.93933   0.50000   0.31492   0.00000  Uiso   1.00
O480   O     0.72733   0.50000   0.18508   0.00000  Uiso   1.00
C481   C     0.97239   0.50167   0.33601   0.00000  Uiso   1.00
C482   C     0.69426   0.49961   0.16387   0.00000  Uiso   1.00
Cu483  Cu    0.71355   0.50001   0.25000   0.00000  Uiso   1.00
Cu484  Cu    0.95311   0.49999   0.25000   0.00000  Uiso   1.00
C485   C     0.95616   0.51194   0.38387   0.00000  Uiso   1.00
C486   C     0.70937   0.49781   0.11449   0.00000  Uiso   1.00
C487   C     0.96098   0.55619   0.44385   0.00000  Uiso   1.00
C488   C     0.69535   0.47425   0.04616   0.00000  Uiso   1.00
C489   C     0.98210   0.53958   0.40155   0.00000  Uiso   1.00
C490   C     0.67934   0.47948   0.09245   0.00000  Uiso   1.00
C491   C     0.90972   0.50046   0.40919   0.00000  Uiso   1.00
C492   C     0.75465   0.51285   0.08943   0.00000  Uiso   1.00
C493   C     0.88522   0.52099   0.44889   0.00000  Uiso   1.00
C494   C     0.76998   0.51118   0.04188   0.00000  Uiso   1.00
C495   C     0.91215   0.54788   0.46757   0.00000  Uiso   1.00
C496   C     0.74085   0.48925   0.02045   0.00000  Uiso   1.00
C497   C     0.83511   0.51439   0.47086   0.00000  Uiso   1.00
C498   C     0.81546   0.52743   0.01580   0.00000  Uiso   1.00
C499   C     0.84094   0.55771   0.03221   0.00000  Uiso   1.00
C500   C     0.80344   0.49679   0.44872   0.00000  Uiso   1.00
C501   C     0.88951   0.56690   0.00868   0.00000  Uiso   1.00
C502   C     0.75767   0.48238   0.47392   0.00000  Uiso   1.00
H503   H     0.77837   0.52418   0.10775   0.00000  Uiso   1.00
H504   H     0.89309   0.47566   0.39668   0.00000  Uiso   1.00
H505   H     0.97768   0.46732   0.11134   0.00000  Uiso   1.00
H506   H     0.68478   0.54914   0.38223   0.00000  Uiso   1.00
H507   H     0.98261   0.57672   0.45692   0.00000  Uiso   1.00
H508   H     0.67193   0.45781   0.03101   0.00000  Uiso   1.00
C509   C     0.96676   0.35457   0.28607   0.00000  Uiso   1.00
C510   C     0.69963   0.64548   0.21539   0.00000  Uiso   1.00
C511   C     0.96530   0.64475   0.28505   0.00000  Uiso   1.00
C512   C     0.70117   0.35522   0.21650   0.00000  Uiso   1.00
C513   C     0.99838   0.62383   0.24972   0.00000  Uiso   1.00
C514   C     0.66795   0.37617   0.25160   0.00000  Uiso   1.00
C515   C     0.85288   0.46850   0.27056   0.00000  Uiso   1.00
C516   C     0.81366   0.53138   0.22936   0.00000  Uiso   1.00
H517   H     0.86735   0.44309   0.28670   0.00000  Uiso   1.00
H518   H     0.79940   0.55581   0.21175   0.00000  Uiso   1.00
C519   C     0.80356   0.46800   0.27016   0.00000  Uiso   1.00
C520   C     0.86325   0.53157   0.22879   0.00000  Uiso   1.00
N521   N     0.78403   0.50001   0.24999   0.00000  Uiso   1.00
N522   N     0.88264   0.49999   0.25001   0.00000  Uiso   1.00
N523   N     0.91500   0.59694   0.02598   0.00000  Uiso   1.00
O524   O     0.92580   0.63259   0.00504   0.00000  Uiso   1.00
O525   O     0.92753   0.58860   0.06263   0.00000  Uiso   1.00
N526   N     0.72974   0.45854   0.45231   0.00000  Uiso   1.00
O527   O     0.68844   0.47269   0.44823   0.00000  Uiso   1.00
O528   O     0.74326   0.42077   0.44104   0.00000  Uiso   1.00
N529   N     0.81521   0.58432   0.06723   0.00000  Uiso   1.00
H530   H     0.83494   0.59454   0.08775   0.00000  Uiso   1.00
C531   C     0.78817   0.61729   0.05199   0.00000  Uiso   1.00
H532   H     0.76857   0.63634   0.08091   0.00000  Uiso   1.00
H533   H     0.76100   0.60427   0.03704   0.00000  Uiso   1.00
H534   H     0.81324   0.63766   0.02649   0.00000  Uiso   1.00
N535   N     0.81466   0.49886   0.40068   0.00000  Uiso   1.00
H536   H     0.80146   0.47522   0.38647   0.00000  Uiso   1.00
C537   C     0.80702   0.53918   0.38186   0.00000  Uiso   1.00
H538   H     0.81877   0.53828   0.34441   0.00000  Uiso   1.00
H539   H     0.82869   0.56286   0.39237   0.00000  Uiso   1.00
H540   H     0.76792   0.54804   0.39325   0.00000  Uiso   1.00
N541   N     0.93355   0.37633   0.32229   0.00000  Uiso   1.00
O542   O     0.88747   0.36795   0.33432   0.00000  Uiso   1.00
O543   O     0.94956   0.40344   0.34453   0.00000  Uiso   1.00
N544   N     0.73286   0.62382   0.17918   0.00000  Uiso   1.00
O545   O     0.77896   0.63206   0.16746   0.00000  Uiso   1.00
O546   O     0.71699   0.59644   0.15715   0.00000  Uiso   1.00
N547   N     0.93290   0.62206   0.32172   0.00000  Uiso   1.00
O548   O     0.89565   0.60362   0.31557   0.00000  Uiso   1.00
O549   O     0.93670   0.62474   0.36247   0.00000  Uiso   1.00
N550   N     0.73374   0.37787   0.17997   0.00000  Uiso   1.00
O551   O     0.72757   0.37807   0.13985   0.00000  Uiso   1.00
O552   O     0.77267   0.39395   0.18547   0.00000  Uiso   1.00
N553   N     0.77587   0.43216   0.28694   0.00000  Uiso   1.00
H554   H     0.79233   0.40544   0.27208   0.00000  Uiso   1.00
C555   C     0.75901   0.42735   0.33545   0.00000  Uiso   1.00
H556   H     0.78972   0.41781   0.34887   0.00000  Uiso   1.00
H557   H     0.73125   0.40277   0.34469   0.00000  Uiso   1.00
H558   H     0.74204   0.45656   0.35087   0.00000  Uiso   1.00
N559   N     0.89303   0.56343   0.20299   0.00000  Uiso   1.00
H560   H     0.92833   0.55728   0.18504   0.00000  Uiso   1.00
C561   C     0.87831   0.60633   0.21113   0.00000  Uiso   1.00
H562   H     0.90736   0.62325   0.21991   0.00000  Uiso   1.00
H563   H     0.84436   0.60939   0.23929   0.00000  Uiso   1.00
H564   H     0.87257   0.62085   0.17996   0.00000  Uiso   1.00
O565   O     0.03958   0.77322   0.25000   0.00000  Uiso   1.00
O566   O     0.29375   0.89345   0.25000   0.00000  Uiso   1.00
O567   O     0.29372   0.77321   0.25000   0.00000  Uiso   1.00
O568   O     0.03961   0.89346   0.25000   0.00000  Uiso   1.00
C569   C     0.00040   0.75419   0.25038   0.00000  Uiso   1.00
C570   C     0.33268   0.91247   0.25043   0.00000  Uiso   1.00
O571   O     0.01852   0.83334   0.31492   0.00000  Uiso   1.00
O572   O     0.31481   0.83332   0.18508   0.00000  Uiso   1.00
O573   O     0.27267   0.83333   0.31492   0.00000  Uiso   1.00
O574   O     0.06067   0.83333   0.18508   0.00000  Uiso   1.00
C575   C     0.30572   0.83501   0.33601   0.00000  Uiso   1.00
C576   C     0.02759   0.83294   0.16387   0.00000  Uiso   1.00
Cu577  Cu    0.04689   0.83334   0.25000   0.00000  Uiso   1.00
Cu578  Cu    0.28645   0.83333   0.25000   0.00000  Uiso   1.00
C579   C     0.28949   0.84527   0.38387   0.00000  Uiso   1.00
C580   C     0.04270   0.83115   0.11449   0.00000  Uiso   1.00
C581   C     0.29432   0.88953   0.44385   0.00000  Uiso   1.00
C582   C     0.02869   0.80758   0.04616   0.00000  Uiso   1.00
C583   C     0.31543   0.87291   0.40155   0.00000  Uiso   1.00
C584   C     0.01267   0.81282   0.09245   0.00000  Uiso   1.00
C585   C     0.24305   0.83380   0.40919   0.00000  Uiso   1.00
C586   C     0.08798   0.84618   0.08943   0.00000  Uiso   1.00
C587   C     0.21855   0.85433   0.44889   0.00000  Uiso   1.00
C588   C     0.10332   0.84452   0.04188   0.00000  Uiso   1.00
C589   C     0.24548   0.88122   0.46757   0.00000  Uiso   1.00
C590   C     0.07418   0.82259   0.02045   0.00000  Uiso   1.00
C591   C     0.16844   0.84772   0.47086   0.00000  Uiso   1.00
C592   C     0.14879   0.86076   0.01580   0.00000  Uiso   1.00
C593   C     0.17427   0.89104   0.03221   0.00000  Uiso   1.00
C594   C     0.13678   0.83012   0.44872   0.00000  Uiso   1.00
C595   C     0.22284   0.90023   0.00868   0.00000  Uiso   1.00
C596   C     0.09100   0.81572   0.47392   0.00000  Uiso   1.00
H597   H     0.11171   0.85752   0.10775   0.00000  Uiso   1.00
H598   H     0.22643   0.80900   0.39668   0.00000  Uiso   1.00
H599   H     0.31101   0.80065   0.11134   0.00000  Uiso   1.00
H600   H     0.01811   0.88247   0.38223   0.00000  Uiso   1.00
H601   H     0.31594   0.91005   0.45692   0.00000  Uiso   1.00
H602   H     0.00526   0.79114   0.03101   0.00000  Uiso   1.00
C603   C     0.30009   0.68791   0.28607   0.00000  Uiso   1.00
C604   C     0.03296   0.97881   0.21539   0.00000  Uiso   1.00
C605   C     0.29863   0.97808   0.28505   0.00000  Uiso   1.00
C606   C     0.03450   0.68855   0.21650   0.00000  Uiso   1.00
C607   C     0.33172   0.95717   0.24972   0.00000  Uiso   1.00
C608   C     0.00128   0.70950   0.25160   0.00000  Uiso   1.00
C609   C     0.18621   0.80184   0.27056   0.00000  Uiso   1.00
C610   C     0.14699   0.86471   0.22936   0.00000  Uiso   1.00
H611   H     0.20069   0.77642   0.28670   0.00000  Uiso   1.00
H612   H     0.13273   0.88914   0.21175   0.00000  Uiso   1.00
C613   C     0.13689   0.80133   0.27016   0.00000  Uiso   1.00
C614   C     0.19659   0.86491   0.22879   0.00000  Uiso   1.00
N615   N     0.11736   0.83334   0.24999   0.00000  Uiso   1.00
N616   N     0.21597   0.83332   0.25001   0.00000  Uiso   1.00
N617   N     0.24833   0.93027   0.02598   0.00000  Uiso   1.00
O618   O     0.25913   0.96592   0.00504   0.00000  Uiso   1.00
O619   O     0.26086   0.92193   0.06263   0.00000  Uiso   1.00
N620   N     0.06307   0.79187   0.45231   0.00000  Uiso   1.00
O621   O     0.02177   0.80602   0.44823   0.00000  Uiso   1.00
O622   O     0.07659   0.75410   0.44104   0.00000  Uiso   1.00
N623   N     0.14854   0.91765   0.06723   0.00000  Uiso   1.00
H624   H     0.16827   0.92787   0.08775   0.00000  Uiso   1.00
C625   C     0.12150   0.95063   0.05199   0.00000  Uiso   1.00
H626   H     0.10191   0.96967   0.08091   0.00000  Uiso   1.00
H627   H     0.09434   0.93761   0.03704   0.00000  Uiso   1.00
H628   H     0.14657   0.97099   0.02649   0.00000  Uiso   1.00
N629   N     0.14799   0.83219   0.40068   0.00000  Uiso   1.00
H630   H     0.13479   0.80856   0.38647   0.00000  Uiso   1.00
C631   C     0.14035   0.87252   0.38186   0.00000  Uiso   1.00
H632   H     0.15210   0.87161   0.34441   0.00000  Uiso   1.00
H633   H     0.16203   0.89619   0.39237   0.00000  Uiso   1.00
H634   H     0.10125   0.88137   0.39325   0.00000  Uiso   1.00
N635   N     0.26688   0.70967   0.32229   0.00000  Uiso   1.00
O636   O     0.22080   0.70129   0.33432   0.00000  Uiso   1.00
O637   O     0.28289   0.73677   0.34453   0.00000  Uiso   1.00
N638   N     0.06620   0.95716   0.17918   0.00000  Uiso   1.00
O639   O     0.11230   0.96540   0.16746   0.00000  Uiso   1.00
O640   O     0.05032   0.92978   0.15715   0.00000  Uiso   1.00
N641   N     0.26623   0.95540   0.32172   0.00000  Uiso   1.00
O642   O     0.22898   0.93695   0.31557   0.00000  Uiso   1.00
O643   O     0.27003   0.95807   0.36247   0.00000  Uiso   1.00
N644   N     0.06707   0.71120   0.17997   0.00000  Uiso   1.00
O645   O     0.06091   0.71140   0.13985   0.00000  Uiso   1.00
O646   O     0.10600   0.72728   0.18547   0.00000  Uiso   1.00
N647   N     0.10920   0.76550   0.28694   0.00000  Uiso   1.00
H648   H     0.12566   0.73877   0.27208   0.00000  Uiso   1.00
C649   C     0.09234   0.76068   0.33545   0.00000  Uiso   1.00
H650   H     0.12306   0.75115   0.34887   0.00000  Uiso   1.00
H651   H     0.06458   0.73611   0.34469   0.00000  Uiso   1.00
H652   H     0.07537   0.78989   0.35087   0.00000  Uiso   1.00
N653   N     0.22636   0.89676   0.20299   0.00000  Uiso   1.00
H654   H     0.26166   0.89061   0.18504   0.00000  Uiso   1.00
C655   C     0.21164   0.93966   0.21113   0.00000  Uiso   1.00
H656   H     0.24070   0.95658   0.21991   0.00000  Uiso   1.00
H657   H     0.17769   0.94272   0.23929   0.00000  Uiso   1.00
H658   H     0.20590   0.95419   0.17996   0.00000  Uiso   1.00
O659   O     0.37291   0.77322   0.25000   0.00000  Uiso   1.00
O660   O     0.62709   0.89345   0.25000   0.00000  Uiso   1.00
O661   O     0.62706   0.77321   0.25000   0.00000  Uiso   1.00
O662   O     0.37294   0.89346   0.25000   0.00000  Uiso   1.00
C663   C     0.33373   0.75419   0.25038   0.00000  Uiso   1.00
C664   C     0.66602   0.91247   0.25043   0.00000  Uiso   1.00
O665   O     0.35186   0.83334   0.31492   0.00000  Uiso   1.00
O666   O     0.64814   0.83332   0.18508   0.00000  Uiso   1.00
O667   O     0.60600   0.83333   0.31492   0.00000  Uiso   1.00
O668   O     0.39400   0.83333   0.18508   0.00000  Uiso   1.00
C669   C     0.63906   0.83501   0.33601   0.00000  Uiso   1.00
C670   C     0.36092   0.83294   0.16387   0.00000  Uiso   1.00
Cu671  Cu    0.38022   0.83334   0.25000   0.00000  Uiso   1.00
Cu672  Cu    0.61978   0.83333   0.25000   0.00000  Uiso   1.00
C673   C     0.62283   0.84527   0.38387   0.00000  Uiso   1.00
C674   C     0.37603   0.83115   0.11449   0.00000  Uiso   1.00
C675   C     0.62765   0.88953   0.44385   0.00000  Uiso   1.00
C676   C     0.36202   0.80758   0.04616   0.00000  Uiso   1.00
C677   C     0.64877   0.87291   0.40155   0.00000  Uiso   1.00
C678   C     0.34601   0.81282   0.09245   0.00000  Uiso   1.00
C679   C     0.57639   0.83380   0.40919   0.00000  Uiso   1.00
C680   C     0.42132   0.84618   0.08943   0.00000  Uiso   1.00
C681   C     0.55188   0.85433   0.44889   0.00000  Uiso   1.00
C682   C     0.43665   0.84452   0.04188   0.00000  Uiso   1.00
C683   C     0.57881   0.88122   0.46757   0.00000  Uiso   1.00
C684   C     0.40752   0.82259   0.02045   0.00000  Uiso   1.00
C685   C     0.50177   0.84772   0.47086   0.00000  Uiso   1.00
C686   C     0.48212   0.86076   0.01580   0.00000  Uiso   1.00
C687   C     0.50761   0.89104   0.03221   0.00000  Uiso   1.00
C688   C     0.47011   0.83012   0.44872   0.00000  Uiso   1.00
C689   C     0.55618   0.90023   0.00868   0.00000  Uiso   1.00
C690   C     0.42434   0.81572   0.47392   0.00000  Uiso   1.00
H691   H     0.44504   0.85752   0.10775   0.00000  Uiso   1.00
H692   H     0.55976   0.80900   0.39668   0.00000  Uiso   1.00
H693   H     0.64435   0.80065   0.11134   0.00000  Uiso   1.00
H694   H     0.35145   0.88247   0.38223   0.00000  Uiso   1.00
H695   H     0.64928   0.91005   0.45692   0.00000  Uiso   1.00
H696   H     0.33859   0.79114   0.03101   0.00000  Uiso   1.00
C697   C     0.63343   0.68791   0.28607   0.00000  Uiso   1.00
C698   C     0.36629   0.97881   0.21539   0.00000  Uiso   1.00
C699   C     0.63197   0.97808   0.28505   0.00000  Uiso   1.00
C700   C     0.36783   0.68855   0.21650   0.00000  Uiso   1.00
C701   C     0.66505   0.95717   0.24972   0.00000  Uiso   1.00
C702   C     0.33461   0.70950   0.25160   0.00000  Uiso   1.00
C703   C     0.51955   0.80184   0.27056   0.00000  Uiso   1.00
C704   C     0.48033   0.86471   0.22936   0.00000  Uiso   1.00
H705   H     0.53402   0.77642   0.28670   0.00000  Uiso   1.00
H706   H     0.46607   0.88914   0.21175   0.00000  Uiso   1.00
C707   C     0.47023   0.80133   0.27016   0.00000  Uiso   1.00
C708   C     0.52992   0.86491   0.22879   0.00000  Uiso   1.00
N709   N     0.45069   0.83334   0.24999   0.00000  Uiso   1.00
N710   N     0.54931   0.83332   0.25001   0.00000  Uiso   1.00
N711   N     0.58167   0.93027   0.02598   0.00000  Uiso   1.00
O712   O     0.59247   0.96592   0.00504   0.00000  Uiso   1.00
O713   O     0.59420   0.92193   0.06263   0.00000  Uiso   1.00
N714   N     0.39640   0.79187   0.45231   0.00000  Uiso   1.00
O715   O     0.35511   0.80602   0.44823   0.00000  Uiso   1.00
O716   O     0.40992   0.75410   0.44104   0.00000  Uiso   1.00
N717   N     0.48188   0.91765   0.06723   0.00000  Uiso   1.00
H718   H     0.50160   0.92787   0.08775   0.00000  Uiso   1.00
C719   C     0.45484   0.95063   0.05199   0.00000  Uiso   1.00
H720   H     0.43524   0.96967   0.08091   0.00000  Uiso   1.00
H721   H     0.42767   0.93761   0.03704   0.00000  Uiso   1.00
H722   H     0.47991   0.97099   0.02649   0.00000  Uiso   1.00
N723   N     0.48133   0.83219   0.40068   0.00000  Uiso   1.00
H724   H     0.46812   0.80856   0.38647   0.00000  Uiso   1.00
C725   C     0.47369   0.87252   0.38186   0.00000  Uiso   1.00
H726   H     0.48544   0.87161   0.34441   0.00000  Uiso   1.00
H727   H     0.49536   0.89619   0.39237   0.00000  Uiso   1.00
H728   H     0.43458   0.88137   0.39325   0.00000  Uiso   1.00
N729   N     0.60022   0.70967   0.32229   0.00000  Uiso   1.00
O730   O     0.55414   0.70129   0.33432   0.00000  Uiso   1.00
O731   O     0.61622   0.73677   0.34453   0.00000  Uiso   1.00
N732   N     0.39953   0.95716   0.17918   0.00000  Uiso   1.00
O733   O     0.44563   0.96540   0.16746   0.00000  Uiso   1.00
O734   O     0.38365   0.92978   0.15715   0.00000  Uiso   1.00
N735   N     0.59957   0.95540   0.32172   0.00000  Uiso   1.00
O736   O     0.56231   0.93695   0.31557   0.00000  Uiso   1.00
O737   O     0.60336   0.95807   0.36247   0.00000  Uiso   1.00
N738   N     0.40040   0.71120   0.17997   0.00000  Uiso   1.00
O739   O     0.39424   0.71140   0.13985   0.00000  Uiso   1.00
O740   O     0.43933   0.72728   0.18547   0.00000  Uiso   1.00
N741   N     0.44254   0.76550   0.28694   0.00000  Uiso   1.00
H742   H     0.45900   0.73877   0.27208   0.00000  Uiso   1.00
C743   C     0.42568   0.76068   0.33545   0.00000  Uiso   1.00
H744   H     0.45639   0.75115   0.34887   0.00000  Uiso   1.00
H745   H     0.39792   0.73611   0.34469   0.00000  Uiso   1.00
H746   H     0.40870   0.78989   0.35087   0.00000  Uiso   1.00
N747   N     0.55970   0.89676   0.20299   0.00000  Uiso   1.00
H748   H     0.59499   0.89061   0.18504   0.00000  Uiso   1.00
C749   C     0.54497   0.93966   0.21113   0.00000  Uiso   1.00
H750   H     0.57403   0.95658   0.21991   0.00000  Uiso   1.00
H751   H     0.51102   0.94272   0.23929   0.00000  Uiso   1.00
H752   H     0.53923   0.95419   0.17996   0.00000  Uiso   1.00
O753   O     0.70625   0.77322   0.25000   0.00000  Uiso   1.00
O754   O     0.96042   0.89345   0.25000   0.00000  Uiso   1.00
O755   O     0.96039   0.77321   0.25000   0.00000  Uiso   1.00
O756   O     0.70628   0.89346   0.25000   0.00000  Uiso   1.00
C757   C     0.66707   0.75419   0.25038   0.00000  Uiso   1.00
C758   C     0.99935   0.91247   0.25043   0.00000  Uiso   1.00
O759   O     0.68519   0.83334   0.31492   0.00000  Uiso   1.00
O760   O     0.98148   0.83332   0.18508   0.00000  Uiso   1.00
O761   O     0.93933   0.83333   0.31492   0.00000  Uiso   1.00
O762   O     0.72733   0.83333   0.18508   0.00000  Uiso   1.00
C763   C     0.97239   0.83501   0.33601   0.00000  Uiso   1.00
C764   C     0.69426   0.83294   0.16387   0.00000  Uiso   1.00
Cu765  Cu    0.71355   0.83334   0.25000   0.00000  Uiso   1.00
Cu766  Cu    0.95311   0.83333   0.25000   0.00000  Uiso   1.00
C767   C     0.95616   0.84527   0.38387   0.00000  Uiso   1.00
C768   C     0.70937   0.83115   0.11449   0.00000  Uiso   1.00
C769   C     0.96098   0.88953   0.44385   0.00000  Uiso   1.00
C770   C     0.69535   0.80758   0.04616   0.00000  Uiso   1.00
C771   C     0.98210   0.87291   0.40155   0.00000  Uiso   1.00
C772   C     0.67934   0.81282   0.09245   0.00000  Uiso   1.00
C773   C     0.90972   0.83380   0.40919   0.00000  Uiso   1.00
C774   C     0.75465   0.84618   0.08943   0.00000  Uiso   1.00
C775   C     0.88522   0.85433   0.44889   0.00000  Uiso   1.00
C776   C     0.76998   0.84452   0.04188   0.00000  Uiso   1.00
C777   C     0.91215   0.88122   0.46757   0.00000  Uiso   1.00
C778   C     0.74085   0.82259   0.02045   0.00000  Uiso   1.00
C779   C     0.83511   0.84772   0.47086   0.00000  Uiso   1.00
C780   C     0.81546   0.86076   0.01580   0.00000  Uiso   1.00
C781   C     0.84094   0.89104   0.03221   0.00000  Uiso   1.00
C782   C     0.80344   0.83012   0.44872   0.00000  Uiso   1.00
C783   C     0.88951   0.90023   0.00868   0.00000  Uiso   1.00
C784   C     0.75767   0.81572   0.47392   0.00000  Uiso   1.00
H785   H     0.77837   0.85752   0.10775   0.00000  Uiso   1.00
H786   H     0.89309   0.80900   0.39668   0.00000  Uiso   1.00
H787   H     0.97768   0.80065   0.11134   0.00000  Uiso   1.00
H788   H     0.68478   0.88247   0.38223   0.00000  Uiso   1.00
H789   H     0.98261   0.91005   0.45692   0.00000  Uiso   1.00
H790   H     0.67193   0.79114   0.03101   0.00000  Uiso   1.00
C791   C     0.96676   0.68791   0.28607   0.00000  Uiso   1.00
C792   C     0.69963   0.97881   0.21539   0.00000  Uiso   1.00
C793   C     0.96530   0.97808   0.28505   0.00000  Uiso   1.00
C794   C     0.70117   0.68855   0.21650   0.00000  Uiso   1.00
C795   C     0.99838   0.95717   0.24972   0.00000  Uiso   1.00
C796   C     0.66795   0.70950   0.25160   0.00000  Uiso   1.00
C797   C     0.85288   0.80184   0.27056   0.00000  Uiso   1.00
C798   C     0.81366   0.86471   0.22936   0.00000  Uiso   1.00
H799   H     0.86735   0.77642   0.28670   0.00000  Uiso   1.00
H800   H     0.79940   0.88914   0.21175   0.00000  Uiso   1.00
C801   C     0.80356   0.80133   0.27016   0.00000  Uiso   1.00
C802   C     0.86325   0.86491   0.22879   0.00000  Uiso   1.00
N803   N     0.78403   0.83334   0.24999   0.00000  Uiso   1.00
N804   N     0.88264   0.83332   0.25001   0.00000  Uiso   1.00
N805   N     0.91500   0.93027   0.02598   0.00000  Uiso   1.00
O806   O     0.92580   0.96592   0.00504   0.00000  Uiso   1.00
O807   O     0.92753   0.92193   0.06263   0.00000  Uiso   1.00
N808   N     0.72974   0.79187   0.45231   0.00000  Uiso   1.00
O809   O     0.68844   0.80602   0.44823   0.00000  Uiso   1.00
O810   O     0.74326   0.75410   0.44104   0.00000  Uiso   1.00
N811   N     0.81521   0.91765   0.06723   0.00000  Uiso   1.00
H812   H     0.83494   0.92787   0.08775   0.00000  Uiso   1.00
C813   C     0.78817   0.95063   0.05199   0.00000  Uiso   1.00
H814   H     0.76857   0.96967   0.08091   0.00000  Uiso   1.00
H815   H     0.76100   0.93761   0.03704   0.00000  Uiso   1.00
H816   H     0.81324   0.97099   0.02649   0.00000  Uiso   1.00
N817   N     0.81466   0.83219   0.40068   0.00000  Uiso   1.00
H818   H     0.80146   0.80856   0.38647   0.00000  Uiso   1.00
C819   C     0.80702   0.87252   0.38186   0.00000  Uiso   1.00
H820   H     0.81877   0.87161   0.34441   0.00000  Uiso   1.00
H821   H     0.82869   0.89619   0.39237   0.00000  Uiso   1.00
H822   H     0.76792   0.88137   0.39325   0.00000  Uiso   1.00
N823   N     0.93355   0.70967   0.32229   0.00000  Uiso   1.00
O824   O     0.88747   0.70129   0.33432   0.00000  Uiso   1.00
O825   O     0.94956   0.73677   0.34453   0.00000  Uiso   1.00
N826   N     0.73286   0.95716   0.17918   0.00000  Uiso   1.00
O827   O     0.77896   0.96540   0.16746   0.00000  Uiso   1.00
O828   O     0.71699   0.92978   0.15715   0.00000  Uiso   1.00
N829   N     0.93290   0.95540   0.32172   0.00000  Uiso   1.00
O830   O     0.89565   0.93695   0.31557   0.00000  Uiso   1.00
O831   O     0.93670   0.95807   0.36247   0.00000  Uiso   1.00
N832   N     0.73374   0.71120   0.17997   0.00000  Uiso   1.00
O833   O     0.72757   0.71140   0.13985   0.00000  Uiso   1.00
O834   O     0.77267   0.72728   0.18547   0.00000  Uiso   1.00
N835   N     0.77587   0.76550   0.28694   0.00000  Uiso   1.00
H836   H     0.79233   0.73877   0.27208   0.00000  Uiso   1.00
C837   C     0.75901   0.76068   0.33545   0.00000  Uiso   1.00
H838   H     0.78972   0.75115   0.34887   0.00000  Uiso   1.00
H839   H     0.73125   0.73611   0.34469   0.00000  Uiso   1.00
H840   H     0.74204   0.78989   0.35087   0.00000  Uiso   1.00
N841   N     0.89303   0.89676   0.20299   0.00000  Uiso   1.00
H842   H     0.92833   0.89061   0.18504   0.00000  Uiso   1.00
C843   C     0.87831   0.93966   0.21113   0.00000  Uiso   1.00
H844   H     0.90736   0.95658   0.21991   0.00000  Uiso   1.00
H845   H     0.84436   0.94272   0.23929   0.00000  Uiso   1.00
H846   H     0.87257   0.95419   0.17996   0.00000  Uiso   1.00
O847   O     0.03958   0.10655   0.75000   0.00000  Uiso   1.00
O848   O     0.29375   0.22678   0.75000   0.00000  Uiso   1.00
O849   O     0.29372   0.10654   0.75000   0.00000  Uiso   1.00
O850   O     0.03961   0.22679   0.75000   0.00000  Uiso   1.00
C851   C     0.00040   0.08753   0.75038   0.00000  Uiso   1.00
C852   C     0.33268   0.24580   0.75043   0.00000  Uiso   1.00
O853   O     0.01852   0.16668   0.81492   0.00000  Uiso   1.00
O854   O     0.31481   0.16666   0.68508   0.00000  Uiso   1.00
O855   O     0.27267   0.16667   0.81492   0.00000  Uiso   1.00
O856   O     0.06067   0.16667   0.68508   0.00000  Uiso   1.00
C857   C     0.30572   0.16834   0.83601   0.00000  Uiso   1.00
C858   C     0.02759   0.16628   0.66387   0.00000  Uiso   1.00
Cu859  Cu    0.04689   0.16667   0.75000   0.00000  Uiso   1.00
Cu860  Cu    0.28645   0.16666   0.75000   0.00000  Uiso   1.00
C861   C     0.28949   0.17860   0.88387   0.00000  Uiso   1.00
C862   C     0.04270   0.16448   0.61449   0.00000  Uiso   1.00
C863   C     0.29432   0.22286   0.94385   0.00000  Uiso   1.00
C864   C     0.02869   0.14091   0.54616   0.00000  Uiso   1.00
C865   C     0.31543   0.20624   0.90155   0.00000  Uiso   1.00
C866   C     0.01267   0.14615   0.59245   0.00000  Uiso   1.00
C867   C     0.24305   0.16713   0.90919   0.00000  Uiso   1.00
C868   C     0.08798   0.17952   0.58943   0.00000  Uiso   1.00
C869   C     0.21855   0.18766   0.94889   0.00000  Uiso   1.00
C870   C     0.10332   0.17785   0.54188   0.00000  Uiso   1.00
C871   C     0.24548   0.21455   0.96757   0.00000  Uiso   1.00
C872   C     0.07418   0.15592   0.52045   0.00000  Uiso   1.00
C873   C     0.16844   0.18106   0.97086   0.00000  Uiso   1.00
C874   C     0.14879   0.19409   0.51580   0.00000  Uiso   1.00
C875   C     0.17427   0.22437   0.53221   0.00000  Uiso   1.00
C876   C     0.13678   0.16345   0.94872   0.00000  Uiso   1.00
C877   C     0.22284   0.23357   0.50868   0.00000  Uiso   1.00
C878   C     0.09100   0.14905   0.97392   0.00000  Uiso   1.00
H879   H     0.11171   0.19085   0.60775   0.00000  Uiso   1.00
H880   H     0.22643   0.14233   0.89668   0.00000  Uiso   1.00
H881   H     0.31101   0.13399   0.61134   0.00000  Uiso   1.00
H882   H     0.01811   0.21580   0.88223   0.00000  Uiso   1.00
H883   H     0.31594   0.24338   0.95692   0.00000  Uiso   1.00
H884   H     0.00526   0.12448   0.53101   0.00000  Uiso   1.00
C885   C     0.30009   0.02124   0.78607   0.00000  Uiso   1.00
C886   C     0.03296   0.31214   0.71539   0.00000  Uiso   1.00
C887   C     0.29863   0.31141   0.78505   0.00000  Uiso   1.00
C888   C     0.03450   0.02189   0.71650   0.00000  Uiso   1.00
C889   C     0.33172   0.29050   0.74972   0.00000  Uiso   1.00
C890   C     0.00128   0.04284   0.75160   0.00000  Uiso   1.00
C891   C     0.18621   0.13517   0.77056   0.00000  Uiso   1.00
C892   C     0.14699   0.19804   0.72936   0.00000  Uiso   1.00
H893   H     0.20069   0.10976   0.78670   0.00000  Uiso   1.00
H894   H     0.13273   0.22248   0.71175   0.00000  Uiso   1.00
C895   C     0.13689   0.13466   0.77016   0.00000  Uiso   1.00
C896   C     0.19659   0.19824   0.72879   0.00000  Uiso   1.00
N897   N     0.11736   0.16668   0.74999   0.00000  Uiso   1.00
N898   N     0.21597   0.16666   0.75001   0.00000  Uiso   1.00
N899   N     0.24833   0.26360   0.52598   0.00000  Uiso   1.00
O900   O     0.25913   0.29926   0.50504   0.00000  Uiso   1.00
O901   O     0.26086   0.25527   0.56263   0.00000  Uiso   1.00
N902   N     0.06307   0.12521   0.95231   0.00000  Uiso   1.00
O903   O     0.02177   0.13936   0.94823   0.00000  Uiso   1.00
O904   O     0.07659   0.08743   0.94104   0.00000  Uiso   1.00
N905   N     0.14854   0.25098   0.56723   0.00000  Uiso   1.00
H906   H     0.16827   0.26121   0.58775   0.00000  Uiso   1.00
C907   C     0.12150   0.28396   0.55199   0.00000  Uiso   1.00
H908   H     0.10191   0.30301   0.58091   0.00000  Uiso   1.00
H909   H     0.09434   0.27094   0.53704   0.00000  Uiso   1.00
H910   H     0.14657   0.30433   0.52649   0.00000  Uiso   1.00
N911   N     0.14799   0.16552   0.90068   0.00000  Uiso   1.00
H912   H     0.13479   0.14189   0.88647   0.00000  Uiso   1.00
C913   C     0.14035   0.20585   0.88186   0.00000  Uiso   1.00
H914   H     0.15210   0.20495   0.84441   0.00000  Uiso   1.00
H915   H     0.16203   0.22953   0.89237   0.00000  Uiso   1.00
H916   H     0.10125   0.21470   0.89325   0.00000  Uiso   1.00
N917   N     0.26688   0.04300   0.82229   0.00000  Uiso   1.00
O918   O     0.22080   0.03462   0.83432   0.00000  Uiso   1.00
O919   O     0.28289   0.07011   0.84453   0.00000  Uiso   1.00
N920   N     0.06620   0.29049   0.67918   0.00000  Uiso   1.00
O921   O     0.11230   0.29873   0.66746   0.00000  Uiso   1.00
O922   O     0.05032   0.26311   0.65715   0.00000  Uiso   1.00
N923   N     0.26623   0.28873   0.82172   0.00000  Uiso   1.00
O924   O     0.22898   0.27028   0.81557   0.00000  Uiso   1.00
O925   O     0.27003   0.29141   0.86247   0.00000  Uiso   1.00
N926   N     0.06707   0.04453   0.67997   0.00000  Uiso   1.00
O927   O     0.06091   0.04474   0.63985   0.00000  Uiso   1.00
O928   O     0.10600   0.06062   0.68547   0.00000  Uiso   1.00
N929   N     0.10920   0.09883   0.78694   0.00000  Uiso   1.00
H930   H     0.12566   0.07210   0.77208   0.00000  Uiso   1.00
C931   C     0.09234   0.09401   0.83545   0.00000  Uiso   1.00
H932   H     0.12306   0.08448   0.84887   0.00000  Uiso   1.00
H933   H     0.06458   0.06944   0.84469   0.00000  Uiso   1.00
H934   H     0.07537   0.12322   0.85087   0.00000  Uiso   1.00
N935   N     0.22636   0.23010   0.70299   0.00000  Uiso   1.00
H936   H     0.26166   0.22394   0.68504   0.00000  Uiso   1.00
C937   C     0.21164   0.27300   0.71113   0.00000  Uiso   1.00
H938   H     0.24070   0.28991   0.71991   0.00000  Uiso   1.00
H939   H     0.17769   0.27606   0.73929   0.00000  Uiso   1.00
H940   H     0.20590   0.28752   0.67996   0.00000  Uiso   1.00
O941   O     0.37291   0.10655   0.75000   0.00000  Uiso   1.00
O942   O     0.62709   0.22678   0.75000   0.00000  Uiso   1.00
O943   O     0.62706   0.10654   0.75000   0.00000  Uiso   1.00
O944   O     0.37294   0.22679   0.75000   0.00000  Uiso   1.00
C945   C     0.33373   0.08753   0.75038   0.00000  Uiso   1.00
C946   C     0.66602   0.24580   0.75043   0.00000  Uiso   1.00
O947   O     0.35186   0.16668   0.81492   0.00000  Uiso   1.00
O948   O     0.64814   0.16666   0.68508   0.00000  Uiso   1.00
O949   O     0.60600   0.16667   0.81492   0.00000  Uiso   1.00
O950   O     0.39400   0.16667   0.68508   0.00000  Uiso   1.00
C951   C     0.63906   0.16834   0.83601   0.00000  Uiso   1.00
C952   C     0.36092   0.16628   0.66387   0.00000  Uiso   1.00
Cu953  Cu    0.38022   0.16667   0.75000   0.00000  Uiso   1.00
Cu954  Cu    0.61978   0.16666   0.75000   0.00000  Uiso   1.00
C955   C     0.62283   0.17860   0.88387   0.00000  Uiso   1.00
C956   C     0.37603   0.16448   0.61449   0.00000  Uiso   1.00
C957   C     0.62765   0.22286   0.94385   0.00000  Uiso   1.00
C958   C     0.36202   0.14091   0.54616   0.00000  Uiso   1.00
C959   C     0.64877   0.20624   0.90155   0.00000  Uiso   1.00
C960   C     0.34601   0.14615   0.59245   0.00000  Uiso   1.00
C961   C     0.57639   0.16713   0.90919   0.00000  Uiso   1.00
C962   C     0.42132   0.17952   0.58943   0.00000  Uiso   1.00
C963   C     0.55188   0.18766   0.94889   0.00000  Uiso   1.00
C964   C     0.43665   0.17785   0.54188   0.00000  Uiso   1.00
C965   C     0.57881   0.21455   0.96757   0.00000  Uiso   1.00
C966   C     0.40752   0.15592   0.52045   0.00000  Uiso   1.00
C967   C     0.50177   0.18106   0.97086   0.00000  Uiso   1.00
C968   C     0.48212   0.19409   0.51580   0.00000  Uiso   1.00
C969   C     0.50761   0.22437   0.53221   0.00000  Uiso   1.00
C970   C     0.47011   0.16345   0.94872   0.00000  Uiso   1.00
C971   C     0.55618   0.23357   0.50868   0.00000  Uiso   1.00
C972   C     0.42434   0.14905   0.97392   0.00000  Uiso   1.00
H973   H     0.44504   0.19085   0.60775   0.00000  Uiso   1.00
H974   H     0.55976   0.14233   0.89668   0.00000  Uiso   1.00
H975   H     0.64435   0.13399   0.61134   0.00000  Uiso   1.00
H976   H     0.35145   0.21580   0.88223   0.00000  Uiso   1.00
H977   H     0.64928   0.24338   0.95692   0.00000  Uiso   1.00
H978   H     0.33859   0.12448   0.53101   0.00000  Uiso   1.00
C979   C     0.63343   0.02124   0.78607   0.00000  Uiso   1.00
C980   C     0.36629   0.31214   0.71539   0.00000  Uiso   1.00
C981   C     0.63197   0.31141   0.78505   0.00000  Uiso   1.00
C982   C     0.36783   0.02189   0.71650   0.00000  Uiso   1.00
C983   C     0.66505   0.29050   0.74972   0.00000  Uiso   1.00
C984   C     0.33461   0.04284   0.75160   0.00000  Uiso   1.00
C985   C     0.51955   0.13517   0.77056   0.00000  Uiso   1.00
C986   C     0.48033   0.19804   0.72936   0.00000  Uiso   1.00
H987   H     0.53402   0.10976   0.78670   0.00000  Uiso   1.00
H988   H     0.46607   0.22248   0.71175   0.00000  Uiso   1.00
C989   C     0.47023   0.13466   0.77016   0.00000  Uiso   1.00
C990   C     0.52992   0.19824   0.72879   0.00000  Uiso   1.00
N991   N     0.45069   0.16668   0.74999   0.00000  Uiso   1.00
N992   N     0.54931   0.16666   0.75001   0.00000  Uiso   1.00
N993   N     0.58167   0.26360   0.52598   0.00000  Uiso   1.00
O994   O     0.59247   0.29926   0.50504   0.00000  Uiso   1.00
O995   O     0.59420   0.25527   0.56263   0.00000  Uiso   1.00
N996   N     0.39640   0.12521   0.95231   0.00000  Uiso   1.00
O997   O     0.35511   0.13936   0.94823   0.00000  Uiso   1.00
O998   O     0.40992   0.08743   0.94104   0.00000  Uiso   1.00
N999   N     0.48188   0.25098   0.56723   0.00000  Uiso   1.00
H1000  H     0.50160   0.26121   0.58775   0.00000  Uiso   1.00
C1001  C     0.45484   0.28396   0.55199   0.00000  Uiso   1.00
H1002  H     0.43524   0.30301   0.58091   0.00000  Uiso   1.00
H1003  H     0.42767   0.27094   0.53704   0.00000  Uiso   1.00
H1004  H     0.47991   0.30433   0.52649   0.00000  Uiso   1.00
N1005  N     0.48133   0.16552   0.90068   0.00000  Uiso   1.00
H1006  H     0.46812   0.14189   0.88647   0.00000  Uiso   1.00
C1007  C     0.47369   0.20585   0.88186   0.00000  Uiso   1.00
H1008  H     0.48544   0.20495   0.84441   0.00000  Uiso   1.00
H1009  H     0.49536   0.22953   0.89237   0.00000  Uiso   1.00
H1010  H     0.43458   0.21470   0.89325   0.00000  Uiso   1.00
N1011  N     0.60022   0.04300   0.82229   0.00000  Uiso   1.00
O1012  O     0.55414   0.03462   0.83432   0.00000  Uiso   1.00
O1013  O     0.61622   0.07011   0.84453   0.00000  Uiso   1.00
N1014  N     0.39953   0.29049   0.67918   0.00000  Uiso   1.00
O1015  O     0.44563   0.29873   0.66746   0.00000  Uiso   1.00
O1016  O     0.38365   0.26311   0.65715   0.00000  Uiso   1.00
N1017  N     0.59957   0.28873   0.82172   0.00000  Uiso   1.00
O1018  O     0.56231   0.27028   0.81557   0.00000  Uiso   1.00
O1019  O     0.60336   0.29141   0.86247   0.00000  Uiso   1.00
N1020  N     0.40040   0.04453   0.67997   0.00000  Uiso   1.00
O1021  O     0.39424   0.04474   0.63985   0.00000  Uiso   1.00
O1022  O     0.43933   0.06062   0.68547   0.00000  Uiso   1.00
N1023  N     0.44254   0.09883   0.78694   0.00000  Uiso   1.00
H1024  H     0.45900   0.07210   0.77208   0.00000  Uiso   1.00
C1025  C     0.42568   0.09401   0.83545   0.00000  Uiso   1.00
H1026  H     0.45639   0.08448   0.84887   0.00000  Uiso   1.00
H1027  H     0.39792   0.06944   0.84469   0.00000  Uiso   1.00
H1028  H     0.40870   0.12322   0.85087   0.00000  Uiso   1.00
N1029  N     0.55970   0.23010   0.70299   0.00000  Uiso   1.00
H1030  H     0.59499   0.22394   0.68504   0.00000  Uiso   1.00
C1031  C     0.54497   0.27300   0.71113   0.00000  Uiso   1.00
H1032  H     0.57403   0.28991   0.71991   0.00000  Uiso   1.00
H1033  H     0.51102   0.27606   0.73929   0.00000  Uiso   1.00
H1034  H     0.53923   0.28752   0.67996   0.00000  Uiso   1.00
O1035  O     0.70625   0.10655   0.75000   0.00000  Uiso   1.00
O1036  O     0.96042   0.22678   0.75000   0.00000  Uiso   1.00
O1037  O     0.96039   0.10654   0.75000   0.00000  Uiso   1.00
O1038  O     0.70628   0.22679   0.75000   0.00000  Uiso   1.00
C1039  C     0.66707   0.08753   0.75038   0.00000  Uiso   1.00
C1040  C     0.99935   0.24580   0.75043   0.00000  Uiso   1.00
O1041  O     0.68519   0.16668   0.81492   0.00000  Uiso   1.00
O1042  O     0.98148   0.16666   0.68508   0.00000  Uiso   1.00
O1043  O     0.93933   0.16667   0.81492   0.00000  Uiso   1.00
O1044  O     0.72733   0.16667   0.68508   0.00000  Uiso   1.00
C1045  C     0.97239   0.16834   0.83601   0.00000  Uiso   1.00
C1046  C     0.69426   0.16628   0.66387   0.00000  Uiso   1.00
Cu1047 Cu    0.71355   0.16667   0.75000   0.00000  Uiso   1.00
Cu1048 Cu    0.95311   0.16666   0.75000   0.00000  Uiso   1.00
C1049  C     0.95616   0.17860   0.88387   0.00000  Uiso   1.00
C1050  C     0.70937   0.16448   0.61449   0.00000  Uiso   1.00
C1051  C     0.96098   0.22286   0.94385   0.00000  Uiso   1.00
C1052  C     0.69535   0.14091   0.54616   0.00000  Uiso   1.00
C1053  C     0.98210   0.20624   0.90155   0.00000  Uiso   1.00
C1054  C     0.67934   0.14615   0.59245   0.00000  Uiso   1.00
C1055  C     0.90972   0.16713   0.90919   0.00000  Uiso   1.00
C1056  C     0.75465   0.17952   0.58943   0.00000  Uiso   1.00
C1057  C     0.88522   0.18766   0.94889   0.00000  Uiso   1.00
C1058  C     0.76998   0.17785   0.54188   0.00000  Uiso   1.00
C1059  C     0.91215   0.21455   0.96757   0.00000  Uiso   1.00
C1060  C     0.74085   0.15592   0.52045   0.00000  Uiso   1.00
C1061  C     0.83511   0.18106   0.97086   0.00000  Uiso   1.00
C1062  C     0.81546   0.19409   0.51580   0.00000  Uiso   1.00
C1063  C     0.84094   0.22437   0.53221   0.00000  Uiso   1.00
C1064  C     0.80344   0.16345   0.94872   0.00000  Uiso   1.00
C1065  C     0.88951   0.23357   0.50868   0.00000  Uiso   1.00
C1066  C     0.75767   0.14905   0.97392   0.00000  Uiso   1.00
H1067  H     0.77837   0.19085   0.60775   0.00000  Uiso   1.00
H1068  H     0.89309   0.14233   0.89668   0.00000  Uiso   1.00
H1069  H     0.97768   0.13399   0.61134   0.00000  Uiso   1.00
H1070  H     0.68478   0.21580   0.88223   0.00000  Uiso   1.00
H1071  H     0.98261   0.24338   0.95692   0.00000  Uiso   1.00
H1072  H     0.67193   0.12448   0.53101   0.00000  Uiso   1.00
C1073  C     0.96676   0.02124   0.78607   0.00000  Uiso   1.00
C1074  C     0.69963   0.31214   0.71539   0.00000  Uiso   1.00
C1075  C     0.96530   0.31141   0.78505   0.00000  Uiso   1.00
C1076  C     0.70117   0.02189   0.71650   0.00000  Uiso   1.00
C1077  C     0.99838   0.29050   0.74972   0.00000  Uiso   1.00
C1078  C     0.66795   0.04284   0.75160   0.00000  Uiso   1.00
C1079  C     0.85288   0.13517   0.77056   0.00000  Uiso   1.00
C1080  C     0.81366   0.19804   0.72936   0.00000  Uiso   1.00
H1081  H     0.86735   0.10976   0.78670   0.00000  Uiso   1.00
H1082  H     0.79940   0.22248   0.71175   0.00000  Uiso   1.00
C1083  C     0.80356   0.13466   0.77016   0.00000  Uiso   1.00
C1084  C     0.86325   0.19824   0.72879   0.00000  Uiso   1.00
N1085  N     0.78403   0.16668   0.74999   0.00000  Uiso   1.00
N1086  N     0.88264   0.16666   0.75001   0.00000  Uiso   1.00
N1087  N     0.91500   0.26360   0.52598   0.00000  Uiso   1.00
O1088  O     0.92580   0.29926   0.50504   0.00000  Uiso   1.00
O1089  O     0.92753   0.25527   0.56263   0.00000  Uiso   1.00
N1090  N     0.72974   0.12521   0.95231   0.00000  Uiso   1.00
O1091  O     0.68844   0.13936   0.94823   0.00000  Uiso   1.00
O1092  O     0.74326   0.08743   0.94104   0.00000  Uiso   1.00
N1093  N     0.81521   0.25098   0.56723   0.00000  Uiso   1.00
H1094  H     0.83494   0.26121   0.58775   0.00000  Uiso   1.00
C1095  C     0.78817   0.28396   0.55199   0.00000  Uiso   1.00
H1096  H     0.76857   0.30301   0.58091   0.00000  Uiso   1.00
H1097  H     0.76100   0.27094   0.53704   0.00000  Uiso   1.00
H1098  H     0.81324   0.30433   0.52649   0.00000  Uiso   1.00
N1099  N     0.81466   0.16552   0.90068   0.00000  Uiso   1.00
H1100  H     0.80146   0.14189   0.88647   0.00000  Uiso   1.00
C1101  C     0.80702   0.20585   0.88186   0.00000  Uiso   1.00
H1102  H     0.81877   0.20495   0.84441   0.00000  Uiso   1.00
H1103  H     0.82869   0.22953   0.89237   0.00000  Uiso   1.00
H1104  H     0.76792   0.21470   0.89325   0.00000  Uiso   1.00
N1105  N     0.93355   0.04300   0.82229   0.00000  Uiso   1.00
O1106  O     0.88747   0.03462   0.83432   0.00000  Uiso   1.00
O1107  O     0.94956   0.07011   0.84453   0.00000  Uiso   1.00
N1108  N     0.73286   0.29049   0.67918   0.00000  Uiso   1.00
O1109  O     0.77896   0.29873   0.66746   0.00000  Uiso   1.00
O1110  O     0.71699   0.26311   0.65715   0.00000  Uiso   1.00
N1111  N     0.93290   0.28873   0.82172   0.00000  Uiso   1.00
O1112  O     0.89565   0.27028   0.81557   0.00000  Uiso   1.00
O1113  O     0.93670   0.29141   0.86247   0.00000  Uiso   1.00
N1114  N     0.73374   0.04453   0.67997   0.00000  Uiso   1.00
O1115  O     0.72757   0.04474   0.63985   0.00000  Uiso   1.00
O1116  O     0.77267   0.06062   0.68547   0.00000  Uiso   1.00
N1117  N     0.77587   0.09883   0.78694   0.00000  Uiso   1.00
H1118  H     0.79233   0.07210   0.77208   0.00000  Uiso   1.00
C1119  C     0.75901   0.09401   0.83545   0.00000  Uiso   1.00
H1120  H     0.78972   0.08448   0.84887   0.00000  Uiso   1.00
H1121  H     0.73125   0.06944   0.84469   0.00000  Uiso   1.00
H1122  H     0.74204   0.12322   0.85087   0.00000  Uiso   1.00
N1123  N     0.89303   0.23010   0.70299   0.00000  Uiso   1.00
H1124  H     0.92833   0.22394   0.68504   0.00000  Uiso   1.00
C1125  C     0.87831   0.27300   0.71113   0.00000  Uiso   1.00
H1126  H     0.90736   0.28991   0.71991   0.00000  Uiso   1.00
H1127  H     0.84436   0.27606   0.73929   0.00000  Uiso   1.00
H1128  H     0.87257   0.28752   0.67996   0.00000  Uiso   1.00
O1129  O     0.03958   0.43989   0.75000   0.00000  Uiso   1.00
O1130  O     0.29375   0.56011   0.75000   0.00000  Uiso   1.00
O1131  O     0.29372   0.43988   0.75000   0.00000  Uiso   1.00
O1132  O     0.03961   0.56012   0.75000   0.00000  Uiso   1.00
C1133  C     0.00040   0.42086   0.75038   0.00000  Uiso   1.00
C1134  C     0.33268   0.57913   0.75043   0.00000  Uiso   1.00
O1135  O     0.01852   0.50001   0.81492   0.00000  Uiso   1.00
O1136  O     0.31481   0.49999   0.68508   0.00000  Uiso   1.00
O1137  O     0.27267   0.50000   0.81492   0.00000  Uiso   1.00
O1138  O     0.06067   0.50000   0.68508   0.00000  Uiso   1.00
C1139  C     0.30572   0.50167   0.83601   0.00000  Uiso   1.00
C1140  C     0.02759   0.49961   0.66387   0.00000  Uiso   1.00
Cu1141 Cu    0.04689   0.50001   0.75000   0.00000  Uiso   1.00
Cu1142 Cu    0.28645   0.49999   0.75000   0.00000  Uiso   1.00
C1143  C     0.28949   0.51194   0.88387   0.00000  Uiso   1.00
C1144  C     0.04270   0.49781   0.61449   0.00000  Uiso   1.00
C1145  C     0.29432   0.55619   0.94385   0.00000  Uiso   1.00
C1146  C     0.02869   0.47425   0.54616   0.00000  Uiso   1.00
C1147  C     0.31543   0.53958   0.90155   0.00000  Uiso   1.00
C1148  C     0.01267   0.47948   0.59245   0.00000  Uiso   1.00
C1149  C     0.24305   0.50046   0.90919   0.00000  Uiso   1.00
C1150  C     0.08798   0.51285   0.58943   0.00000  Uiso   1.00
C1151  C     0.21855   0.52099   0.94889   0.00000  Uiso   1.00
C1152  C     0.10332   0.51118   0.54188   0.00000  Uiso   1.00
C1153  C     0.24548   0.54788   0.96757   0.00000  Uiso   1.00
C1154  C     0.07418   0.48925   0.52045   0.00000  Uiso   1.00
C1155  C     0.16844   0.51439   0.97086   0.00000  Uiso   1.00
C1156  C     0.14879   0.52743   0.51580   0.00000  Uiso   1.00
C1157  C     0.17427   0.55771   0.53221   0.00000  Uiso   1.00
C1158  C     0.13678   0.49679   0.94872   0.00000  Uiso   1.00
C1159  C     0.22284   0.56690   0.50868   0.00000  Uiso   1.00
C1160  C     0.09100   0.48238   0.97392   0.00000  Uiso   1.00
H1161  H     0.11171   0.52418   0.60775   0.00000  Uiso   1.00
H1162  H     0.22643   0.47566   0.89668   0.00000  Uiso   1.00
H1163  H     0.31101   0.46732   0.61134   0.00000  Uiso   1.00
H1164  H     0.01811   0.54914   0.88223   0.00000  Uiso   1.00
H1165  H     0.31594   0.57672   0.95692   0.00000  Uiso   1.00
H1166  H     0.00526   0.45781   0.53101   0.00000  Uiso   1.00
C1167  C     0.30009   0.35457   0.78607   0.00000  Uiso   1.00
C1168  C     0.03296   0.64548   0.71539   0.00000  Uiso   1.00
C1169  C     0.29863   0.64475   0.78505   0.00000  Uiso   1.00
C1170  C     0.03450   0.35522   0.71650   0.00000  Uiso   1.00
C1171  C     0.33172   0.62383   0.74972   0.00000  Uiso   1.00
C1172  C     0.00128   0.37617   0.75160   0.00000  Uiso   1.00
C1173  C     0.18621   0.46850   0.77056   0.00000  Uiso   1.00
C1174  C     0.14699   0.53138   0.72936   0.00000  Uiso   1.00
H1175  H     0.20069   0.44309   0.78670   0.00000  Uiso   1.00
H1176  H     0.13273   0.55581   0.71175   0.00000  Uiso   1.00
C1177  C     0.13689   0.46800   0.77016   0.00000  Uiso   1.00
C1178  C     0.19659   0.53157   0.72879   0.00000  Uiso   1.00
N1179  N     0.11736   0.50001   0.74999   0.00000  Uiso   1.00
N1180  N     0.21597   0.49999   0.75001   0.00000  Uiso   1.00
N1181  N     0.24833   0.59694   0.52598   0.00000  Uiso   1.00
O1182  O     0.25913   0.63259   0.50504   0.00000  Uiso   1.00
O1183  O     0.26086   0.58860   0.56263   0.00000  Uiso   1.00
N1184  N     0.06307   0.45854   0.95231   0.00000  Uiso   1.00
O1185  O     0.02177   0.47269   0.94823   0.00000  Uiso   1.00
O1186  O     0.07659   0.42077   0.94104   0.00000  Uiso   1.00
N1187  N     0.14854   0.58432   0.56723   0.00000  Uiso   1.00
H1188  H     0.16827   0.59454   0.58775   0.00000  Uiso   1.00
C1189  C     0.12150   0.61729   0.55199   0.00000  Uiso   1.00
H1190  H     0.10191   0.63634   0.58091   0.00000  Uiso   1.00
H1191  H     0.09434   0.60427   0.53704   0.00000  Uiso   1.00
H1192  H     0.14657   0.63766   0.52649   0.00000  Uiso   1.00
N1193  N     0.14799   0.49886   0.90068   0.00000  Uiso   1.00
H1194  H     0.13479   0.47522   0.88647   0.00000  Uiso   1.00
C1195  C     0.14035   0.53918   0.88186   0.00000  Uiso   1.00
H1196  H     0.15210   0.53828   0.84441   0.00000  Uiso   1.00
H1197  H     0.16203   0.56286   0.89237   0.00000  Uiso   1.00
H1198  H     0.10125   0.54804   0.89325   0.00000  Uiso   1.00
N1199  N     0.26688   0.37633   0.82229   0.00000  Uiso   1.00
O1200  O     0.22080   0.36795   0.83432   0.00000  Uiso   1.00
O1201  O     0.28289   0.40344   0.84453   0.00000  Uiso   1.00
N1202  N     0.06620   0.62382   0.67918   0.00000  Uiso   1.00
O1203  O     0.11230   0.63206   0.66746   0.00000  Uiso   1.00
O1204  O     0.05032   0.59644   0.65715   0.00000  Uiso   1.00
N1205  N     0.26623   0.62206   0.82172   0.00000  Uiso   1.00
O1206  O     0.22898   0.60362   0.81557   0.00000  Uiso   1.00
O1207  O     0.27003   0.62474   0.86247   0.00000  Uiso   1.00
N1208  N     0.06707   0.37787   0.67997   0.00000  Uiso   1.00
O1209  O     0.06091   0.37807   0.63985   0.00000  Uiso   1.00
O1210  O     0.10600   0.39395   0.68547   0.00000  Uiso   1.00
N1211  N     0.10920   0.43216   0.78694   0.00000  Uiso   1.00
H1212  H     0.12566   0.40544   0.77208   0.00000  Uiso   1.00
C1213  C     0.09234   0.42735   0.83545   0.00000  Uiso   1.00
H1214  H     0.12306   0.41781   0.84887   0.00000  Uiso   1.00
H1215  H     0.06458   0.40277   0.84469   0.00000  Uiso   1.00
H1216  H     0.07537   0.45656   0.85087   0.00000  Uiso   1.00
N1217  N     0.22636   0.56343   0.70299   0.00000  Uiso   1.00
H1218  H     0.26166   0.55728   0.68504   0.00000  Uiso   1.00
C1219  C     0.21164   0.60633   0.71113   0.00000  Uiso   1.00
H1220  H     0.24070   0.62325   0.71991   0.00000  Uiso   1.00
H1221  H     0.17769   0.60939   0.73929   0.00000  Uiso   1.00
H1222  H     0.20590   0.62085   0.67996   0.00000  Uiso   1.00
O1223  O     0.37291   0.43989   0.75000   0.00000  Uiso   1.00
O1224  O     0.62709   0.56011   0.75000   0.00000  Uiso   1.00
O1225  O     0.62706   0.43988   0.75000   0.00000  Uiso   1.00
O1226  O     0.37294   0.56012   0.75000   0.00000  Uiso   1.00
C1227  C     0.33373   0.42086   0.75038   0.00000  Uiso   1.00
C1228  C     0.66602   0.57913   0.75043   0.00000  Uiso   1.00
O1229  O     0.35186   0.50001   0.81492   0.00000  Uiso   1.00
O1230  O     0.64814   0.49999   0.68508   0.00000  Uiso   1.00
O1231  O     0.60600   0.50000   0.81492   0.00000  Uiso   1.00
O1232  O     0.39400   0.50000   0.68508   0.00000  Uiso   1.00
C1233  C     0.63906   0.50167   0.83601   0.00000  Uiso   1.00
C1234  C     0.36092   0.49961   0.66387   0.00000  Uiso   1.00
Cu1235 Cu    0.38022   0.50001   0.75000   0.00000  Uiso   1.00
Cu1236 Cu    0.61978   0.49999   0.75000   0.00000  Uiso   1.00
C1237  C     0.62283   0.51194   0.88387   0.00000  Uiso   1.00
C1238  C     0.37603   0.49781   0.61449   0.00000  Uiso   1.00
C1239  C     0.62765   0.55619   0.94385   0.00000  Uiso   1.00
C1240  C     0.36202   0.47425   0.54616   0.00000  Uiso   1.00
C1241  C     0.64877   0.53958   0.90155   0.00000  Uiso   1.00
C1242  C     0.34601   0.47948   0.59245   0.00000  Uiso   1.00
C1243  C     0.57639   0.50046   0.90919   0.00000  Uiso   1.00
C1244  C     0.42132   0.51285   0.58943   0.00000  Uiso   1.00
C1245  C     0.55188   0.52099   0.94889   0.00000  Uiso   1.00
C1246  C     0.43665   0.51118   0.54188   0.00000  Uiso   1.00
C1247  C     0.57881   0.54788   0.96757   0.00000  Uiso   1.00
C1248  C     0.40752   0.48925   0.52045   0.00000  Uiso   1.00
C1249  C     0.50177   0.51439   0.97086   0.00000  Uiso   1.00
C1250  C     0.48212   0.52743   0.51580   0.00000  Uiso   1.00
C1251  C     0.50761   0.55771   0.53221   0.00000  Uiso   1.00
C1252  C     0.47011   0.49679   0.94872   0.00000  Uiso   1.00
C1253  C     0.55618   0.56690   0.50868   0.00000  Uiso   1.00
C1254  C     0.42434   0.48238   0.97392   0.00000  Uiso   1.00
H1255  H     0.44504   0.52418   0.60775   0.00000  Uiso   1.00
H1256  H     0.55976   0.47566   0.89668   0.00000  Uiso   1.00
H1257  H     0.64435   0.46732   0.61134   0.00000  Uiso   1.00
H1258  H     0.35145   0.54914   0.88223   0.00000  Uiso   1.00
H1259  H     0.64928   0.57672   0.95692   0.00000  Uiso   1.00
H1260  H     0.33859   0.45781   0.53101   0.00000  Uiso   1.00
C1261  C     0.63343   0.35457   0.78607   0.00000  Uiso   1.00
C1262  C     0.36629   0.64548   0.71539   0.00000  Uiso   1.00
C1263  C     0.63197   0.64475   0.78505   0.00000  Uiso   1.00
C1264  C     0.36783   0.35522   0.71650   0.00000  Uiso   1.00
C1265  C     0.66505   0.62383   0.74972   0.00000  Uiso   1.00
C1266  C     0.33461   0.37617   0.75160   0.00000  Uiso   1.00
C1267  C     0.51955   0.46850   0.77056   0.00000  Uiso   1.00
C1268  C     0.48033   0.53138   0.72936   0.00000  Uiso   1.00
H1269  H     0.53402   0.44309   0.78670   0.00000  Uiso   1.00
H1270  H     0.46607   0.55581   0.71175   0.00000  Uiso   1.00
C1271  C     0.47023   0.46800   0.77016   0.00000  Uiso   1.00
C1272  C     0.52992   0.53157   0.72879   0.00000  Uiso   1.00
N1273  N     0.45069   0.50001   0.74999   0.00000  Uiso   1.00
N1274  N     0.54931   0.49999   0.75001   0.00000  Uiso   1.00
N1275  N     0.58167   0.59694   0.52598   0.00000  Uiso   1.00
O1276  O     0.59247   0.63259   0.50504   0.00000  Uiso   1.00
O1277  O     0.59420   0.58860   0.56263   0.00000  Uiso   1.00
N1278  N     0.39640   0.45854   0.95231   0.00000  Uiso   1.00
O1279  O     0.35511   0.47269   0.94823   0.00000  Uiso   1.00
O1280  O     0.40992   0.42077   0.94104   0.00000  Uiso   1.00
N1281  N     0.48188   0.58432   0.56723   0.00000  Uiso   1.00
H1282  H     0.50160   0.59454   0.58775   0.00000  Uiso   1.00
C1283  C     0.45484   0.61729   0.55199   0.00000  Uiso   1.00
H1284  H     0.43524   0.63634   0.58091   0.00000  Uiso   1.00
H1285  H     0.42767   0.60427   0.53704   0.00000  Uiso   1.00
H1286  H     0.47991   0.63766   0.52649   0.00000  Uiso   1.00
N1287  N     0.48133   0.49886   0.90068   0.00000  Uiso   1.00
H1288  H     0.46812   0.47522   0.88647   0.00000  Uiso   1.00
C1289  C     0.47369   0.53918   0.88186   0.00000  Uiso   1.00
H1290  H     0.48544   0.53828   0.84441   0.00000  Uiso   1.00
H1291  H     0.49536   0.56286   0.89237   0.00000  Uiso   1.00
H1292  H     0.43458   0.54804   0.89325   0.00000  Uiso   1.00
N1293  N     0.60022   0.37633   0.82229   0.00000  Uiso   1.00
O1294  O     0.55414   0.36795   0.83432   0.00000  Uiso   1.00
O1295  O     0.61622   0.40344   0.84453   0.00000  Uiso   1.00
N1296  N     0.39953   0.62382   0.67918   0.00000  Uiso   1.00
O1297  O     0.44563   0.63206   0.66746   0.00000  Uiso   1.00
O1298  O     0.38365   0.59644   0.65715   0.00000  Uiso   1.00
N1299  N     0.59957   0.62206   0.82172   0.00000  Uiso   1.00
O1300  O     0.56231   0.60362   0.81557   0.00000  Uiso   1.00
O1301  O     0.60336   0.62474   0.86247   0.00000  Uiso   1.00
N1302  N     0.40040   0.37787   0.67997   0.00000  Uiso   1.00
O1303  O     0.39424   0.37807   0.63985   0.00000  Uiso   1.00
O1304  O     0.43933   0.39395   0.68547   0.00000  Uiso   1.00
N1305  N     0.44254   0.43216   0.78694   0.00000  Uiso   1.00
H1306  H     0.45900   0.40544   0.77208   0.00000  Uiso   1.00
C1307  C     0.42568   0.42735   0.83545   0.00000  Uiso   1.00
H1308  H     0.45639   0.41781   0.84887   0.00000  Uiso   1.00
H1309  H     0.39792   0.40277   0.84469   0.00000  Uiso   1.00
H1310  H     0.40870   0.45656   0.85087   0.00000  Uiso   1.00
N1311  N     0.55970   0.56343   0.70299   0.00000  Uiso   1.00
H1312  H     0.59499   0.55728   0.68504   0.00000  Uiso   1.00
C1313  C     0.54497   0.60633   0.71113   0.00000  Uiso   1.00
H1314  H     0.57403   0.62325   0.71991   0.00000  Uiso   1.00
H1315  H     0.51102   0.60939   0.73929   0.00000  Uiso   1.00
H1316  H     0.53923   0.62085   0.67996   0.00000  Uiso   1.00
O1317  O     0.70625   0.43989   0.75000   0.00000  Uiso   1.00
O1318  O     0.96042   0.56011   0.75000   0.00000  Uiso   1.00
O1319  O     0.96039   0.43988   0.75000   0.00000  Uiso   1.00
O1320  O     0.70628   0.56012   0.75000   0.00000  Uiso   1.00
C1321  C     0.66707   0.42086   0.75038   0.00000  Uiso   1.00
C1322  C     0.99935   0.57913   0.75043   0.00000  Uiso   1.00
O1323  O     0.68519   0.50001   0.81492   0.00000  Uiso   1.00
O1324  O     0.98148   0.49999   0.68508   0.00000  Uiso   1.00
O1325  O     0.93933   0.50000   0.81492   0.00000  Uiso   1.00
O1326  O     0.72733   0.50000   0.68508   0.00000  Uiso   1.00
C1327  C     0.97239   0.50167   0.83601   0.00000  Uiso   1.00
C1328  C     0.69426   0.49961   0.66387   0.00000  Uiso   1.00
Cu1329 Cu    0.71355   0.50001   0.75000   0.00000  Uiso   1.00
Cu1330 Cu    0.95311   0.49999   0.75000   0.00000  Uiso   1.00
C1331  C     0.95616   0.51194   0.88387   0.00000  Uiso   1.00
C1332  C     0.70937   0.49781   0.61449   0.00000  Uiso   1.00
C1333  C     0.96098   0.55619   0.94385   0.00000  Uiso   1.00
C1334  C     0.69535   0.47425   0.54616   0.00000  Uiso   1.00
C1335  C     0.98210   0.53958   0.90155   0.00000  Uiso   1.00
C1336  C     0.67934   0.47948   0.59245   0.00000  Uiso   1.00
C1337  C     0.90972   0.50046   0.90919   0.00000  Uiso   1.00
C1338  C     0.75465   0.51285   0.58943   0.00000  Uiso   1.00
C1339  C     0.88522   0.52099   0.94889   0.00000  Uiso   1.00
C1340  C     0.76998   0.51118   0.54188   0.00000  Uiso   1.00
C1341  C     0.91215   0.54788   0.96757   0.00000  Uiso   1.00
C1342  C     0.74085   0.48925   0.52045   0.00000  Uiso   1.00
C1343  C     0.83511   0.51439   0.97086   0.00000  Uiso   1.00
C1344  C     0.81546   0.52743   0.51580   0.00000  Uiso   1.00
C1345  C     0.84094   0.55771   0.53221   0.00000  Uiso   1.00
C1346  C     0.80344   0.49679   0.94872   0.00000  Uiso   1.00
C1347  C     0.88951   0.56690   0.50868   0.00000  Uiso   1.00
C1348  C     0.75767   0.48238   0.97392   0.00000  Uiso   1.00
H1349  H     0.77837   0.52418   0.60775   0.00000  Uiso   1.00
H1350  H     0.89309   0.47566   0.89668   0.00000  Uiso   1.00
H1351  H     0.97768   0.46732   0.61134   0.00000  Uiso   1.00
H1352  H     0.68478   0.54914   0.88223   0.00000  Uiso   1.00
H1353  H     0.98261   0.57672   0.95692   0.00000  Uiso   1.00
H1354  H     0.67193   0.45781   0.53101   0.00000  Uiso   1.00
C1355  C     0.96676   0.35457   0.78607   0.00000  Uiso   1.00
C1356  C     0.69963   0.64548   0.71539   0.00000  Uiso   1.00
C1357  C     0.96530   0.64475   0.78505   0.00000  Uiso   1.00
C1358  C     0.70117   0.35522   0.71650   0.00000  Uiso   1.00
C1359  C     0.99838   0.62383   0.74972   0.00000  Uiso   1.00
C1360  C     0.66795   0.37617   0.75160   0.00000  Uiso   1.00
C1361  C     0.85288   0.46850   0.77056   0.00000  Uiso   1.00
C1362  C     0.81366   0.53138   0.72936   0.00000  Uiso   1.00
H1363  H     0.86735   0.44309   0.78670   0.00000  Uiso   1.00
H1364  H     0.79940   0.55581   0.71175   0.00000  Uiso   1.00
C1365  C     0.80356   0.46800   0.77016   0.00000  Uiso   1.00
C1366  C     0.86325   0.53157   0.72879   0.00000  Uiso   1.00
N1367  N     0.78403   0.50001   0.74999   0.00000  Uiso   1.00
N1368  N     0.88264   0.49999   0.75001   0.00000  Uiso   1.00
N1369  N     0.91500   0.59694   0.52598   0.00000  Uiso   1.00
O1370  O     0.92580   0.63259   0.50504   0.00000  Uiso   1.00
O1371  O     0.92753   0.58860   0.56263   0.00000  Uiso   1.00
N1372  N     0.72974   0.45854   0.95231   0.00000  Uiso   1.00
O1373  O     0.68844   0.47269   0.94823   0.00000  Uiso   1.00
O1374  O     0.74326   0.42077   0.94104   0.00000  Uiso   1.00
N1375  N     0.81521   0.58432   0.56723   0.00000  Uiso   1.00
H1376  H     0.83494   0.59454   0.58775   0.00000  Uiso   1.00
C1377  C     0.78817   0.61729   0.55199   0.00000  Uiso   1.00
H1378  H     0.76857   0.63634   0.58091   0.00000  Uiso   1.00
H1379  H     0.76100   0.60427   0.53704   0.00000  Uiso   1.00
H1380  H     0.81324   0.63766   0.52649   0.00000  Uiso   1.00
N1381  N     0.81466   0.49886   0.90068   0.00000  Uiso   1.00
H1382  H     0.80146   0.47522   0.88647   0.00000  Uiso   1.00
C1383  C     0.80702   0.53918   0.88186   0.00000  Uiso   1.00
H1384  H     0.81877   0.53828   0.84441   0.00000  Uiso   1.00
H1385  H     0.82869   0.56286   0.89237   0.00000  Uiso   1.00
H1386  H     0.76792   0.54804   0.89325   0.00000  Uiso   1.00
N1387  N     0.93355   0.37633   0.82229   0.00000  Uiso   1.00
O1388  O     0.88747   0.36795   0.83432   0.00000  Uiso   1.00
O1389  O     0.94956   0.40344   0.84453   0.00000  Uiso   1.00
N1390  N     0.73286   0.62382   0.67918   0.00000  Uiso   1.00
O1391  O     0.77896   0.63206   0.66746   0.00000  Uiso   1.00
O1392  O     0.71699   0.59644   0.65715   0.00000  Uiso   1.00
N1393  N     0.93290   0.62206   0.82172   0.00000  Uiso   1.00
O1394  O     0.89565   0.60362   0.81557   0.00000  Uiso   1.00
O1395  O     0.93670   0.62474   0.86247   0.00000  Uiso   1.00
N1396  N     0.73374   0.37787   0.67997   0.00000  Uiso   1.00
O1397  O     0.72757   0.37807   0.63985   0.00000  Uiso   1.00
O1398  O     0.77267   0.39395   0.68547   0.00000  Uiso   1.00
N1399  N     0.77587   0.43216   0.78694   0.00000  Uiso   1.00
H1400  H     0.79233   0.40544   0.77208   0.00000  Uiso   1.00
C1401  C     0.75901   0.42735   0.83545   0.00000  Uiso   1.00
H1402  H     0.78972   0.41781   0.84887   0.00000  Uiso   1.00
H1403  H     0.73125   0.40277   0.84469   0.00000  Uiso   1.00
H1404  H     0.74204   0.45656   0.85087   0.00000  Uiso   1.00
N1405  N     0.89303   0.56343   0.70299   0.00000  Uiso   1.00
H1406  H     0.92833   0.55728   0.68504   0.00000  Uiso   1.00
C1407  C     0.87831   0.60633   0.71113   0.00000  Uiso   1.00
H1408  H     0.90736   0.62325   0.71991   0.00000  Uiso   1.00
H1409  H     0.84436   0.60939   0.73929   0.00000  Uiso   1.00
H1410  H     0.87257   0.62085   0.67996   0.00000  Uiso   1.00
O1411  O     0.03958   0.77322   0.75000   0.00000  Uiso   1.00
O1412  O     0.29375   0.89345   0.75000   0.00000  Uiso   1.00
O1413  O     0.29372   0.77321   0.75000   0.00000  Uiso   1.00
O1414  O     0.03961   0.89346   0.75000   0.00000  Uiso   1.00
C1415  C     0.00040   0.75419   0.75038   0.00000  Uiso   1.00
C1416  C     0.33268   0.91247   0.75043   0.00000  Uiso   1.00
O1417  O     0.01852   0.83334   0.81492   0.00000  Uiso   1.00
O1418  O     0.31481   0.83332   0.68508   0.00000  Uiso   1.00
O1419  O     0.27267   0.83333   0.81492   0.00000  Uiso   1.00
O1420  O     0.06067   0.83333   0.68508   0.00000  Uiso   1.00
C1421  C     0.30572   0.83501   0.83601   0.00000  Uiso   1.00
C1422  C     0.02759   0.83294   0.66387   0.00000  Uiso   1.00
Cu1423 Cu    0.04689   0.83334   0.75000   0.00000  Uiso   1.00
Cu1424 Cu    0.28645   0.83333   0.75000   0.00000  Uiso   1.00
C1425  C     0.28949   0.84527   0.88387   0.00000  Uiso   1.00
C1426  C     0.04270   0.83115   0.61449   0.00000  Uiso   1.00
C1427  C     0.29432   0.88953   0.94385   0.00000  Uiso   1.00
C1428  C     0.02869   0.80758   0.54616   0.00000  Uiso   1.00
C1429  C     0.31543   0.87291   0.90155   0.00000  Uiso   1.00
C1430  C     0.01267   0.81282   0.59245   0.00000  Uiso   1.00
C1431  C     0.24305   0.83380   0.90919   0.00000  Uiso   1.00
C1432  C     0.08798   0.84618   0.58943   0.00000  Uiso   1.00
C1433  C     0.21855   0.85433   0.94889   0.00000  Uiso   1.00
C1434  C     0.10332   0.84452   0.54188   0.00000  Uiso   1.00
C1435  C     0.24548   0.88122   0.96757   0.00000  Uiso   1.00
C1436  C     0.07418   0.82259   0.52045   0.00000  Uiso   1.00
C1437  C     0.16844   0.84772   0.97086   0.00000  Uiso   1.00
C1438  C     0.14879   0.86076   0.51580   0.00000  Uiso   1.00
C1439  C     0.17427   0.89104   0.53221   0.00000  Uiso   1.00
C1440  C     0.13678   0.83012   0.94872   0.00000  Uiso   1.00
C1441  C     0.22284   0.90023   0.50868   0.00000  Uiso   1.00
C1442  C     0.09100   0.81572   0.97392   0.00000  Uiso   1.00
H1443  H     0.11171   0.85752   0.60775   0.00000  Uiso   1.00
H1444  H     0.22643   0.80900   0.89668   0.00000  Uiso   1.00
H1445  H     0.31101   0.80065   0.61134   0.00000  Uiso   1.00
H1446  H     0.01811   0.88247   0.88223   0.00000  Uiso   1.00
H1447  H     0.31594   0.91005   0.95692   0.00000  Uiso   1.00
H1448  H     0.00526   0.79114   0.53101   0.00000  Uiso   1.00
C1449  C     0.30009   0.68791   0.78607   0.00000  Uiso   1.00
C1450  C     0.03296   0.97881   0.71539   0.00000  Uiso   1.00
C1451  C     0.29863   0.97808   0.78505   0.00000  Uiso   1.00
C1452  C     0.03450   0.68855   0.71650   0.00000  Uiso   1.00
C1453  C     0.33172   0.95717   0.74972   0.00000  Uiso   1.00
C1454  C     0.00128   0.70950   0.75160   0.00000  Uiso   1.00
C1455  C     0.18621   0.80184   0.77056   0.00000  Uiso   1.00
C1456  C     0.14699   0.86471   0.72936   0.00000  Uiso   1.00
H1457  H     0.20069   0.77642   0.78670   0.00000  Uiso   1.00
H1458  H     0.13273   0.88914   0.71175   0.00000  Uiso   1.00
C1459  C     0.13689   0.80133   0.77016   0.00000  Uiso   1.00
C1460  C     0.19659   0.86491   0.72879   0.00000  Uiso   1.00
N1461  N     0.11736   0.83334   0.74999   0.00000  Uiso   1.00
N1462  N     0.21597   0.83332   0.75001   0.00000  Uiso   1.00
N1463  N     0.24833   0.93027   0.52598   0.00000  Uiso   1.00
O1464  O     0.25913   0.96592   0.50504   0.00000  Uiso   1.00
O1465  O     0.26086   0.92193   0.56263   0.00000  Uiso   1.00
N1466  N     0.06307   0.79187   0.95231   0.00000  Uiso   1.00
O1467  O     0.02177   0.80602   0.94823   0.00000  Uiso   1.00
O1468  O     0.07659   0.75410   0.94104   0.00000  Uiso   1.00
N1469  N     0.14854   0.91765   0.56723   0.00000  Uiso   1.00
H1470  H     0.16827   0.92787   0.58775   0.00000  Uiso   1.00
C1471  C     0.12150   0.95063   0.55199   0.00000  Uiso   1.00
H1472  H     0.10191   0.96967   0.58091   0.00000  Uiso   1.00
H1473  H     0.09434   0.93761   0.53704   0.00000  Uiso   1.00
H1474  H     0.14657   0.97099   0.52649   0.00000  Uiso   1.00
N1475  N     0.14799   0.83219   0.90068   0.00000  Uiso   1.00
H1476  H     0.13479   0.80856   0.88647   0.00000  Uiso   1.00
C1477  C     0.14035   0.87252   0.88186   0.00000  Uiso   1.00
H1478  H     0.15210   0.87161   0.84441   0.00000  Uiso   1.00
H1479  H     0.16203   0.89619   0.89237   0.00000  Uiso   1.00
H1480  H     0.10125   0.88137   0.89325   0.00000  Uiso   1.00
N1481  N     0.26688   0.70967   0.82229   0.00000  Uiso   1.00
O1482  O     0.22080   0.70129   0.83432   0.00000  Uiso   1.00
O1483  O     0.28289   0.73677   0.84453   0.00000  Uiso   1.00
N1484  N     0.06620   0.95716   0.67918   0.00000  Uiso   1.00
O1485  O     0.11230   0.96540   0.66746   0.00000  Uiso   1.00
O1486  O     0.05032   0.92978   0.65715   0.00000  Uiso   1.00
N1487  N     0.26623   0.95540   0.82172   0.00000  Uiso   1.00
O1488  O     0.22898   0.93695   0.81557   0.00000  Uiso   1.00
O1489  O     0.27003   0.95807   0.86247   0.00000  Uiso   1.00
N1490  N     0.06707   0.71120   0.67997   0.00000  Uiso   1.00
O1491  O     0.06091   0.71140   0.63985   0.00000  Uiso   1.00
O1492  O     0.10600   0.72728   0.68547   0.00000  Uiso   1.00
N1493  N     0.10920   0.76550   0.78694   0.00000  Uiso   1.00
H1494  H     0.12566   0.73877   0.77208   0.00000  Uiso   1.00
C1495  C     0.09234   0.76068   0.83545   0.00000  Uiso   1.00
H1496  H     0.12306   0.75115   0.84887   0.00000  Uiso   1.00
H1497  H     0.06458   0.73611   0.84469   0.00000  Uiso   1.00
H1498  H     0.07537   0.78989   0.85087   0.00000  Uiso   1.00
N1499  N     0.22636   0.89676   0.70299   0.00000  Uiso   1.00
H1500  H     0.26166   0.89061   0.68504   0.00000  Uiso   1.00
C1501  C     0.21164   0.93966   0.71113   0.00000  Uiso   1.00
H1502  H     0.24070   0.95658   0.71991   0.00000  Uiso   1.00
H1503  H     0.17769   0.94272   0.73929   0.00000  Uiso   1.00
H1504  H     0.20590   0.95419   0.67996   0.00000  Uiso   1.00
O1505  O     0.37291   0.77322   0.75000   0.00000  Uiso   1.00
O1506  O     0.62709   0.89345   0.75000   0.00000  Uiso   1.00
O1507  O     0.62706   0.77321   0.75000   0.00000  Uiso   1.00
O1508  O     0.37294   0.89346   0.75000   0.00000  Uiso   1.00
C1509  C     0.33373   0.75419   0.75038   0.00000  Uiso   1.00
C1510  C     0.66602   0.91247   0.75043   0.00000  Uiso   1.00
O1511  O     0.35186   0.83334   0.81492   0.00000  Uiso   1.00
O1512  O     0.64814   0.83332   0.68508   0.00000  Uiso   1.00
O1513  O     0.60600   0.83333   0.81492   0.00000  Uiso   1.00
O1514  O     0.39400   0.83333   0.68508   0.00000  Uiso   1.00
C1515  C     0.63906   0.83501   0.83601   0.00000  Uiso   1.00
C1516  C     0.36092   0.83294   0.66387   0.00000  Uiso   1.00
Cu1517 Cu    0.38022   0.83334   0.75000   0.00000  Uiso   1.00
Cu1518 Cu    0.61978   0.83333   0.75000   0.00000  Uiso   1.00
C1519  C     0.62283   0.84527   0.88387   0.00000  Uiso   1.00
C1520  C     0.37603   0.83115   0.61449   0.00000  Uiso   1.00
C1521  C     0.62765   0.88953   0.94385   0.00000  Uiso   1.00
C1522  C     0.36202   0.80758   0.54616   0.00000  Uiso   1.00
C1523  C     0.64877   0.87291   0.90155   0.00000  Uiso   1.00
C1524  C     0.34601   0.81282   0.59245   0.00000  Uiso   1.00
C1525  C     0.57639   0.83380   0.90919   0.00000  Uiso   1.00
C1526  C     0.42132   0.84618   0.58943   0.00000  Uiso   1.00
C1527  C     0.55188   0.85433   0.94889   0.00000  Uiso   1.00
C1528  C     0.43665   0.84452   0.54188   0.00000  Uiso   1.00
C1529  C     0.57881   0.88122   0.96757   0.00000  Uiso   1.00
C1530  C     0.40752   0.82259   0.52045   0.00000  Uiso   1.00
C1531  C     0.50177   0.84772   0.97086   0.00000  Uiso   1.00
C1532  C     0.48212   0.86076   0.51580   0.00000  Uiso   1.00
C1533  C     0.50761   0.89104   0.53221   0.00000  Uiso   1.00
C1534  C     0.47011   0.83012   0.94872   0.00000  Uiso   1.00
C1535  C     0.55618   0.90023   0.50868   0.00000  Uiso   1.00
C1536  C     0.42434   0.81572   0.97392   0.00000  Uiso   1.00
H1537  H     0.44504   0.85752   0.60775   0.00000  Uiso   1.00
H1538  H     0.55976   0.80900   0.89668   0.00000  Uiso   1.00
H1539  H     0.64435   0.80065   0.61134   0.00000  Uiso   1.00
H1540  H     0.35145   0.88247   0.88223   0.00000  Uiso   1.00
H1541  H     0.64928   0.91005   0.95692   0.00000  Uiso   1.00
H1542  H     0.33859   0.79114   0.53101   0.00000  Uiso   1.00
C1543  C     0.63343   0.68791   0.78607   0.00000  Uiso   1.00
C1544  C     0.36629   0.97881   0.71539   0.00000  Uiso   1.00
C1545  C     0.63197   0.97808   0.78505   0.00000  Uiso   1.00
C1546  C     0.36783   0.68855   0.71650   0.00000  Uiso   1.00
C1547  C     0.66505   0.95717   0.74972   0.00000  Uiso   1.00
C1548  C     0.33461   0.70950   0.75160   0.00000  Uiso   1.00
C1549  C     0.51955   0.80184   0.77056   0.00000  Uiso   1.00
C1550  C     0.48033   0.86471   0.72936   0.00000  Uiso   1.00
H1551  H     0.53402   0.77642   0.78670   0.00000  Uiso   1.00
H1552  H     0.46607   0.88914   0.71175   0.00000  Uiso   1.00
C1553  C     0.47023   0.80133   0.77016   0.00000  Uiso   1.00
C1554  C     0.52992   0.86491   0.72879   0.00000  Uiso   1.00
N1555  N     0.45069   0.83334   0.74999   0.00000  Uiso   1.00
N1556  N     0.54931   0.83332   0.75001   0.00000  Uiso   1.00
N1557  N     0.58167   0.93027   0.52598   0.00000  Uiso   1.00
O1558  O     0.59247   0.96592   0.50504   0.00000  Uiso   1.00
O1559  O     0.59420   0.92193   0.56263   0.00000  Uiso   1.00
N1560  N     0.39640   0.79187   0.95231   0.00000  Uiso   1.00
O1561  O     0.35511   0.80602   0.94823   0.00000  Uiso   1.00
O1562  O     0.40992   0.75410   0.94104   0.00000  Uiso   1.00
N1563  N     0.48188   0.91765   0.56723   0.00000  Uiso   1.00
H1564  H     0.50160   0.92787   0.58775   0.00000  Uiso   1.00
C1565  C     0.45484   0.95063   0.55199   0.00000  Uiso   1.00
H1566  H     0.43524   0.96967   0.58091   0.00000  Uiso   1.00
H1567  H     0.42767   0.93761   0.53704   0.00000  Uiso   1.00
H1568  H     0.47991   0.97099   0.52649   0.00000  Uiso   1.00
N1569  N     0.48133   0.83219   0.90068   0.00000  Uiso   1.00
H1570  H     0.46812   0.80856   0.88647   0.00000  Uiso   1.00
C1571  C     0.47369   0.87252   0.88186   0.00000  Uiso   1.00
H1572  H     0.48544   0.87161   0.84441   0.00000  Uiso   1.00
H1573  H     0.49536   0.89619   0.89237   0.00000  Uiso   1.00
H1574  H     0.43458   0.88137   0.89325   0.00000  Uiso   1.00
N1575  N     0.60022   0.70967   0.82229   0.00000  Uiso   1.00
O1576  O     0.55414   0.70129   0.83432   0.00000  Uiso   1.00
O1577  O     0.61622   0.73677   0.84453   0.00000  Uiso   1.00
N1578  N     0.39953   0.95716   0.67918   0.00000  Uiso   1.00
O1579  O     0.44563   0.96540   0.66746   0.00000  Uiso   1.00
O1580  O     0.38365   0.92978   0.65715   0.00000  Uiso   1.00
N1581  N     0.59957   0.95540   0.82172   0.00000  Uiso   1.00
O1582  O     0.56231   0.93695   0.81557   0.00000  Uiso   1.00
O1583  O     0.60336   0.95807   0.86247   0.00000  Uiso   1.00
N1584  N     0.40040   0.71120   0.67997   0.00000  Uiso   1.00
O1585  O     0.39424   0.71140   0.63985   0.00000  Uiso   1.00
O1586  O     0.43933   0.72728   0.68547   0.00000  Uiso   1.00
N1587  N     0.44254   0.76550   0.78694   0.00000  Uiso   1.00
H1588  H     0.45900   0.73877   0.77208   0.00000  Uiso   1.00
C1589  C     0.42568   0.76068   0.83545   0.00000  Uiso   1.00
H1590  H     0.45639   0.75115   0.84887   0.00000  Uiso   1.00
H1591  H     0.39792   0.73611   0.84469   0.00000  Uiso   1.00
H1592  H     0.40870   0.78989   0.85087   0.00000  Uiso   1.00
N1593  N     0.55970   0.89676   0.70299   0.00000  Uiso   1.00
H1594  H     0.59499   0.89061   0.68504   0.00000  Uiso   1.00
C1595  C     0.54497   0.93966   0.71113   0.00000  Uiso   1.00
H1596  H     0.57403   0.95658   0.71991   0.00000  Uiso   1.00
H1597  H     0.51102   0.94272   0.73929   0.00000  Uiso   1.00
H1598  H     0.53923   0.95419   0.67996   0.00000  Uiso   1.00
O1599  O     0.70625   0.77322   0.75000   0.00000  Uiso   1.00
O1600  O     0.96042   0.89345   0.75000   0.00000  Uiso   1.00
O1601  O     0.96039   0.77321   0.75000   0.00000  Uiso   1.00
O1602  O     0.70628   0.89346   0.75000   0.00000  Uiso   1.00
C1603  C     0.66707   0.75419   0.75038   0.00000  Uiso   1.00
C1604  C     0.99935   0.91247   0.75043   0.00000  Uiso   1.00
O1605  O     0.68519   0.83334   0.81492   0.00000  Uiso   1.00
O1606  O     0.98148   0.83332   0.68508   0.00000  Uiso   1.00
O1607  O     0.93933   0.83333   0.81492   0.00000  Uiso   1.00
O1608  O     0.72733   0.83333   0.68508   0.00000  Uiso   1.00
C1609  C     0.97239   0.83501   0.83601   0.00000  Uiso   1.00
C1610  C     0.69426   0.83294   0.66387   0.00000  Uiso   1.00
Cu1611 Cu    0.71355   0.83334   0.75000   0.00000  Uiso   1.00
Cu1612 Cu    0.95311   0.83333   0.75000   0.00000  Uiso   1.00
C1613  C     0.95616   0.84527   0.88387   0.00000  Uiso   1.00
C1614  C     0.70937   0.83115   0.61449   0.00000  Uiso   1.00
C1615  C     0.96098   0.88953   0.94385   0.00000  Uiso   1.00
C1616  C     0.69535   0.80758   0.54616   0.00000  Uiso   1.00
C1617  C     0.98210   0.87291   0.90155   0.00000  Uiso   1.00
C1618  C     0.67934   0.81282   0.59245   0.00000  Uiso   1.00
C1619  C     0.90972   0.83380   0.90919   0.00000  Uiso   1.00
C1620  C     0.75465   0.84618   0.58943   0.00000  Uiso   1.00
C1621  C     0.88522   0.85433   0.94889   0.00000  Uiso   1.00
C1622  C     0.76998   0.84452   0.54188   0.00000  Uiso   1.00
C1623  C     0.91215   0.88122   0.96757   0.00000  Uiso   1.00
C1624  C     0.74085   0.82259   0.52045   0.00000  Uiso   1.00
C1625  C     0.83511   0.84772   0.97086   0.00000  Uiso   1.00
C1626  C     0.81546   0.86076   0.51580   0.00000  Uiso   1.00
C1627  C     0.84094   0.89104   0.53221   0.00000  Uiso   1.00
C1628  C     0.80344   0.83012   0.94872   0.00000  Uiso   1.00
C1629  C     0.88951   0.90023   0.50868   0.00000  Uiso   1.00
C1630  C     0.75767   0.81572   0.97392   0.00000  Uiso   1.00
H1631  H     0.77837   0.85752   0.60775   0.00000  Uiso   1.00
H1632  H     0.89309   0.80900   0.89668   0.00000  Uiso   1.00
H1633  H     0.97768   0.80065   0.61134   0.00000  Uiso   1.00
H1634  H     0.68478   0.88247   0.88223   0.00000  Uiso   1.00
H1635  H     0.98261   0.91005   0.95692   0.00000  Uiso   1.00
H1636  H     0.67193   0.79114   0.53101   0.00000  Uiso   1.00
C1637  C     0.96676   0.68791   0.78607   0.00000  Uiso   1.00
C1638  C     0.69963   0.97881   0.71539   0.00000  Uiso   1.00
C1639  C     0.96530   0.97808   0.78505   0.00000  Uiso   1.00
C1640  C     0.70117   0.68855   0.71650   0.00000  Uiso   1.00
C1641  C     0.99838   0.95717   0.74972   0.00000  Uiso   1.00
C1642  C     0.66795   0.70950   0.75160   0.00000  Uiso   1.00
C1643  C     0.85288   0.80184   0.77056   0.00000  Uiso   1.00
C1644  C     0.81366   0.86471   0.72936   0.00000  Uiso   1.00
H1645  H     0.86735   0.77642   0.78670   0.00000  Uiso   1.00
H1646  H     0.79940   0.88914   0.71175   0.00000  Uiso   1.00
C1647  C     0.80356   0.80133   0.77016   0.00000  Uiso   1.00
C1648  C     0.86325   0.86491   0.72879   0.00000  Uiso   1.00
N1649  N     0.78403   0.83334   0.74999   0.00000  Uiso   1.00
N1650  N     0.88264   0.83332   0.75001   0.00000  Uiso   1.00
N1651  N     0.91500   0.93027   0.52598   0.00000  Uiso   1.00
O1652  O     0.92580   0.96592   0.50504   0.00000  Uiso   1.00
O1653  O     0.92753   0.92193   0.56263   0.00000  Uiso   1.00
N1654  N     0.72974   0.79187   0.95231   0.00000  Uiso   1.00
O1655  O     0.68844   0.80602   0.94823   0.00000  Uiso   1.00
O1656  O     0.74326   0.75410   0.94104   0.00000  Uiso   1.00
N1657  N     0.81521   0.91765   0.56723   0.00000  Uiso   1.00
H1658  H     0.83494   0.92787   0.58775   0.00000  Uiso   1.00
C1659  C     0.78817   0.95063   0.55199   0.00000  Uiso   1.00
H1660  H     0.76857   0.96967   0.58091   0.00000  Uiso   1.00
H1661  H     0.76100   0.93761   0.53704   0.00000  Uiso   1.00
H1662  H     0.81324   0.97099   0.52649   0.00000  Uiso   1.00
N1663  N     0.81466   0.83219   0.90068   0.00000  Uiso   1.00
H1664  H     0.80146   0.80856   0.88647   0.00000  Uiso   1.00
C1665  C     0.80702   0.87252   0.88186   0.00000  Uiso   1.00
H1666  H     0.81877   0.87161   0.84441   0.00000  Uiso   1.00
H1667  H     0.82869   0.89619   0.89237   0.00000  Uiso   1.00
H1668  H     0.76792   0.88137   0.89325   0.00000  Uiso   1.00
N1669  N     0.93355   0.70967   0.82229   0.00000  Uiso   1.00
O1670  O     0.88747   0.70129   0.83432   0.00000  Uiso   1.00
O1671  O     0.94956   0.73677   0.84453   0.00000  Uiso   1.00
N1672  N     0.73286   0.95716   0.67918   0.00000  Uiso   1.00
O1673  O     0.77896   0.96540   0.66746   0.00000  Uiso   1.00
O1674  O     0.71699   0.92978   0.65715   0.00000  Uiso   1.00
N1675  N     0.93290   0.95540   0.82172   0.00000  Uiso   1.00
O1676  O     0.89565   0.93695   0.81557   0.00000  Uiso   1.00
O1677  O     0.93670   0.95807   0.86247   0.00000  Uiso   1.00
N1678  N     0.73374   0.71120   0.67997   0.00000  Uiso   1.00
O1679  O     0.72757   0.71140   0.63985   0.00000  Uiso   1.00
O1680  O     0.77267   0.72728   0.68547   0.00000  Uiso   1.00
N1681  N     0.77587   0.76550   0.78694   0.00000  Uiso   1.00
H1682  H     0.79233   0.73877   0.77208   0.00000  Uiso   1.00
C1683  C     0.75901   0.76068   0.83545   0.00000  Uiso   1.00
H1684  H     0.78972   0.75115   0.84887   0.00000  Uiso   1.00
H1685  H     0.73125   0.73611   0.84469   0.00000  Uiso   1.00
H1686  H     0.74204   0.78989   0.85087   0.00000  Uiso   1.00
N1687  N     0.89303   0.89676   0.70299   0.00000  Uiso   1.00
H1688  H     0.92833   0.89061   0.68504   0.00000  Uiso   1.00
C1689  C     0.87831   0.93966   0.71113   0.00000  Uiso   1.00
H1690  H     0.90736   0.95658   0.71991   0.00000  Uiso   1.00
H1691  H     0.84436   0.94272   0.73929   0.00000  Uiso   1.00
H1692  H     0.87257   0.95419   0.67996   0.00000  Uiso   1.00
loop_
_geom_bond_atom_site_label_1
_geom_bond_atom_site_label_2
_geom_bond_distance
_geom_bond_site_symmetry_2
_ccdc_geom_bond_type
O1     C5      1.292   .     A
O1     Cu13    1.959   .     S
O2     C6      1.292   .     A
O2     Cu14    1.959   .     S
O3     Cu14    1.949   .     S
O3     C99     1.293   .     S
O4     Cu13    1.949   .     S
O4     C194    1.293   1_455 S
C5     C44     1.443   .     S
C5     O191    1.293   1_455 S
C6     C43     1.443   .     S
C6     O98     1.293   .     S
O7     Cu13    1.938   .     S
O7     C199    1.300   1_455 S
O8     Cu14    1.938   .     S
O8     C106    1.300   .     S
O9     Cu14    1.931   .     S
O9     C11     1.299   .     A
O10    C12     1.300   .     A
O10    Cu13    1.931   .     S
C11    C15     1.466   .     S
C11    O101    1.300   .     S
C12    C16     1.466   .     S
C12    O196    1.300   1_455 S
Cu13   N51     2.025   .     S
Cu13   Cu202   2.694   1_455 S
Cu14   N52     2.025   .     S
Cu14   Cu107   2.694   .     S
C15    C19     1.396   .     A
C15    C21     1.392   .     A
C16    C20     1.395   .     A
C16    C22     1.399   .     A
C17    H37     1.082   .     S
C17    C25     1.413   .     A
C17    C19     1.395   .     A
C18    C26     1.409   .     A
C18    H38     1.081   .     S
C18    C20     1.387   .     A
C19    H130    1.083   .     S
C20    H223    1.083   1_455 S
C21    H34     1.079   .     S
C21    C23     1.408   .     A
C22    C24     1.411   .     A
C22    H33     1.080   .     S
C23    C27     1.423   .     A
C23    C25     1.417   .     A
C24    C26     1.421   .     A
C24    C28     1.426   .     A
C25    C877    1.407   .     S
C26    C878    1.404   1_554 S
C27    C30     1.424   .     A
C27    C874    1.417   .     S
C28    C29     1.425   .     A
C28    C873    1.417   1_554 S
C29    N59     1.426   .     S
C29    C31     1.411   .     A
C30    C32     1.404   .     A
C30    N65     1.426   .     S
C31    N53     1.434   .     S
C31    C871    1.407   1_554 S
C32    N56     1.434   .     S
C32    C872    1.404   .     S
H35    C114    1.083   .     S
H36    C207    1.083   1_455 S
C39    N71     1.439   .     S
C39    C605    1.398   1_545 S
C39    C138    1.409   .     S
C40    N74     1.438   .     S
C40    C324    1.395   .     S
C40    C231    1.408   1_455 S
C41    N77     1.436   .     S
C41    C43     1.407   .     A
C41    C321    1.398   .     S
C42    N80     1.435   .     S
C42    C44     1.405   .     A
C42    C604    1.395   1_545 S
C43    C134    1.408   .     S
C44    C227    1.409   1_455 S
C45    H47     1.081   .     S
C45    N52     1.362   .     A
C45    C49     1.421   .     A
C46    H48     1.082   .     S
C46    N51     1.358   .     A
C46    C50     1.420   .     A
C49    N51     1.379   .     A
C49    N83     1.417   .     S
C50    N52     1.384   .     A
C50    N89     1.422   .     S
N53    O55     1.301   .     A
N53    O54     1.301   .     A
N56    O57     1.299   .     A
N56    O58     1.300   .     A
N59    H60     1.030   .     S
N59    C61     1.448   .     S
C61    H63     1.111   .     S
C61    H64     1.112   .     S
C61    H62     1.109   .     S
N65    C67     1.446   .     S
N65    H66     1.026   .     S
C67    H68     1.111   .     S
C67    H69     1.111   .     S
C67    H70     1.111   .     S
N71    O73     1.301   .     A
N71    O72     1.301   .     A
N74    O76     1.301   .     A
N74    O75     1.301   .     A
N77    O78     1.300   .     A
N77    O79     1.301   .     A
N80    O82     1.301   .     A
N80    O81     1.302   .     A
N83    H84     1.032   .     S
N83    C85     1.442   .     S
C85    H87     1.110   .     S
C85    H86     1.110   .     S
C85    H88     1.110   .     S
N89    C91     1.449   .     S
N89    H90     1.026   .     S
C91    H92     1.109   .     S
C91    H93     1.112   .     S
C91    H94     1.109   .     S
O95    C99     1.292   .     A
O95    Cu107   1.959   .     S
O96    C100    1.292   .     A
O96    Cu108   1.959   .     S
O97    Cu108   1.949   .     S
O97    C193    1.293   .     S
O98    Cu107   1.949   .     S
C99    C138    1.443   .     S
C100   C137    1.443   .     S
C100   O192    1.293   .     S
O101   Cu107   1.938   .     S
O102   Cu108   1.938   .     S
O102   C200    1.300   .     S
O103   Cu108   1.931   .     S
O103   C105    1.299   .     A
O104   C106    1.300   .     A
O104   Cu107   1.931   .     S
C105   C109    1.466   .     S
C105   O195    1.300   .     S
C106   C110    1.466   .     S
Cu107  N145    2.025   .     S
Cu108  N146    2.025   .     S
Cu108  Cu201   2.694   .     S
C109   C113    1.396   .     A
C109   C115    1.392   .     A
C110   C114    1.395   .     A
C110   C116    1.399   .     A
C111   H131    1.082   .     S
C111   C119    1.413   .     A
C111   C113    1.395   .     A
C112   C120    1.409   .     A
C112   H132    1.081   .     S
C112   C114    1.387   .     A
C113   H224    1.083   .     S
C115   H128    1.079   .     S
C115   C117    1.408   .     A
C116   C118    1.411   .     A
C116   H127    1.080   .     S
C117   C121    1.423   .     A
C117   C119    1.417   .     A
C118   C120    1.421   .     A
C118   C122    1.426   .     A
C119   C971    1.407   .     S
C120   C972    1.404   1_554 S
C121   C124    1.424   .     A
C121   C968    1.417   .     S
C122   C123    1.425   .     A
C122   C967    1.417   1_554 S
C123   N153    1.426   .     S
C123   C125    1.411   .     A
C124   C126    1.404   .     A
C124   N159    1.426   .     S
C125   N147    1.434   .     S
C125   C965    1.407   1_554 S
C126   N150    1.434   .     S
C126   C966    1.404   .     S
H129   C208    1.083   .     S
C133   N165    1.439   .     S
C133   C699    1.398   1_545 S
C133   C232    1.409   .     S
C134   N168    1.438   .     S
C134   C418    1.395   .     S
C135   N171    1.436   .     S
C135   C137    1.407   .     A
C135   C415    1.398   .     S
C136   N174    1.435   .     S
C136   C138    1.405   .     A
C136   C698    1.395   1_545 S
C137   C228    1.408   .     S
C139   H141    1.081   .     S
C139   N146    1.362   .     A
C139   C143    1.421   .     A
C140   H142    1.082   .     S
C140   N145    1.358   .     A
C140   C144    1.420   .     A
C143   N145    1.379   .     A
C143   N177    1.417   .     S
C144   N146    1.384   .     A
C144   N183    1.422   .     S
N147   O149    1.301   .     A
N147   O148    1.301   .     A
N150   O151    1.299   .     A
N150   O152    1.300   .     A
N153   H154    1.030   .     S
N153   C155    1.448   .     S
C155   H157    1.111   .     S
C155   H158    1.112   .     S
C155   H156    1.109   .     S
N159   C161    1.446   .     S
N159   H160    1.026   .     S
C161   H162    1.111   .     S
C161   H163    1.111   .     S
C161   H164    1.111   .     S
N165   O167    1.301   .     A
N165   O166    1.301   .     A
N168   O170    1.301   .     A
N168   O169    1.301   .     A
N171   O172    1.300   .     A
N171   O173    1.301   .     A
N174   O176    1.301   .     A
N174   O175    1.302   .     A
N177   H178    1.032   .     S
N177   C179    1.442   .     S
C179   H181    1.110   .     S
C179   H180    1.110   .     S
C179   H182    1.110   .     S
N183   C185    1.449   .     S
N183   H184    1.026   .     S
C185   H186    1.109   .     S
C185   H187    1.112   .     S
C185   H188    1.109   .     S
O189   C193    1.292   .     A
O189   Cu201   1.959   .     S
O190   C194    1.292   .     A
O190   Cu202   1.959   .     S
O191   Cu202   1.949   .     S
O191   C5      1.293   1_655 S
O192   Cu201   1.949   .     S
C193   C232    1.443   .     S
C194   C231    1.443   .     S
C194   O4      1.293   1_655 S
O195   Cu201   1.938   .     S
O196   Cu202   1.938   .     S
O196   C12     1.300   1_655 S
O197   Cu202   1.931   .     S
O197   C199    1.299   .     A
O198   C200    1.300   .     A
O198   Cu201   1.931   .     S
C199   C203    1.466   .     S
C199   O7      1.300   1_655 S
C200   C204    1.466   .     S
Cu201  N239    2.025   .     S
Cu202  N240    2.025   .     S
Cu202  Cu13    2.694   1_655 S
C203   C207    1.396   .     A
C203   C209    1.392   .     A
C204   C208    1.395   .     A
C204   C210    1.399   .     A
C205   H225    1.082   .     S
C205   C213    1.413   .     A
C205   C207    1.395   .     A
C206   C214    1.409   .     A
C206   H226    1.081   .     S
C206   C208    1.387   .     A
C207   H36     1.083   1_655 S
C209   H222    1.079   .     S
C209   C211    1.408   .     A
C210   C212    1.411   .     A
C210   H221    1.080   .     S
C211   C215    1.423   .     A
C211   C213    1.417   .     A
C212   C214    1.421   .     A
C212   C216    1.426   .     A
C213   C1065   1.407   .     S
C214   C1066   1.404   1_554 S
C215   C218    1.424   .     A
C215   C1062   1.417   .     S
C216   C217    1.425   .     A
C216   C1061   1.417   1_554 S
C217   N247    1.426   .     S
C217   C219    1.411   .     A
C218   C220    1.404   .     A
C218   N253    1.426   .     S
C219   N241    1.434   .     S
C219   C1059   1.407   1_554 S
C220   N244    1.434   .     S
C220   C1060   1.404   .     S
H223   C20     1.083   1_655 S
C227   N259    1.439   .     S
C227   C793    1.398   1_545 S
C227   C44     1.409   1_655 S
C228   N262    1.438   .     S
C228   C512    1.395   .     S
C229   N265    1.436   .     S
C229   C231    1.407   .     A
C229   C509    1.398   .     S
C230   N268    1.435   .     S
C230   C232    1.405   .     A
C230   C792    1.395   1_545 S
C231   C40     1.408   1_655 S
C233   H235    1.081   .     S
C233   N240    1.362   .     A
C233   C237    1.421   .     A
C234   H236    1.082   .     S
C234   N239    1.358   .     A
C234   C238    1.420   .     A
C237   N239    1.379   .     A
C237   N271    1.417   .     S
C238   N240    1.384   .     A
C238   N277    1.422   .     S
N241   O243    1.301   .     A
N241   O242    1.301   .     A
N244   O245    1.299   .     A
N244   O246    1.300   .     A
N247   H248    1.030   .     S
N247   C249    1.448   .     S
C249   H251    1.111   .     S
C249   H252    1.112   .     S
C249   H250    1.109   .     S
N253   C255    1.446   .     S
N253   H254    1.026   .     S
C255   H256    1.111   .     S
C255   H257    1.111   .     S
C255   H258    1.111   .     S
N259   O261    1.301   .     A
N259   O260    1.301   .     A
N262   O264    1.301   .     A
N262   O263    1.301   .     A
N265   O266    1.300   .     A
N265   O267    1.301   .     A
N268   O270    1.301   .     A
N268   O269    1.302   .     A
N271   H272    1.032   .     S
N271   C273    1.442   .     S
C273   H275    1.110   .     S
C273   H274    1.110   .     S
C273   H276    1.110   .     S
N277   C279    1.449   .     S
N277   H278    1.026   .     S
C279   H280    1.109   .     S
C279   H281    1.112   .     S
C279   H282    1.109   .     S
O283   C287    1.292   .     A
O283   Cu295   1.959   .     S
O284   C288    1.292   .     A
O284   Cu296   1.959   .     S
O285   Cu296   1.949   .     S
O285   C381    1.293   .     S
O286   Cu295   1.949   .     S
O286   C476    1.293   1_455 S
C287   C326    1.443   .     S
C287   O473    1.293   1_455 S
C288   C325    1.443   .     S
C288   O380    1.293   .     S
O289   Cu295   1.938   .     S
O289   C481    1.300   1_455 S
O290   Cu296   1.938   .     S
O290   C388    1.300   .     S
O291   Cu296   1.931   .     S
O291   C293    1.299   .     A
O292   C294    1.300   .     A
O292   Cu295   1.931   .     S
C293   C297    1.466   .     S
C293   O383    1.300   .     S
C294   C298    1.466   .     S
C294   O478    1.300   1_455 S
Cu295  N333    2.025   .     S
Cu295  Cu484   2.694   1_455 S
Cu296  N334    2.025   .     S
Cu296  Cu389   2.694   .     S
C297   C301    1.396   .     A
C297   C303    1.392   .     A
C298   C302    1.395   .     A
C298   C304    1.399   .     A
C299   H319    1.082   .     S
C299   C307    1.413   .     A
C299   C301    1.395   .     A
C300   C308    1.409   .     A
C300   H320    1.081   .     S
C300   C302    1.387   .     A
C301   H412    1.083   .     S
C302   H505    1.083   1_455 S
C303   H316    1.079   .     S
C303   C305    1.408   .     A
C304   C306    1.411   .     A
C304   H315    1.080   .     S
C305   C309    1.423   .     A
C305   C307    1.417   .     A
C306   C308    1.421   .     A
C306   C310    1.426   .     A
C307   C1159   1.407   .     S
C308   C1160   1.404   1_554 S
C309   C312    1.424   .     A
C309   C1156   1.417   .     S
C310   C311    1.425   .     A
C310   C1155   1.417   1_554 S
C311   N341    1.426   .     S
C311   C313    1.411   .     A
C312   C314    1.404   .     A
C312   N347    1.426   .     S
C313   N335    1.434   .     S
C313   C1153   1.407   1_554 S
C314   N338    1.434   .     S
C314   C1154   1.404   .     S
H317   C396    1.083   .     S
H318   C489    1.083   1_455 S
C321   N353    1.439   .     S
C321   C420    1.409   .     S
C322   N356    1.438   .     S
C322   C606    1.395   .     S
C322   C513    1.408   1_455 S
C323   N359    1.436   .     S
C323   C325    1.407   .     A
C323   C603    1.398   .     S
C324   N362    1.435   .     S
C324   C326    1.405   .     A
C325   C416    1.408   .     S
C326   C509    1.409   1_455 S
C327   H329    1.081   .     S
C327   N334    1.362   .     A
C327   C331    1.421   .     A
C328   H330    1.082   .     S
C328   N333    1.358   .     A
C328   C332    1.420   .     A
C331   N333    1.379   .     A
C331   N365    1.417   .     S
C332   N334    1.384   .     A
C332   N371    1.422   .     S
N335   O337    1.301   .     A
N335   O336    1.301   .     A
N338   O339    1.299   .     A
N338   O340    1.300   .     A
N341   H342    1.030   .     S
N341   C343    1.448   .     S
C343   H345    1.111   .     S
C343   H346    1.112   .     S
C343   H344    1.109   .     S
N347   C349    1.446   .     S
N347   H348    1.026   .     S
C349   H350    1.111   .     S
C349   H351    1.111   .     S
C349   H352    1.111   .     S
N353   O355    1.301   .     A
N353   O354    1.301   .     A
N356   O358    1.301   .     A
N356   O357    1.301   .     A
N359   O360    1.300   .     A
N359   O361    1.301   .     A
N362   O364    1.301   .     A
N362   O363    1.302   .     A
N365   H366    1.032   .     S
N365   C367    1.442   .     S
C367   H369    1.110   .     S
C367   H368    1.110   .     S
C367   H370    1.110   .     S
N371   C373    1.449   .     S
N371   H372    1.026   .     S
C373   H374    1.109   .     S
C373   H375    1.112   .     S
C373   H376    1.109   .     S
O377   C381    1.292   .     A
O377   Cu389   1.959   .     S
O378   C382    1.292   .     A
O378   Cu390   1.959   .     S
O379   Cu390   1.949   .     S
O379   C475    1.293   .     S
O380   Cu389   1.949   .     S
C381   C420    1.443   .     S
C382   C419    1.443   .     S
C382   O474    1.293   .     S
O383   Cu389   1.938   .     S
O384   Cu390   1.938   .     S
O384   C482    1.300   .     S
O385   Cu390   1.931   .     S
O385   C387    1.299   .     A
O386   C388    1.300   .     A
O386   Cu389   1.931   .     S
C387   C391    1.466   .     S
C387   O477    1.300   .     S
C388   C392    1.466   .     S
Cu389  N427    2.025   .     S
Cu390  N428    2.025   .     S
Cu390  Cu483   2.694   .     S
C391   C395    1.396   .     A
C391   C397    1.392   .     A
C392   C396    1.395   .     A
C392   C398    1.399   .     A
C393   H413    1.082   .     S
C393   C401    1.413   .     A
C393   C395    1.395   .     A
C394   C402    1.409   .     A
C394   H414    1.081   .     S
C394   C396    1.387   .     A
C395   H506    1.083   .     S
C397   H410    1.079   .     S
C397   C399    1.408   .     A
C398   C400    1.411   .     A
C398   H409    1.080   .     S
C399   C403    1.423   .     A
C399   C401    1.417   .     A
C400   C402    1.421   .     A
C400   C404    1.426   .     A
C401   C1253   1.407   .     S
C402   C1254   1.404   1_554 S
C403   C406    1.424   .     A
C403   C1250   1.417   .     S
C404   C405    1.425   .     A
C404   C1249   1.417   1_554 S
C405   N435    1.426   .     S
C405   C407    1.411   .     A
C406   C408    1.404   .     A
C406   N441    1.426   .     S
C407   N429    1.434   .     S
C407   C1247   1.407   1_554 S
C408   N432    1.434   .     S
C408   C1248   1.404   .     S
H411   C490    1.083   .     S
C415   N447    1.439   .     S
C415   C514    1.409   .     S
C416   N450    1.438   .     S
C416   C700    1.395   .     S
C417   N453    1.436   .     S
C417   C419    1.407   .     A
C417   C697    1.398   .     S
C418   N456    1.435   .     S
C418   C420    1.405   .     A
C419   C510    1.408   .     S
C421   H423    1.081   .     S
C421   N428    1.362   .     A
C421   C425    1.421   .     A
C422   H424    1.082   .     S
C422   N427    1.358   .     A
C422   C426    1.420   .     A
C425   N427    1.379   .     A
C425   N459    1.417   .     S
C426   N428    1.384   .     A
C426   N465    1.422   .     S
N429   O431    1.301   .     A
N429   O430    1.301   .     A
N432   O433    1.299   .     A
N432   O434    1.300   .     A
N435   H436    1.030   .     S
N435   C437    1.448   .     S
C437   H439    1.111   .     S
C437   H440    1.112   .     S
C437   H438    1.109   .     S
N441   C443    1.446   .     S
N441   H442    1.026   .     S
C443   H444    1.111   .     S
C443   H445    1.111   .     S
C443   H446    1.111   .     S
N447   O449    1.301   .     A
N447   O448    1.301   .     A
N450   O452    1.301   .     A
N450   O451    1.301   .     A
N453   O454    1.300   .     A
N453   O455    1.301   .     A
N456   O458    1.301   .     A
N456   O457    1.302   .     A
N459   H460    1.032   .     S
N459   C461    1.442   .     S
C461   H463    1.110   .     S
C461   H462    1.110   .     S
C461   H464    1.110   .     S
N465   C467    1.449   .     S
N465   H466    1.026   .     S
C467   H468    1.109   .     S
C467   H469    1.112   .     S
C467   H470    1.109   .     S
O471   C475    1.292   .     A
O471   Cu483   1.959   .     S
O472   C476    1.292   .     A
O472   Cu484   1.959   .     S
O473   Cu484   1.949   .     S
O473   C287    1.293   1_655 S
O474   Cu483   1.949   .     S
C475   C514    1.443   .     S
C476   C513    1.443   .     S
C476   O286    1.293   1_655 S
O477   Cu483   1.938   .     S
O478   Cu484   1.938   .     S
O478   C294    1.300   1_655 S
O479   Cu484   1.931   .     S
O479   C481    1.299   .     A
O480   C482    1.300   .     A
O480   Cu483   1.931   .     S
C481   C485    1.466   .     S
C481   O289    1.300   1_655 S
C482   C486    1.466   .     S
Cu483  N521    2.025   .     S
Cu484  N522    2.025   .     S
Cu484  Cu295   2.694   1_655 S
C485   C489    1.396   .     A
C485   C491    1.392   .     A
C486   C490    1.395   .     A
C486   C492    1.399   .     A
C487   H507    1.082   .     S
C487   C495    1.413   .     A
C487   C489    1.395   .     A
C488   C496    1.409   .     A
C488   H508    1.081   .     S
C488   C490    1.387   .     A
C489   H318    1.083   1_655 S
C491   H504    1.079   .     S
C491   C493    1.408   .     A
C492   C494    1.411   .     A
C492   H503    1.080   .     S
C493   C497    1.423   .     A
C493   C495    1.417   .     A
C494   C496    1.421   .     A
C494   C498    1.426   .     A
C495   C1347   1.407   .     S
C496   C1348   1.404   1_554 S
C497   C500    1.424   .     A
C497   C1344   1.417   .     S
C498   C499    1.425   .     A
C498   C1343   1.417   1_554 S
C499   N529    1.426   .     S
C499   C501    1.411   .     A
C500   C502    1.404   .     A
C500   N535    1.426   .     S
C501   N523    1.434   .     S
C501   C1341   1.407   1_554 S
C502   N526    1.434   .     S
C502   C1342   1.404   .     S
H505   C302    1.083   1_655 S
C509   N541    1.439   .     S
C509   C326    1.409   1_655 S
C510   N544    1.438   .     S
C510   C794    1.395   .     S
C511   N547    1.436   .     S
C511   C513    1.407   .     A
C511   C791    1.398   .     S
C512   N550    1.435   .     S
C512   C514    1.405   .     A
C513   C322    1.408   1_655 S
C515   H517    1.081   .     S
C515   N522    1.362   .     A
C515   C519    1.421   .     A
C516   H518    1.082   .     S
C516   N521    1.358   .     A
C516   C520    1.420   .     A
C519   N521    1.379   .     A
C519   N553    1.417   .     S
C520   N522    1.384   .     A
C520   N559    1.422   .     S
N523   O525    1.301   .     A
N523   O524    1.301   .     A
N526   O527    1.299   .     A
N526   O528    1.300   .     A
N529   H530    1.030   .     S
N529   C531    1.448   .     S
C531   H533    1.111   .     S
C531   H534    1.112   .     S
C531   H532    1.109   .     S
N535   C537    1.446   .     S
N535   H536    1.026   .     S
C537   H538    1.111   .     S
C537   H539    1.111   .     S
C537   H540    1.111   .     S
N541   O543    1.301   .     A
N541   O542    1.301   .     A
N544   O546    1.301   .     A
N544   O545    1.301   .     A
N547   O548    1.300   .     A
N547   O549    1.301   .     A
N550   O552    1.301   .     A
N550   O551    1.302   .     A
N553   H554    1.032   .     S
N553   C555    1.442   .     S
C555   H557    1.110   .     S
C555   H556    1.110   .     S
C555   H558    1.110   .     S
N559   C561    1.449   .     S
N559   H560    1.026   .     S
C561   H562    1.109   .     S
C561   H563    1.112   .     S
C561   H564    1.109   .     S
O565   C569    1.292   .     A
O565   Cu577   1.959   .     S
O566   C570    1.292   .     A
O566   Cu578   1.959   .     S
O567   Cu578   1.949   .     S
O567   C663    1.293   .     S
O568   Cu577   1.949   .     S
O568   C758    1.293   1_455 S
C569   C608    1.443   .     S
C569   O755    1.293   1_455 S
C570   C607    1.443   .     S
C570   O662    1.293   .     S
O571   Cu577   1.938   .     S
O571   C763    1.300   1_455 S
O572   Cu578   1.938   .     S
O572   C670    1.300   .     S
O573   Cu578   1.931   .     S
O573   C575    1.299   .     A
O574   C576    1.300   .     A
O574   Cu577   1.931   .     S
C575   C579    1.466   .     S
C575   O665    1.300   .     S
C576   C580    1.466   .     S
C576   O760    1.300   1_455 S
Cu577  N615    2.025   .     S
Cu577  Cu766   2.694   1_455 S
Cu578  N616    2.025   .     S
Cu578  Cu671   2.694   .     S
C579   C583    1.396   .     A
C579   C585    1.392   .     A
C580   C584    1.395   .     A
C580   C586    1.399   .     A
C581   H601    1.082   .     S
C581   C589    1.413   .     A
C581   C583    1.395   .     A
C582   C590    1.409   .     A
C582   H602    1.081   .     S
C582   C584    1.387   .     A
C583   H694    1.083   .     S
C584   H787    1.083   1_455 S
C585   H598    1.079   .     S
C585   C587    1.408   .     A
C586   C588    1.411   .     A
C586   H597    1.080   .     S
C587   C591    1.423   .     A
C587   C589    1.417   .     A
C588   C590    1.421   .     A
C588   C592    1.426   .     A
C589   C1441   1.407   .     S
C590   C1442   1.404   1_554 S
C591   C594    1.424   .     A
C591   C1438   1.417   .     S
C592   C593    1.425   .     A
C592   C1437   1.417   1_554 S
C593   N623    1.426   .     S
C593   C595    1.411   .     A
C594   C596    1.404   .     A
C594   N629    1.426   .     S
C595   N617    1.434   .     S
C595   C1435   1.407   1_554 S
C596   N620    1.434   .     S
C596   C1436   1.404   .     S
H599   C678    1.083   .     S
H600   C771    1.083   1_455 S
C603   N635    1.439   .     S
C603   C702    1.409   .     S
C604   N638    1.438   .     S
C604   C42     1.395   1_565 S
C604   C795    1.408   1_455 S
C605   N641    1.436   .     S
C605   C607    1.407   .     A
C605   C39     1.398   1_565 S
C606   N644    1.435   .     S
C606   C608    1.405   .     A
C607   C698    1.408   .     S
C608   C791    1.409   1_455 S
C609   H611    1.081   .     S
C609   N616    1.362   .     A
C609   C613    1.421   .     A
C610   H612    1.082   .     S
C610   N615    1.358   .     A
C610   C614    1.420   .     A
C613   N615    1.379   .     A
C613   N647    1.417   .     S
C614   N616    1.384   .     A
C614   N653    1.422   .     S
N617   O619    1.301   .     A
N617   O618    1.301   .     A
N620   O621    1.299   .     A
N620   O622    1.300   .     A
N623   H624    1.030   .     S
N623   C625    1.448   .     S
C625   H627    1.111   .     S
C625   H628    1.112   .     S
C625   H626    1.109   .     S
N629   C631    1.446   .     S
N629   H630    1.026   .     S
C631   H632    1.111   .     S
C631   H633    1.111   .     S
C631   H634    1.111   .     S
N635   O637    1.301   .     A
N635   O636    1.301   .     A
N638   O640    1.301   .     A
N638   O639    1.301   .     A
N641   O642    1.300   .     A
N641   O643    1.301   .     A
N644   O646    1.301   .     A
N644   O645    1.302   .     A
N647   H648    1.032   .     S
N647   C649    1.442   .     S
C649   H651    1.110   .     S
C649   H650    1.110   .     S
C649   H652    1.110   .     S
N653   C655    1.449   .     S
N653   H654    1.026   .     S
C655   H656    1.109   .     S
C655   H657    1.112   .     S
C655   H658    1.109   .     S
O659   C663    1.292   .     A
O659   Cu671   1.959   .     S
O660   C664    1.292   .     A
O660   Cu672   1.959   .     S
O661   Cu672   1.949   .     S
O661   C757    1.293   .     S
O662   Cu671   1.949   .     S
C663   C702    1.443   .     S
C664   C701    1.443   .     S
C664   O756    1.293   .     S
O665   Cu671   1.938   .     S
O666   Cu672   1.938   .     S
O666   C764    1.300   .     S
O667   Cu672   1.931   .     S
O667   C669    1.299   .     A
O668   C670    1.300   .     A
O668   Cu671   1.931   .     S
C669   C673    1.466   .     S
C669   O759    1.300   .     S
C670   C674    1.466   .     S
Cu671  N709    2.025   .     S
Cu672  N710    2.025   .     S
Cu672  Cu765   2.694   .     S
C673   C677    1.396   .     A
C673   C679    1.392   .     A
C674   C678    1.395   .     A
C674   C680    1.399   .     A
C675   H695    1.082   .     S
C675   C683    1.413   .     A
C675   C677    1.395   .     A
C676   C684    1.409   .     A
C676   H696    1.081   .     S
C676   C678    1.387   .     A
C677   H788    1.083   .     S
C679   H692    1.079   .     S
C679   C681    1.408   .     A
C680   C682    1.411   .     A
C680   H691    1.080   .     S
C681   C685    1.423   .     A
C681   C683    1.417   .     A
C682   C684    1.421   .     A
C682   C686    1.426   .     A
C683   C1535   1.407   .     S
C684   C1536   1.404   1_554 S
C685   C688    1.424   .     A
C685   C1532   1.417   .     S
C686   C687    1.425   .     A
C686   C1531   1.417   1_554 S
C687   N717    1.426   .     S
C687   C689    1.411   .     A
C688   C690    1.404   .     A
C688   N723    1.426   .     S
C689   N711    1.434   .     S
C689   C1529   1.407   1_554 S
C690   N714    1.434   .     S
C690   C1530   1.404   .     S
H693   C772    1.083   .     S
C697   N729    1.439   .     S
C697   C796    1.409   .     S
C698   N732    1.438   .     S
C698   C136    1.395   1_565 S
C699   N735    1.436   .     S
C699   C701    1.407   .     A
C699   C133    1.398   1_565 S
C700   N738    1.435   .     S
C700   C702    1.405   .     A
C701   C792    1.408   .     S
C703   H705    1.081   .     S
C703   N710    1.362   .     A
C703   C707    1.421   .     A
C704   H706    1.082   .     S
C704   N709    1.358   .     A
C704   C708    1.420   .     A
C707   N709    1.379   .     A
C707   N741    1.417   .     S
C708   N710    1.384   .     A
C708   N747    1.422   .     S
N711   O713    1.301   .     A
N711   O712    1.301   .     A
N714   O715    1.299   .     A
N714   O716    1.300   .     A
N717   H718    1.030   .     S
N717   C719    1.448   .     S
C719   H721    1.111   .     S
C719   H722    1.112   .     S
C719   H720    1.109   .     S
N723   C725    1.446   .     S
N723   H724    1.026   .     S
C725   H726    1.111   .     S
C725   H727    1.111   .     S
C725   H728    1.111   .     S
N729   O731    1.301   .     A
N729   O730    1.301   .     A
N732   O734    1.301   .     A
N732   O733    1.301   .     A
N735   O736    1.300   .     A
N735   O737    1.301   .     A
N738   O740    1.301   .     A
N738   O739    1.302   .     A
N741   H742    1.032   .     S
N741   C743    1.442   .     S
C743   H745    1.110   .     S
C743   H744    1.110   .     S
C743   H746    1.110   .     S
N747   C749    1.449   .     S
N747   H748    1.026   .     S
C749   H750    1.109   .     S
C749   H751    1.112   .     S
C749   H752    1.109   .     S
O753   C757    1.292   .     A
O753   Cu765   1.959   .     S
O754   C758    1.292   .     A
O754   Cu766   1.959   .     S
O755   Cu766   1.949   .     S
O755   C569    1.293   1_655 S
O756   Cu765   1.949   .     S
C757   C796    1.443   .     S
C758   C795    1.443   .     S
C758   O568    1.293   1_655 S
O759   Cu765   1.938   .     S
O760   Cu766   1.938   .     S
O760   C576    1.300   1_655 S
O761   Cu766   1.931   .     S
O761   C763    1.299   .     A
O762   C764    1.300   .     A
O762   Cu765   1.931   .     S
C763   C767    1.466   .     S
C763   O571    1.300   1_655 S
C764   C768    1.466   .     S
Cu765  N803    2.025   .     S
Cu766  N804    2.025   .     S
Cu766  Cu577   2.694   1_655 S
C767   C771    1.396   .     A
C767   C773    1.392   .     A
C768   C772    1.395   .     A
C768   C774    1.399   .     A
C769   H789    1.082   .     S
C769   C777    1.413   .     A
C769   C771    1.395   .     A
C770   C778    1.409   .     A
C770   H790    1.081   .     S
C770   C772    1.387   .     A
C771   H600    1.083   1_655 S
C773   H786    1.079   .     S
C773   C775    1.408   .     A
C774   C776    1.411   .     A
C774   H785    1.080   .     S
C775   C779    1.423   .     A
C775   C777    1.417   .     A
C776   C778    1.421   .     A
C776   C780    1.426   .     A
C777   C1629   1.407   .     S
C778   C1630   1.404   1_554 S
C779   C782    1.424   .     A
C779   C1626   1.417   .     S
C780   C781    1.425   .     A
C780   C1625   1.417   1_554 S
C781   N811    1.426   .     S
C781   C783    1.411   .     A
C782   C784    1.404   .     A
C782   N817    1.426   .     S
C783   N805    1.434   .     S
C783   C1623   1.407   1_554 S
C784   N808    1.434   .     S
C784   C1624   1.404   .     S
H787   C584    1.083   1_655 S
C791   N823    1.439   .     S
C791   C608    1.409   1_655 S
C792   N826    1.438   .     S
C792   C230    1.395   1_565 S
C793   N829    1.436   .     S
C793   C795    1.407   .     A
C793   C227    1.398   1_565 S
C794   N832    1.435   .     S
C794   C796    1.405   .     A
C795   C604    1.408   1_655 S
C797   H799    1.081   .     S
C797   N804    1.362   .     A
C797   C801    1.421   .     A
C798   H800    1.082   .     S
C798   N803    1.358   .     A
C798   C802    1.420   .     A
C801   N803    1.379   .     A
C801   N835    1.417   .     S
C802   N804    1.384   .     A
C802   N841    1.422   .     S
N805   O807    1.301   .     A
N805   O806    1.301   .     A
N808   O809    1.299   .     A
N808   O810    1.300   .     A
N811   H812    1.030   .     S
N811   C813    1.448   .     S
C813   H815    1.111   .     S
C813   H816    1.112   .     S
C813   H814    1.109   .     S
N817   C819    1.446   .     S
N817   H818    1.026   .     S
C819   H820    1.111   .     S
C819   H821    1.111   .     S
C819   H822    1.111   .     S
N823   O825    1.301   .     A
N823   O824    1.301   .     A
N826   O828    1.301   .     A
N826   O827    1.301   .     A
N829   O830    1.300   .     A
N829   O831    1.301   .     A
N832   O834    1.301   .     A
N832   O833    1.302   .     A
N835   H836    1.032   .     S
N835   C837    1.442   .     S
C837   H839    1.110   .     S
C837   H838    1.110   .     S
C837   H840    1.110   .     S
N841   C843    1.449   .     S
N841   H842    1.026   .     S
C843   H844    1.109   .     S
C843   H845    1.112   .     S
C843   H846    1.109   .     S
O847   C851    1.292   .     A
O847   Cu859   1.959   .     S
O848   C852    1.292   .     A
O848   Cu860   1.959   .     S
O849   Cu860   1.949   .     S
O849   C945    1.293   .     S
O850   Cu859   1.949   .     S
O850   C1040   1.293   1_455 S
C851   C890    1.443   .     S
C851   O1037   1.293   1_455 S
C852   C889    1.443   .     S
C852   O944    1.293   .     S
O853   Cu859   1.938   .     S
O853   C1045   1.300   1_455 S
O854   Cu860   1.938   .     S
O854   C952    1.300   .     S
O855   Cu860   1.931   .     S
O855   C857    1.299   .     A
O856   C858    1.300   .     A
O856   Cu859   1.931   .     S
C857   C861    1.466   .     S
C857   O947    1.300   .     S
C858   C862    1.466   .     S
C858   O1042   1.300   1_455 S
Cu859  N897    2.025   .     S
Cu859  Cu1048  2.694   1_455 S
Cu860  N898    2.025   .     S
Cu860  Cu953   2.694   .     S
C861   C865    1.396   .     A
C861   C867    1.392   .     A
C862   C866    1.395   .     A
C862   C868    1.399   .     A
C863   H883    1.082   .     S
C863   C871    1.413   .     A
C863   C865    1.395   .     A
C864   C872    1.409   .     A
C864   H884    1.081   .     S
C864   C866    1.387   .     A
C865   H976    1.083   .     S
C866   H1069   1.083   1_455 S
C867   H880    1.079   .     S
C867   C869    1.408   .     A
C868   C870    1.411   .     A
C868   H879    1.080   .     S
C869   C873    1.423   .     A
C869   C871    1.417   .     A
C870   C872    1.421   .     A
C870   C874    1.426   .     A
C871   C31     1.407   1_556 S
C873   C876    1.424   .     A
C873   C28     1.417   1_556 S
C874   C875    1.425   .     A
C875   N905    1.426   .     S
C875   C877    1.411   .     A
C876   C878    1.404   .     A
C876   N911    1.426   .     S
C877   N899    1.434   .     S
C878   N902    1.434   .     S
C878   C26     1.404   1_556 S
H881   C960    1.083   .     S
H882   C1053   1.083   1_455 S
C885   N917    1.439   .     S
C885   C1451   1.398   1_545 S
C885   C984    1.409   .     S
C886   N920    1.438   .     S
C886   C1170   1.395   .     S
C886   C1077   1.408   1_455 S
C887   N923    1.436   .     S
C887   C889    1.407   .     A
C887   C1167   1.398   .     S
C888   N926    1.435   .     S
C888   C890    1.405   .     A
C888   C1450   1.395   1_545 S
C889   C980    1.408   .     S
C890   C1073   1.409   1_455 S
C891   H893    1.081   .     S
C891   N898    1.362   .     A
C891   C895    1.421   .     A
C892   H894    1.082   .     S
C892   N897    1.358   .     A
C892   C896    1.420   .     A
C895   N897    1.379   .     A
C895   N929    1.417   .     S
C896   N898    1.384   .     A
C896   N935    1.422   .     S
N899   O901    1.301   .     A
N899   O900    1.301   .     A
N902   O903    1.299   .     A
N902   O904    1.300   .     A
N905   H906    1.030   .     S
N905   C907    1.448   .     S
C907   H909    1.111   .     S
C907   H910    1.112   .     S
C907   H908    1.109   .     S
N911   C913    1.446   .     S
N911   H912    1.026   .     S
C913   H914    1.111   .     S
C913   H915    1.111   .     S
C913   H916    1.111   .     S
N917   O919    1.301   .     A
N917   O918    1.301   .     A
N920   O922    1.301   .     A
N920   O921    1.301   .     A
N923   O924    1.300   .     A
N923   O925    1.301   .     A
N926   O928    1.301   .     A
N926   O927    1.302   .     A
N929   H930    1.032   .     S
N929   C931    1.442   .     S
C931   H933    1.110   .     S
C931   H932    1.110   .     S
C931   H934    1.110   .     S
N935   C937    1.449   .     S
N935   H936    1.026   .     S
C937   H938    1.109   .     S
C937   H939    1.112   .     S
C937   H940    1.109   .     S
O941   C945    1.292   .     A
O941   Cu953   1.959   .     S
O942   C946    1.292   .     A
O942   Cu954   1.959   .     S
O943   Cu954   1.949   .     S
O943   C1039   1.293   .     S
O944   Cu953   1.949   .     S
C945   C984    1.443   .     S
C946   C983    1.443   .     S
C946   O1038   1.293   .     S
O947   Cu953   1.938   .     S
O948   Cu954   1.938   .     S
O948   C1046   1.300   .     S
O949   Cu954   1.931   .     S
O949   C951    1.299   .     A
O950   C952    1.300   .     A
O950   Cu953   1.931   .     S
C951   C955    1.466   .     S
C951   O1041   1.300   .     S
C952   C956    1.466   .     S
Cu953  N991    2.025   .     S
Cu954  N992    2.025   .     S
Cu954  Cu1047  2.694   .     S
C955   C959    1.396   .     A
C955   C961    1.392   .     A
C956   C960    1.395   .     A
C956   C962    1.399   .     A
C957   H977    1.082   .     S
C957   C965    1.413   .     A
C957   C959    1.395   .     A
C958   C966    1.409   .     A
C958   H978    1.081   .     S
C958   C960    1.387   .     A
C959   H1070   1.083   .     S
C961   H974    1.079   .     S
C961   C963    1.408   .     A
C962   C964    1.411   .     A
C962   H973    1.080   .     S
C963   C967    1.423   .     A
C963   C965    1.417   .     A
C964   C966    1.421   .     A
C964   C968    1.426   .     A
C965   C125    1.407   1_556 S
C967   C970    1.424   .     A
C967   C122    1.417   1_556 S
C968   C969    1.425   .     A
C969   N999    1.426   .     S
C969   C971    1.411   .     A
C970   C972    1.404   .     A
C970   N1005   1.426   .     S
C971   N993    1.434   .     S
C972   N996    1.434   .     S
C972   C120    1.404   1_556 S
H975   C1054   1.083   .     S
C979   N1011   1.439   .     S
C979   C1545   1.398   1_545 S
C979   C1078   1.409   .     S
C980   N1014   1.438   .     S
C980   C1264   1.395   .     S
C981   N1017   1.436   .     S
C981   C983    1.407   .     A
C981   C1261   1.398   .     S
C982   N1020   1.435   .     S
C982   C984    1.405   .     A
C982   C1544   1.395   1_545 S
C983   C1074   1.408   .     S
C985   H987    1.081   .     S
C985   N992    1.362   .     A
C985   C989    1.421   .     A
C986   H988    1.082   .     S
C986   N991    1.358   .     A
C986   C990    1.420   .     A
C989   N991    1.379   .     A
C989   N1023   1.417   .     S
C990   N992    1.384   .     A
C990   N1029   1.422   .     S
N993   O995    1.301   .     A
N993   O994    1.301   .     A
N996   O997    1.299   .     A
N996   O998    1.300   .     A
N999   H1000   1.030   .     S
N999   C1001   1.448   .     S
C1001  H1003   1.111   .     S
C1001  H1004   1.112   .     S
C1001  H1002   1.109   .     S
N1005  C1007   1.446   .     S
N1005  H1006   1.026   .     S
C1007  H1008   1.111   .     S
C1007  H1009   1.111   .     S
C1007  H1010   1.111   .     S
N1011  O1013   1.301   .     A
N1011  O1012   1.301   .     A
N1014  O1016   1.301   .     A
N1014  O1015   1.301   .     A
N1017  O1018   1.300   .     A
N1017  O1019   1.301   .     A
N1020  O1022   1.301   .     A
N1020  O1021   1.302   .     A
N1023  H1024   1.032   .     S
N1023  C1025   1.442   .     S
C1025  H1027   1.110   .     S
C1025  H1026   1.110   .     S
C1025  H1028   1.110   .     S
N1029  C1031   1.449   .     S
N1029  H1030   1.026   .     S
C1031  H1032   1.109   .     S
C1031  H1033   1.112   .     S
C1031  H1034   1.109   .     S
O1035  C1039   1.292   .     A
O1035  Cu1047  1.959   .     S
O1036  C1040   1.292   .     A
O1036  Cu1048  1.959   .     S
O1037  Cu1048  1.949   .     S
O1037  C851    1.293   1_655 S
O1038  Cu1047  1.949   .     S
C1039  C1078   1.443   .     S
C1040  C1077   1.443   .     S
C1040  O850    1.293   1_655 S
O1041  Cu1047  1.938   .     S
O1042  Cu1048  1.938   .     S
O1042  C858    1.300   1_655 S
O1043  Cu1048  1.931   .     S
O1043  C1045   1.299   .     A
O1044  C1046   1.300   .     A
O1044  Cu1047  1.931   .     S
C1045  C1049   1.466   .     S
C1045  O853    1.300   1_655 S
C1046  C1050   1.466   .     S
Cu1047 N1085   2.025   .     S
Cu1048 N1086   2.025   .     S
Cu1048 Cu859   2.694   1_655 S
C1049  C1053   1.396   .     A
C1049  C1055   1.392   .     A
C1050  C1054   1.395   .     A
C1050  C1056   1.399   .     A
C1051  H1071   1.082   .     S
C1051  C1059   1.413   .     A
C1051  C1053   1.395   .     A
C1052  C1060   1.409   .     A
C1052  H1072   1.081   .     S
C1052  C1054   1.387   .     A
C1053  H882    1.083   1_655 S
C1055  H1068   1.079   .     S
C1055  C1057   1.408   .     A
C1056  C1058   1.411   .     A
C1056  H1067   1.080   .     S
C1057  C1061   1.423   .     A
C1057  C1059   1.417   .     A
C1058  C1060   1.421   .     A
C1058  C1062   1.426   .     A
C1059  C219    1.407   1_556 S
C1061  C1064   1.424   .     A
C1061  C216    1.417   1_556 S
C1062  C1063   1.425   .     A
C1063  N1093   1.426   .     S
C1063  C1065   1.411   .     A
C1064  C1066   1.404   .     A
C1064  N1099   1.426   .     S
C1065  N1087   1.434   .     S
C1066  N1090   1.434   .     S
C1066  C214    1.404   1_556 S
H1069  C866    1.083   1_655 S
C1073  N1105   1.439   .     S
C1073  C1639   1.398   1_545 S
C1073  C890    1.409   1_655 S
C1074  N1108   1.438   .     S
C1074  C1358   1.395   .     S
C1075  N1111   1.436   .     S
C1075  C1077   1.407   .     A
C1075  C1355   1.398   .     S
C1076  N1114   1.435   .     S
C1076  C1078   1.405   .     A
C1076  C1638   1.395   1_545 S
C1077  C886    1.408   1_655 S
C1079  H1081   1.081   .     S
C1079  N1086   1.362   .     A
C1079  C1083   1.421   .     A
C1080  H1082   1.082   .     S
C1080  N1085   1.358   .     A
C1080  C1084   1.420   .     A
C1083  N1085   1.379   .     A
C1083  N1117   1.417   .     S
C1084  N1086   1.384   .     A
C1084  N1123   1.422   .     S
N1087  O1089   1.301   .     A
N1087  O1088   1.301   .     A
N1090  O1091   1.299   .     A
N1090  O1092   1.300   .     A
N1093  H1094   1.030   .     S
N1093  C1095   1.448   .     S
C1095  H1097   1.111   .     S
C1095  H1098   1.112   .     S
C1095  H1096   1.109   .     S
N1099  C1101   1.446   .     S
N1099  H1100   1.026   .     S
C1101  H1102   1.111   .     S
C1101  H1103   1.111   .     S
C1101  H1104   1.111   .     S
N1105  O1107   1.301   .     A
N1105  O1106   1.301   .     A
N1108  O1110   1.301   .     A
N1108  O1109   1.301   .     A
N1111  O1112   1.300   .     A
N1111  O1113   1.301   .     A
N1114  O1116   1.301   .     A
N1114  O1115   1.302   .     A
N1117  H1118   1.032   .     S
N1117  C1119   1.442   .     S
C1119  H1121   1.110   .     S
C1119  H1120   1.110   .     S
C1119  H1122   1.110   .     S
N1123  C1125   1.449   .     S
N1123  H1124   1.026   .     S
C1125  H1126   1.109   .     S
C1125  H1127   1.112   .     S
C1125  H1128   1.109   .     S
O1129  C1133   1.292   .     A
O1129  Cu1141  1.959   .     S
O1130  C1134   1.292   .     A
O1130  Cu1142  1.959   .     S
O1131  Cu1142  1.949   .     S
O1131  C1227   1.293   .     S
O1132  Cu1141  1.949   .     S
O1132  C1322   1.293   1_455 S
C1133  C1172   1.443   .     S
C1133  O1319   1.293   1_455 S
C1134  C1171   1.443   .     S
C1134  O1226   1.293   .     S
O1135  Cu1141  1.938   .     S
O1135  C1327   1.300   1_455 S
O1136  Cu1142  1.938   .     S
O1136  C1234   1.300   .     S
O1137  Cu1142  1.931   .     S
O1137  C1139   1.299   .     A
O1138  C1140   1.300   .     A
O1138  Cu1141  1.931   .     S
C1139  C1143   1.466   .     S
C1139  O1229   1.300   .     S
C1140  C1144   1.466   .     S
C1140  O1324   1.300   1_455 S
Cu1141 N1179   2.025   .     S
Cu1141 Cu1330  2.694   1_455 S
Cu1142 N1180   2.025   .     S
Cu1142 Cu1235  2.694   .     S
C1143  C1147   1.396   .     A
C1143  C1149   1.392   .     A
C1144  C1148   1.395   .     A
C1144  C1150   1.399   .     A
C1145  H1165   1.082   .     S
C1145  C1153   1.413   .     A
C1145  C1147   1.395   .     A
C1146  C1154   1.409   .     A
C1146  H1166   1.081   .     S
C1146  C1148   1.387   .     A
C1147  H1258   1.083   .     S
C1148  H1351   1.083   1_455 S
C1149  H1162   1.079   .     S
C1149  C1151   1.408   .     A
C1150  C1152   1.411   .     A
C1150  H1161   1.080   .     S
C1151  C1155   1.423   .     A
C1151  C1153   1.417   .     A
C1152  C1154   1.421   .     A
C1152  C1156   1.426   .     A
C1153  C313    1.407   1_556 S
C1155  C1158   1.424   .     A
C1155  C310    1.417   1_556 S
C1156  C1157   1.425   .     A
C1157  N1187   1.426   .     S
C1157  C1159   1.411   .     A
C1158  C1160   1.404   .     A
C1158  N1193   1.426   .     S
C1159  N1181   1.434   .     S
C1160  N1184   1.434   .     S
C1160  C308    1.404   1_556 S
H1163  C1242   1.083   .     S
H1164  C1335   1.083   1_455 S
C1167  N1199   1.439   .     S
C1167  C1266   1.409   .     S
C1168  N1202   1.438   .     S
C1168  C1452   1.395   .     S
C1168  C1359   1.408   1_455 S
C1169  N1205   1.436   .     S
C1169  C1171   1.407   .     A
C1169  C1449   1.398   .     S
C1170  N1208   1.435   .     S
C1170  C1172   1.405   .     A
C1171  C1262   1.408   .     S
C1172  C1355   1.409   1_455 S
C1173  H1175   1.081   .     S
C1173  N1180   1.362   .     A
C1173  C1177   1.421   .     A
C1174  H1176   1.082   .     S
C1174  N1179   1.358   .     A
C1174  C1178   1.420   .     A
C1177  N1179   1.379   .     A
C1177  N1211   1.417   .     S
C1178  N1180   1.384   .     A
C1178  N1217   1.422   .     S
N1181  O1183   1.301   .     A
N1181  O1182   1.301   .     A
N1184  O1185   1.299   .     A
N1184  O1186   1.300   .     A
N1187  H1188   1.030   .     S
N1187  C1189   1.448   .     S
C1189  H1191   1.111   .     S
C1189  H1192   1.112   .     S
C1189  H1190   1.109   .     S
N1193  C1195   1.446   .     S
N1193  H1194   1.026   .     S
C1195  H1196   1.111   .     S
C1195  H1197   1.111   .     S
C1195  H1198   1.111   .     S
N1199  O1201   1.301   .     A
N1199  O1200   1.301   .     A
N1202  O1204   1.301   .     A
N1202  O1203   1.301   .     A
N1205  O1206   1.300   .     A
N1205  O1207   1.301   .     A
N1208  O1210   1.301   .     A
N1208  O1209   1.302   .     A
N1211  H1212   1.032   .     S
N1211  C1213   1.442   .     S
C1213  H1215   1.110   .     S
C1213  H1214   1.110   .     S
C1213  H1216   1.110   .     S
N1217  C1219   1.449   .     S
N1217  H1218   1.026   .     S
C1219  H1220   1.109   .     S
C1219  H1221   1.112   .     S
C1219  H1222   1.109   .     S
O1223  C1227   1.292   .     A
O1223  Cu1235  1.959   .     S
O1224  C1228   1.292   .     A
O1224  Cu1236  1.959   .     S
O1225  Cu1236  1.949   .     S
O1225  C1321   1.293   .     S
O1226  Cu1235  1.949   .     S
C1227  C1266   1.443   .     S
C1228  C1265   1.443   .     S
C1228  O1320   1.293   .     S
O1229  Cu1235  1.938   .     S
O1230  Cu1236  1.938   .     S
O1230  C1328   1.300   .     S
O1231  Cu1236  1.931   .     S
O1231  C1233   1.299   .     A
O1232  C1234   1.300   .     A
O1232  Cu1235  1.931   .     S
C1233  C1237   1.466   .     S
C1233  O1323   1.300   .     S
C1234  C1238   1.466   .     S
Cu1235 N1273   2.025   .     S
Cu1236 N1274   2.025   .     S
Cu1236 Cu1329  2.694   .     S
C1237  C1241   1.396   .     A
C1237  C1243   1.392   .     A
C1238  C1242   1.395   .     A
C1238  C1244   1.399   .     A
C1239  H1259   1.082   .     S
C1239  C1247   1.413   .     A
C1239  C1241   1.395   .     A
C1240  C1248   1.409   .     A
C1240  H1260   1.081   .     S
C1240  C1242   1.387   .     A
C1241  H1352   1.083   .     S
C1243  H1256   1.079   .     S
C1243  C1245   1.408   .     A
C1244  C1246   1.411   .     A
C1244  H1255   1.080   .     S
C1245  C1249   1.423   .     A
C1245  C1247   1.417   .     A
C1246  C1248   1.421   .     A
C1246  C1250   1.426   .     A
C1247  C407    1.407   1_556 S
C1249  C1252   1.424   .     A
C1249  C404    1.417   1_556 S
C1250  C1251   1.425   .     A
C1251  N1281   1.426   .     S
C1251  C1253   1.411   .     A
C1252  C1254   1.404   .     A
C1252  N1287   1.426   .     S
C1253  N1275   1.434   .     S
C1254  N1278   1.434   .     S
C1254  C402    1.404   1_556 S
H1257  C1336   1.083   .     S
C1261  N1293   1.439   .     S
C1261  C1360   1.409   .     S
C1262  N1296   1.438   .     S
C1262  C1546   1.395   .     S
C1263  N1299   1.436   .     S
C1263  C1265   1.407   .     A
C1263  C1543   1.398   .     S
C1264  N1302   1.435   .     S
C1264  C1266   1.405   .     A
C1265  C1356   1.408   .     S
C1267  H1269   1.081   .     S
C1267  N1274   1.362   .     A
C1267  C1271   1.421   .     A
C1268  H1270   1.082   .     S
C1268  N1273   1.358   .     A
C1268  C1272   1.420   .     A
C1271  N1273   1.379   .     A
C1271  N1305   1.417   .     S
C1272  N1274   1.384   .     A
C1272  N1311   1.422   .     S
N1275  O1277   1.301   .     A
N1275  O1276   1.301   .     A
N1278  O1279   1.299   .     A
N1278  O1280   1.300   .     A
N1281  H1282   1.030   .     S
N1281  C1283   1.448   .     S
C1283  H1285   1.111   .     S
C1283  H1286   1.112   .     S
C1283  H1284   1.109   .     S
N1287  C1289   1.446   .     S
N1287  H1288   1.026   .     S
C1289  H1290   1.111   .     S
C1289  H1291   1.111   .     S
C1289  H1292   1.111   .     S
N1293  O1295   1.301   .     A
N1293  O1294   1.301   .     A
N1296  O1298   1.301   .     A
N1296  O1297   1.301   .     A
N1299  O1300   1.300   .     A
N1299  O1301   1.301   .     A
N1302  O1304   1.301   .     A
N1302  O1303   1.302   .     A
N1305  H1306   1.032   .     S
N1305  C1307   1.442   .     S
C1307  H1309   1.110   .     S
C1307  H1308   1.110   .     S
C1307  H1310   1.110   .     S
N1311  C1313   1.449   .     S
N1311  H1312   1.026   .     S
C1313  H1314   1.109   .     S
C1313  H1315   1.112   .     S
C1313  H1316   1.109   .     S
O1317  C1321   1.292   .     A
O1317  Cu1329  1.959   .     S
O1318  C1322   1.292   .     A
O1318  Cu1330  1.959   .     S
O1319  Cu1330  1.949   .     S
O1319  C1133   1.293   1_655 S
O1320  Cu1329  1.949   .     S
C1321  C1360   1.443   .     S
C1322  C1359   1.443   .     S
C1322  O1132   1.293   1_655 S
O1323  Cu1329  1.938   .     S
O1324  Cu1330  1.938   .     S
O1324  C1140   1.300   1_655 S
O1325  Cu1330  1.931   .     S
O1325  C1327   1.299   .     A
O1326  C1328   1.300   .     A
O1326  Cu1329  1.931   .     S
C1327  C1331   1.466   .     S
C1327  O1135   1.300   1_655 S
C1328  C1332   1.466   .     S
Cu1329 N1367   2.025   .     S
Cu1330 N1368   2.025   .     S
Cu1330 Cu1141  2.694   1_655 S
C1331  C1335   1.396   .     A
C1331  C1337   1.392   .     A
C1332  C1336   1.395   .     A
C1332  C1338   1.399   .     A
C1333  H1353   1.082   .     S
C1333  C1341   1.413   .     A
C1333  C1335   1.395   .     A
C1334  C1342   1.409   .     A
C1334  H1354   1.081   .     S
C1334  C1336   1.387   .     A
C1335  H1164   1.083   1_655 S
C1337  H1350   1.079   .     S
C1337  C1339   1.408   .     A
C1338  C1340   1.411   .     A
C1338  H1349   1.080   .     S
C1339  C1343   1.423   .     A
C1339  C1341   1.417   .     A
C1340  C1342   1.421   .     A
C1340  C1344   1.426   .     A
C1341  C501    1.407   1_556 S
C1343  C1346   1.424   .     A
C1343  C498    1.417   1_556 S
C1344  C1345   1.425   .     A
C1345  N1375   1.426   .     S
C1345  C1347   1.411   .     A
C1346  C1348   1.404   .     A
C1346  N1381   1.426   .     S
C1347  N1369   1.434   .     S
C1348  N1372   1.434   .     S
C1348  C496    1.404   1_556 S
H1351  C1148   1.083   1_655 S
C1355  N1387   1.439   .     S
C1355  C1172   1.409   1_655 S
C1356  N1390   1.438   .     S
C1356  C1640   1.395   .     S
C1357  N1393   1.436   .     S
C1357  C1359   1.407   .     A
C1357  C1637   1.398   .     S
C1358  N1396   1.435   .     S
C1358  C1360   1.405   .     A
C1359  C1168   1.408   1_655 S
C1361  H1363   1.081   .     S
C1361  N1368   1.362   .     A
C1361  C1365   1.421   .     A
C1362  H1364   1.082   .     S
C1362  N1367   1.358   .     A
C1362  C1366   1.420   .     A
C1365  N1367   1.379   .     A
C1365  N1399   1.417   .     S
C1366  N1368   1.384   .     A
C1366  N1405   1.422   .     S
N1369  O1371   1.301   .     A
N1369  O1370   1.301   .     A
N1372  O1373   1.299   .     A
N1372  O1374   1.300   .     A
N1375  H1376   1.030   .     S
N1375  C1377   1.448   .     S
C1377  H1379   1.111   .     S
C1377  H1380   1.112   .     S
C1377  H1378   1.109   .     S
N1381  C1383   1.446   .     S
N1381  H1382   1.026   .     S
C1383  H1384   1.111   .     S
C1383  H1385   1.111   .     S
C1383  H1386   1.111   .     S
N1387  O1389   1.301   .     A
N1387  O1388   1.301   .     A
N1390  O1392   1.301   .     A
N1390  O1391   1.301   .     A
N1393  O1394   1.300   .     A
N1393  O1395   1.301   .     A
N1396  O1398   1.301   .     A
N1396  O1397   1.302   .     A
N1399  H1400   1.032   .     S
N1399  C1401   1.442   .     S
C1401  H1403   1.110   .     S
C1401  H1402   1.110   .     S
C1401  H1404   1.110   .     S
N1405  C1407   1.449   .     S
N1405  H1406   1.026   .     S
C1407  H1408   1.109   .     S
C1407  H1409   1.112   .     S
C1407  H1410   1.109   .     S
O1411  C1415   1.292   .     A
O1411  Cu1423  1.959   .     S
O1412  C1416   1.292   .     A
O1412  Cu1424  1.959   .     S
O1413  Cu1424  1.949   .     S
O1413  C1509   1.293   .     S
O1414  Cu1423  1.949   .     S
O1414  C1604   1.293   1_455 S
C1415  C1454   1.443   .     S
C1415  O1601   1.293   1_455 S
C1416  C1453   1.443   .     S
C1416  O1508   1.293   .     S
O1417  Cu1423  1.938   .     S
O1417  C1609   1.300   1_455 S
O1418  Cu1424  1.938   .     S
O1418  C1516   1.300   .     S
O1419  Cu1424  1.931   .     S
O1419  C1421   1.299   .     A
O1420  C1422   1.300   .     A
O1420  Cu1423  1.931   .     S
C1421  C1425   1.466   .     S
C1421  O1511   1.300   .     S
C1422  C1426   1.466   .     S
C1422  O1606   1.300   1_455 S
Cu1423 N1461   2.025   .     S
Cu1423 Cu1612  2.694   1_455 S
Cu1424 N1462   2.025   .     S
Cu1424 Cu1517  2.694   .     S
C1425  C1429   1.396   .     A
C1425  C1431   1.392   .     A
C1426  C1430   1.395   .     A
C1426  C1432   1.399   .     A
C1427  H1447   1.082   .     S
C1427  C1435   1.413   .     A
C1427  C1429   1.395   .     A
C1428  C1436   1.409   .     A
C1428  H1448   1.081   .     S
C1428  C1430   1.387   .     A
C1429  H1540   1.083   .     S
C1430  H1633   1.083   1_455 S
C1431  H1444   1.079   .     S
C1431  C1433   1.408   .     A
C1432  C1434   1.411   .     A
C1432  H1443   1.080   .     S
C1433  C1437   1.423   .     A
C1433  C1435   1.417   .     A
C1434  C1436   1.421   .     A
C1434  C1438   1.426   .     A
C1435  C595    1.407   1_556 S
C1437  C1440   1.424   .     A
C1437  C592    1.417   1_556 S
C1438  C1439   1.425   .     A
C1439  N1469   1.426   .     S
C1439  C1441   1.411   .     A
C1440  C1442   1.404   .     A
C1440  N1475   1.426   .     S
C1441  N1463   1.434   .     S
C1442  N1466   1.434   .     S
C1442  C590    1.404   1_556 S
H1445  C1524   1.083   .     S
H1446  C1617   1.083   1_455 S
C1449  N1481   1.439   .     S
C1449  C1548   1.409   .     S
C1450  N1484   1.438   .     S
C1450  C888    1.395   1_565 S
C1450  C1641   1.408   1_455 S
C1451  N1487   1.436   .     S
C1451  C1453   1.407   .     A
C1451  C885    1.398   1_565 S
C1452  N1490   1.435   .     S
C1452  C1454   1.405   .     A
C1453  C1544   1.408   .     S
C1454  C1637   1.409   1_455 S
C1455  H1457   1.081   .     S
C1455  N1462   1.362   .     A
C1455  C1459   1.421   .     A
C1456  H1458   1.082   .     S
C1456  N1461   1.358   .     A
C1456  C1460   1.420   .     A
C1459  N1461   1.379   .     A
C1459  N1493   1.417   .     S
C1460  N1462   1.384   .     A
C1460  N1499   1.422   .     S
N1463  O1465   1.301   .     A
N1463  O1464   1.301   .     A
N1466  O1467   1.299   .     A
N1466  O1468   1.300   .     A
N1469  H1470   1.030   .     S
N1469  C1471   1.448   .     S
C1471  H1473   1.111   .     S
C1471  H1474   1.112   .     S
C1471  H1472   1.109   .     S
N1475  C1477   1.446   .     S
N1475  H1476   1.026   .     S
C1477  H1478   1.111   .     S
C1477  H1479   1.111   .     S
C1477  H1480   1.111   .     S
N1481  O1483   1.301   .     A
N1481  O1482   1.301   .     A
N1484  O1486   1.301   .     A
N1484  O1485   1.301   .     A
N1487  O1488   1.300   .     A
N1487  O1489   1.301   .     A
N1490  O1492   1.301   .     A
N1490  O1491   1.302   .     A
N1493  H1494   1.032   .     S
N1493  C1495   1.442   .     S
C1495  H1497   1.110   .     S
C1495  H1496   1.110   .     S
C1495  H1498   1.110   .     S
N1499  C1501   1.449   .     S
N1499  H1500   1.026   .     S
C1501  H1502   1.109   .     S
C1501  H1503   1.112   .     S
C1501  H1504   1.109   .     S
O1505  C1509   1.292   .     A
O1505  Cu1517  1.959   .     S
O1506  C1510   1.292   .     A
O1506  Cu1518  1.959   .     S
O1507  Cu1518  1.949   .     S
O1507  C1603   1.293   .     S
O1508  Cu1517  1.949   .     S
C1509  C1548   1.443   .     S
C1510  C1547   1.443   .     S
C1510  O1602   1.293   .     S
O1511  Cu1517  1.938   .     S
O1512  Cu1518  1.938   .     S
O1512  C1610   1.300   .     S
O1513  Cu1518  1.931   .     S
O1513  C1515   1.299   .     A
O1514  C1516   1.300   .     A
O1514  Cu1517  1.931   .     S
C1515  C1519   1.466   .     S
C1515  O1605   1.300   .     S
C1516  C1520   1.466   .     S
Cu1517 N1555   2.025   .     S
Cu1518 N1556   2.025   .     S
Cu1518 Cu1611  2.694   .     S
C1519  C1523   1.396   .     A
C1519  C1525   1.392   .     A
C1520  C1524   1.395   .     A
C1520  C1526   1.399   .     A
C1521  H1541   1.082   .     S
C1521  C1529   1.413   .     A
C1521  C1523   1.395   .     A
C1522  C1530   1.409   .     A
C1522  H1542   1.081   .     S
C1522  C1524   1.387   .     A
C1523  H1634   1.083   .     S
C1525  H1538   1.079   .     S
C1525  C1527   1.408   .     A
C1526  C1528   1.411   .     A
C1526  H1537   1.080   .     S
C1527  C1531   1.423   .     A
C1527  C1529   1.417   .     A
C1528  C1530   1.421   .     A
C1528  C1532   1.426   .     A
C1529  C689    1.407   1_556 S
C1531  C1534   1.424   .     A
C1531  C686    1.417   1_556 S
C1532  C1533   1.425   .     A
C1533  N1563   1.426   .     S
C1533  C1535   1.411   .     A
C1534  C1536   1.404   .     A
C1534  N1569   1.426   .     S
C1535  N1557   1.434   .     S
C1536  N1560   1.434   .     S
C1536  C684    1.404   1_556 S
H1539  C1618   1.083   .     S
C1543  N1575   1.439   .     S
C1543  C1642   1.409   .     S
C1544  N1578   1.438   .     S
C1544  C982    1.395   1_565 S
C1545  N1581   1.436   .     S
C1545  C1547   1.407   .     A
C1545  C979    1.398   1_565 S
C1546  N1584   1.435   .     S
C1546  C1548   1.405   .     A
C1547  C1638   1.408   .     S
C1549  H1551   1.081   .     S
C1549  N1556   1.362   .     A
C1549  C1553   1.421   .     A
C1550  H1552   1.082   .     S
C1550  N1555   1.358   .     A
C1550  C1554   1.420   .     A
C1553  N1555   1.379   .     A
C1553  N1587   1.417   .     S
C1554  N1556   1.384   .     A
C1554  N1593   1.422   .     S
N1557  O1559   1.301   .     A
N1557  O1558   1.301   .     A
N1560  O1561   1.299   .     A
N1560  O1562   1.300   .     A
N1563  H1564   1.030   .     S
N1563  C1565   1.448   .     S
C1565  H1567   1.111   .     S
C1565  H1568   1.112   .     S
C1565  H1566   1.109   .     S
N1569  C1571   1.446   .     S
N1569  H1570   1.026   .     S
C1571  H1572   1.111   .     S
C1571  H1573   1.111   .     S
C1571  H1574   1.111   .     S
N1575  O1577   1.301   .     A
N1575  O1576   1.301   .     A
N1578  O1580   1.301   .     A
N1578  O1579   1.301   .     A
N1581  O1582   1.300   .     A
N1581  O1583   1.301   .     A
N1584  O1586   1.301   .     A
N1584  O1585   1.302   .     A
N1587  H1588   1.032   .     S
N1587  C1589   1.442   .     S
C1589  H1591   1.110   .     S
C1589  H1590   1.110   .     S
C1589  H1592   1.110   .     S
N1593  C1595   1.449   .     S
N1593  H1594   1.026   .     S
C1595  H1596   1.109   .     S
C1595  H1597   1.112   .     S
C1595  H1598   1.109   .     S
O1599  C1603   1.292   .     A
O1599  Cu1611  1.959   .     S
O1600  C1604   1.292   .     A
O1600  Cu1612  1.959   .     S
O1601  Cu1612  1.949   .     S
O1601  C1415   1.293   1_655 S
O1602  Cu1611  1.949   .     S
C1603  C1642   1.443   .     S
C1604  C1641   1.443   .     S
C1604  O1414   1.293   1_655 S
O1605  Cu1611  1.938   .     S
O1606  Cu1612  1.938   .     S
O1606  C1422   1.300   1_655 S
O1607  Cu1612  1.931   .     S
O1607  C1609   1.299   .     A
O1608  C1610   1.300   .     A
O1608  Cu1611  1.931   .     S
C1609  C1613   1.466   .     S
C1609  O1417   1.300   1_655 S
C1610  C1614   1.466   .     S
Cu1611 N1649   2.025   .     S
Cu1612 N1650   2.025   .     S
Cu1612 Cu1423  2.694   1_655 S
C1613  C1617   1.396   .     A
C1613  C1619   1.392   .     A
C1614  C1618   1.395   .     A
C1614  C1620   1.399   .     A
C1615  H1635   1.082   .     S
C1615  C1623   1.413   .     A
C1615  C1617   1.395   .     A
C1616  C1624   1.409   .     A
C1616  H1636   1.081   .     S
C1616  C1618   1.387   .     A
C1617  H1446   1.083   1_655 S
C1619  H1632   1.079   .     S
C1619  C1621   1.408   .     A
C1620  C1622   1.411   .     A
C1620  H1631   1.080   .     S
C1621  C1625   1.423   .     A
C1621  C1623   1.417   .     A
C1622  C1624   1.421   .     A
C1622  C1626   1.426   .     A
C1623  C783    1.407   1_556 S
C1625  C1628   1.424   .     A
C1625  C780    1.417   1_556 S
C1626  C1627   1.425   .     A
C1627  N1657   1.426   .     S
C1627  C1629   1.411   .     A
C1628  C1630   1.404   .     A
C1628  N1663   1.426   .     S
C1629  N1651   1.434   .     S
C1630  N1654   1.434   .     S
C1630  C778    1.404   1_556 S
H1633  C1430   1.083   1_655 S
C1637  N1669   1.439   .     S
C1637  C1454   1.409   1_655 S
C1638  N1672   1.438   .     S
C1638  C1076   1.395   1_565 S
C1639  N1675   1.436   .     S
C1639  C1641   1.407   .     A
C1639  C1073   1.398   1_565 S
C1640  N1678   1.435   .     S
C1640  C1642   1.405   .     A
C1641  C1450   1.408   1_655 S
C1643  H1645   1.081   .     S
C1643  N1650   1.362   .     A
C1643  C1647   1.421   .     A
C1644  H1646   1.082   .     S
C1644  N1649   1.358   .     A
C1644  C1648   1.420   .     A
C1647  N1649   1.379   .     A
C1647  N1681   1.417   .     S
C1648  N1650   1.384   .     A
C1648  N1687   1.422   .     S
N1651  O1653   1.301   .     A
N1651  O1652   1.301   .     A
N1654  O1655   1.299   .     A
N1654  O1656   1.300   .     A
N1657  H1658   1.030   .     S
N1657  C1659   1.448   .     S
C1659  H1661   1.111   .     S
C1659  H1662   1.112   .     S
C1659  H1660   1.109   .     S
N1663  C1665   1.446   .     S
N1663  H1664   1.026   .     S
C1665  H1666   1.111   .     S
C1665  H1667   1.111   .     S
C1665  H1668   1.111   .     S
N1669  O1671   1.301   .     A
N1669  O1670   1.301   .     A
N1672  O1674   1.301   .     A
N1672  O1673   1.301   .     A
N1675  O1676   1.300   .     A
N1675  O1677   1.301   .     A
N1678  O1680   1.301   .     A
N1678  O1679   1.302   .     A
N1681  H1682   1.032   .     S
N1681  C1683   1.442   .     S
C1683  H1685   1.110   .     S
C1683  H1684   1.110   .     S
C1683  H1686   1.110   .     S
N1687  C1689   1.449   .     S
N1687  H1688   1.026   .     S
C1689  H1690   1.109   .     S
C1689  H1691   1.112   .     S
C1689  H1692   1.109   .     S
