data_str_m2_o1_o10_pcu_sym.85
_audit_creation_date              2020-01-03
_audit_creation_method            'Materials Studio'
_symmetry_space_group_name_H-M    'P1'
_symmetry_Int_Tables_number       1
_symmetry_cell_setting            triclinic
loop_
_symmetry_equiv_pos_as_xyz
  x,y,z
_cell_length_a                    26.5861
_cell_length_b                    32.8743
_cell_length_c                    28.9590
_cell_angle_alpha                 89.9798
_cell_angle_beta                  96.6462
_cell_angle_gamma                 91.3550
loop_
_atom_site_label
_atom_site_type_symbol
_atom_site_fract_x
_atom_site_fract_y
_atom_site_fract_z
_atom_site_U_iso_or_equiv
_atom_site_adp_type
_atom_site_occupancy
C1     C     0.16408   0.08752   0.16672   0.00000  Uiso   1.00
C2     C     0.18117   0.02192   0.20789   0.00000  Uiso   1.00
C3     C     0.16299   0.29082   0.16683   0.00000  Uiso   1.00
C4     C     0.16051   0.04275   0.16800   0.00000  Uiso   1.00
C5     C     0.14148   0.13687   0.02089   0.00000  Uiso   1.00
C6     C     0.19731   0.19314   0.31176   0.00000  Uiso   1.00
C7     C     0.13871   0.13855   0.30481   0.00000  Uiso   1.00
C8     C     0.19564   0.19478   0.02804   0.00000  Uiso   1.00
C9     C     0.00629   0.13016   0.07500   0.00000  Uiso   1.00
C10    C     0.29692   0.11265   0.04152   0.00000  Uiso   1.00
C11    C     0.33299   0.23848   0.20898   0.00000  Uiso   1.00
C12    C     0.16553   0.24591   0.16657   0.00000  Uiso   1.00
C13    C     0.02287   0.26552   0.24839   0.00000  Uiso   1.00
C14    C     0.12749   0.29553   0.05278   0.00000  Uiso   1.00
C15    C     0.10245   0.26475   0.01809   0.00000  Uiso   1.00
C16    C     0.23834   0.04554   0.26910   0.00000  Uiso   1.00
C17    C     0.24280   0.03268   0.32006   0.00000  Uiso   1.00
C18    C     0.06429   0.10308   0.27918   0.00000  Uiso   1.00
C19    C     0.05011   0.05817   0.28221   0.00000  Uiso   1.00
C20    C     0.26715   0.23089   0.06301   0.00000  Uiso   1.00
C21    C     0.28756   0.27441   0.05918   0.00000  Uiso   1.00
C22    C     0.06821   0.16610   0.15477   0.00000  Uiso   1.00
C23    C     0.26500   0.16785   0.17813   0.00000  Uiso   1.00
C24    C     0.01288   0.16362   0.14783   0.00000  Uiso   1.00
C25    C     0.31980   0.17403   0.18304   0.00000  Uiso   1.00
C26    C     0.13127   0.02080   0.13234   0.00000  Uiso   1.00
C27    C     0.18257   0.31271   0.20682   0.00000  Uiso   1.00
C28    C     0.13587   0.31154   0.12975   0.00000  Uiso   1.00
Cu29   Cu    0.16667   0.16667   0.21355   0.00000  Uiso   1.00
Cu30   Cu    0.16667   0.16666   0.11978   0.00000  Uiso   1.00
H31    H     0.02458   0.10474   0.09510   0.00000  Uiso   1.00
H32    H     0.01531   0.29791   0.23981   0.00000  Uiso   1.00
H33    H     0.06820   0.05314   0.12819   0.00000  Uiso   1.00
H34    H     0.06684   0.02055   0.08490   0.00000  Uiso   1.00
H35    H     0.17881   0.29844   0.27402   0.00000  Uiso   1.00
H36    H     0.23908   0.29816   0.25675   0.00000  Uiso   1.00
H37    H     0.16914   0.29173   0.05654   0.00000  Uiso   1.00
H38    H     0.11966   0.32646   0.03865   0.00000  Uiso   1.00
H39    H     0.06203   0.27227   0.00998   0.00000  Uiso   1.00
H40    H     0.12158   0.26548   0.31943   0.00000  Uiso   1.00
H41    H     0.10454   0.23369   0.03302   0.00000  Uiso   1.00
H42    H     0.03229   0.14646   0.05360   0.00000  Uiso   1.00
H43    H     0.25049   0.07804   0.26751   0.00000  Uiso   1.00
H44    H     0.26482   0.02797   0.25010   0.00000  Uiso   1.00
H45    H     0.28309   0.03048   0.00113   0.00000  Uiso   1.00
H46    H     0.22310   0.05480   0.00675   0.00000  Uiso   1.00
H47    H     0.22481   0.00263   0.32477   0.00000  Uiso   1.00
H48    H     0.15130   0.08193   0.05047   0.00000  Uiso   1.00
H49    H     0.10129   0.10883   0.06671   0.00000  Uiso   1.00
H50    H     0.23653   0.24563   0.30720   0.00000  Uiso   1.00
H51    H     0.26816   0.20379   0.29652   0.00000  Uiso   1.00
H52    H     0.04476   0.11519   0.24630   0.00000  Uiso   1.00
H53    H     0.27598   0.13723   0.02203   0.00000  Uiso   1.00
H54    H     0.04992   0.11977   0.30826   0.00000  Uiso   1.00
H55    H     0.06885   0.04489   0.31482   0.00000  Uiso   1.00
H56    H     0.00877   0.05460   0.28194   0.00000  Uiso   1.00
H57    H     0.06189   0.04147   0.25203   0.00000  Uiso   1.00
H58    H     0.28755   0.21043   0.04142   0.00000  Uiso   1.00
H59    H     0.27645   0.22308   0.09992   0.00000  Uiso   1.00
H60    H     0.26569   0.29558   0.07859   0.00000  Uiso   1.00
H61    H     0.32787   0.27618   0.07444   0.00000  Uiso   1.00
H62    H     0.28581   0.28431   0.02253   0.00000  Uiso   1.00
H63    H     0.31330   0.09317   0.01628   0.00000  Uiso   1.00
H64    H     0.27058   0.09473   0.06113   0.00000  Uiso   1.00
H65    H     0.29163   0.24453   0.20354   0.00000  Uiso   1.00
H66    H     0.01704   0.24737   0.17708   0.00000  Uiso   1.00
H67    H     0.00568   0.25754   0.28041   0.00000  Uiso   1.00
H68    H     0.06437   0.26132   0.25355   0.00000  Uiso   1.00
N69    N     0.16668   0.16668   0.28403   0.00000  Uiso   1.00
N70    N     0.16665   0.16666   0.04931   0.00000  Uiso   1.00
N71    N     0.09095   0.04101   0.10476   0.00000  Uiso   1.00
N72    N     0.20074   0.29120   0.24769   0.00000  Uiso   1.00
N73    N     0.12131   0.10095   0.03965   0.00000  Uiso   1.00
N74    N     0.23305   0.21764   0.29055   0.00000  Uiso   1.00
O75    O     0.16666   0.10655   0.20625   0.00000  Uiso   1.00
O76    O     0.00872   0.19711   0.22027   0.00000  Uiso   1.00
O77    O     0.10730   0.28937   0.09525   0.00000  Uiso   1.00
O78    O     0.18705   0.04191   0.25043   0.00000  Uiso   1.00
O79    O     0.11712   0.10656   0.27790   0.00000  Uiso   1.00
O80    O     0.21381   0.22945   0.05256   0.00000  Uiso   1.00
O81    O     0.16667   0.22678   0.12709   0.00000  Uiso   1.00
O82    O     0.16666   0.10654   0.12706   0.00000  Uiso   1.00
O83    O     0.16667   0.22679   0.20628   0.00000  Uiso   1.00
O84    O     0.09161   0.16667   0.19712   0.00000  Uiso   1.00
O85    O     0.24172   0.16666   0.13621   0.00000  Uiso   1.00
O86    O     0.09161   0.16666   0.11793   0.00000  Uiso   1.00
O87    O     0.24172   0.16667   0.21540   0.00000  Uiso   1.00
O88    O     0.31948   0.15818   0.10375   0.00000  Uiso   1.00
C89    C     0.49742   0.08752   0.16672   0.00000  Uiso   1.00
C90    C     0.51451   0.02192   0.20789   0.00000  Uiso   1.00
C91    C     0.49633   0.29082   0.16683   0.00000  Uiso   1.00
C92    C     0.49384   0.04275   0.16800   0.00000  Uiso   1.00
C93    C     0.47481   0.13687   0.02089   0.00000  Uiso   1.00
C94    C     0.53064   0.19314   0.31176   0.00000  Uiso   1.00
C95    C     0.47204   0.13855   0.30481   0.00000  Uiso   1.00
C96    C     0.52897   0.19478   0.02804   0.00000  Uiso   1.00
C97    C     0.33962   0.13016   0.07500   0.00000  Uiso   1.00
C98    C     0.63026   0.11265   0.04152   0.00000  Uiso   1.00
C99    C     0.66632   0.23848   0.20898   0.00000  Uiso   1.00
C100   C     0.49886   0.24591   0.16657   0.00000  Uiso   1.00
C101   C     0.35620   0.26552   0.24839   0.00000  Uiso   1.00
C102   C     0.46082   0.29553   0.05278   0.00000  Uiso   1.00
C103   C     0.43578   0.26475   0.01809   0.00000  Uiso   1.00
C104   C     0.57168   0.04554   0.26910   0.00000  Uiso   1.00
C105   C     0.57614   0.03268   0.32006   0.00000  Uiso   1.00
C106   C     0.39762   0.10308   0.27918   0.00000  Uiso   1.00
C107   C     0.38344   0.05817   0.28221   0.00000  Uiso   1.00
C108   C     0.60048   0.23089   0.06301   0.00000  Uiso   1.00
C109   C     0.62090   0.27441   0.05918   0.00000  Uiso   1.00
C110   C     0.40155   0.16610   0.15477   0.00000  Uiso   1.00
C111   C     0.59833   0.16785   0.17813   0.00000  Uiso   1.00
C112   C     0.34621   0.16362   0.14783   0.00000  Uiso   1.00
C113   C     0.65313   0.17403   0.18304   0.00000  Uiso   1.00
C114   C     0.46461   0.02080   0.13234   0.00000  Uiso   1.00
C115   C     0.51590   0.31271   0.20682   0.00000  Uiso   1.00
C116   C     0.46921   0.31154   0.12975   0.00000  Uiso   1.00
Cu117  Cu    0.50000   0.16667   0.21355   0.00000  Uiso   1.00
Cu118  Cu    0.50000   0.16666   0.11978   0.00000  Uiso   1.00
H119   H     0.35791   0.10474   0.09510   0.00000  Uiso   1.00
H120   H     0.34864   0.29791   0.23981   0.00000  Uiso   1.00
H121   H     0.40153   0.05314   0.12819   0.00000  Uiso   1.00
H122   H     0.40018   0.02055   0.08490   0.00000  Uiso   1.00
H123   H     0.51214   0.29844   0.27402   0.00000  Uiso   1.00
H124   H     0.57241   0.29816   0.25675   0.00000  Uiso   1.00
H125   H     0.50247   0.29173   0.05654   0.00000  Uiso   1.00
H126   H     0.45300   0.32646   0.03865   0.00000  Uiso   1.00
H127   H     0.39536   0.27227   0.00998   0.00000  Uiso   1.00
H128   H     0.45491   0.26548   0.31943   0.00000  Uiso   1.00
H129   H     0.43787   0.23369   0.03302   0.00000  Uiso   1.00
H130   H     0.36562   0.14646   0.05360   0.00000  Uiso   1.00
H131   H     0.58383   0.07804   0.26751   0.00000  Uiso   1.00
H132   H     0.59816   0.02797   0.25010   0.00000  Uiso   1.00
H133   H     0.61643   0.03048   0.00113   0.00000  Uiso   1.00
H134   H     0.55643   0.05480   0.00675   0.00000  Uiso   1.00
H135   H     0.55815   0.00263   0.32477   0.00000  Uiso   1.00
H136   H     0.48463   0.08193   0.05047   0.00000  Uiso   1.00
H137   H     0.43463   0.10883   0.06671   0.00000  Uiso   1.00
H138   H     0.56986   0.24563   0.30720   0.00000  Uiso   1.00
H139   H     0.60149   0.20379   0.29652   0.00000  Uiso   1.00
H140   H     0.37809   0.11519   0.24630   0.00000  Uiso   1.00
H141   H     0.60932   0.13723   0.02203   0.00000  Uiso   1.00
H142   H     0.38325   0.11977   0.30826   0.00000  Uiso   1.00
H143   H     0.40219   0.04489   0.31482   0.00000  Uiso   1.00
H144   H     0.34210   0.05460   0.28194   0.00000  Uiso   1.00
H145   H     0.39522   0.04147   0.25203   0.00000  Uiso   1.00
H146   H     0.62089   0.21043   0.04142   0.00000  Uiso   1.00
H147   H     0.60979   0.22308   0.09992   0.00000  Uiso   1.00
H148   H     0.59902   0.29558   0.07859   0.00000  Uiso   1.00
H149   H     0.66120   0.27618   0.07444   0.00000  Uiso   1.00
H150   H     0.61915   0.28431   0.02253   0.00000  Uiso   1.00
H151   H     0.64663   0.09317   0.01628   0.00000  Uiso   1.00
H152   H     0.60392   0.09473   0.06113   0.00000  Uiso   1.00
H153   H     0.62497   0.24453   0.20354   0.00000  Uiso   1.00
H154   H     0.35038   0.24737   0.17708   0.00000  Uiso   1.00
H155   H     0.33901   0.25754   0.28041   0.00000  Uiso   1.00
H156   H     0.39771   0.26132   0.25355   0.00000  Uiso   1.00
N157   N     0.50001   0.16668   0.28403   0.00000  Uiso   1.00
N158   N     0.49999   0.16666   0.04931   0.00000  Uiso   1.00
N159   N     0.42429   0.04101   0.10476   0.00000  Uiso   1.00
N160   N     0.53408   0.29120   0.24769   0.00000  Uiso   1.00
N161   N     0.45465   0.10095   0.03965   0.00000  Uiso   1.00
N162   N     0.56639   0.21764   0.29055   0.00000  Uiso   1.00
O163   O     0.50000   0.10655   0.20625   0.00000  Uiso   1.00
O164   O     0.34206   0.19711   0.22027   0.00000  Uiso   1.00
O165   O     0.44063   0.28937   0.09525   0.00000  Uiso   1.00
O166   O     0.52039   0.04191   0.25043   0.00000  Uiso   1.00
O167   O     0.45046   0.10656   0.27790   0.00000  Uiso   1.00
O168   O     0.54715   0.22945   0.05256   0.00000  Uiso   1.00
O169   O     0.50000   0.22678   0.12709   0.00000  Uiso   1.00
O170   O     0.50000   0.10654   0.12706   0.00000  Uiso   1.00
O171   O     0.50000   0.22679   0.20628   0.00000  Uiso   1.00
O172   O     0.42495   0.16667   0.19712   0.00000  Uiso   1.00
O173   O     0.57505   0.16666   0.13621   0.00000  Uiso   1.00
O174   O     0.42494   0.16666   0.11793   0.00000  Uiso   1.00
O175   O     0.57506   0.16667   0.21540   0.00000  Uiso   1.00
O176   O     0.65282   0.15818   0.10375   0.00000  Uiso   1.00
C177   C     0.83075   0.08752   0.16672   0.00000  Uiso   1.00
C178   C     0.84784   0.02192   0.20789   0.00000  Uiso   1.00
C179   C     0.82966   0.29082   0.16683   0.00000  Uiso   1.00
C180   C     0.82717   0.04275   0.16800   0.00000  Uiso   1.00
C181   C     0.80814   0.13687   0.02089   0.00000  Uiso   1.00
C182   C     0.86397   0.19314   0.31176   0.00000  Uiso   1.00
C183   C     0.80537   0.13855   0.30481   0.00000  Uiso   1.00
C184   C     0.86231   0.19478   0.02804   0.00000  Uiso   1.00
C185   C     0.67296   0.13016   0.07500   0.00000  Uiso   1.00
C186   C     0.96359   0.11265   0.04152   0.00000  Uiso   1.00
C187   C     0.99966   0.23848   0.20898   0.00000  Uiso   1.00
C188   C     0.83219   0.24591   0.16657   0.00000  Uiso   1.00
C189   C     0.68953   0.26552   0.24839   0.00000  Uiso   1.00
C190   C     0.79415   0.29553   0.05278   0.00000  Uiso   1.00
C191   C     0.76912   0.26475   0.01809   0.00000  Uiso   1.00
C192   C     0.90501   0.04554   0.26910   0.00000  Uiso   1.00
C193   C     0.90947   0.03268   0.32006   0.00000  Uiso   1.00
C194   C     0.73096   0.10308   0.27918   0.00000  Uiso   1.00
C195   C     0.71678   0.05817   0.28221   0.00000  Uiso   1.00
C196   C     0.93382   0.23089   0.06301   0.00000  Uiso   1.00
C197   C     0.95423   0.27441   0.05918   0.00000  Uiso   1.00
C198   C     0.73488   0.16610   0.15477   0.00000  Uiso   1.00
C199   C     0.93166   0.16785   0.17813   0.00000  Uiso   1.00
C200   C     0.67955   0.16362   0.14783   0.00000  Uiso   1.00
C201   C     0.98647   0.17403   0.18304   0.00000  Uiso   1.00
C202   C     0.79794   0.02080   0.13234   0.00000  Uiso   1.00
C203   C     0.84923   0.31271   0.20682   0.00000  Uiso   1.00
C204   C     0.80254   0.31154   0.12975   0.00000  Uiso   1.00
Cu205  Cu    0.83333   0.16667   0.21355   0.00000  Uiso   1.00
Cu206  Cu    0.83333   0.16666   0.11978   0.00000  Uiso   1.00
H207   H     0.69124   0.10474   0.09510   0.00000  Uiso   1.00
H208   H     0.68197   0.29791   0.23981   0.00000  Uiso   1.00
H209   H     0.73487   0.05314   0.12819   0.00000  Uiso   1.00
H210   H     0.73351   0.02055   0.08490   0.00000  Uiso   1.00
H211   H     0.84547   0.29844   0.27402   0.00000  Uiso   1.00
H212   H     0.90575   0.29816   0.25675   0.00000  Uiso   1.00
H213   H     0.83580   0.29173   0.05654   0.00000  Uiso   1.00
H214   H     0.78633   0.32646   0.03865   0.00000  Uiso   1.00
H215   H     0.72869   0.27227   0.00998   0.00000  Uiso   1.00
H216   H     0.78824   0.26548   0.31943   0.00000  Uiso   1.00
H217   H     0.77120   0.23369   0.03302   0.00000  Uiso   1.00
H218   H     0.69895   0.14646   0.05360   0.00000  Uiso   1.00
H219   H     0.91716   0.07804   0.26751   0.00000  Uiso   1.00
H220   H     0.93149   0.02797   0.25010   0.00000  Uiso   1.00
H221   H     0.94976   0.03048   0.00113   0.00000  Uiso   1.00
H222   H     0.88976   0.05480   0.00675   0.00000  Uiso   1.00
H223   H     0.89148   0.00263   0.32477   0.00000  Uiso   1.00
H224   H     0.81797   0.08193   0.05047   0.00000  Uiso   1.00
H225   H     0.76796   0.10883   0.06671   0.00000  Uiso   1.00
H226   H     0.90320   0.24563   0.30720   0.00000  Uiso   1.00
H227   H     0.93483   0.20379   0.29652   0.00000  Uiso   1.00
H228   H     0.71143   0.11519   0.24630   0.00000  Uiso   1.00
H229   H     0.94265   0.13723   0.02203   0.00000  Uiso   1.00
H230   H     0.71658   0.11977   0.30826   0.00000  Uiso   1.00
H231   H     0.73552   0.04489   0.31482   0.00000  Uiso   1.00
H232   H     0.67543   0.05460   0.28194   0.00000  Uiso   1.00
H233   H     0.72856   0.04147   0.25203   0.00000  Uiso   1.00
H234   H     0.95422   0.21043   0.04142   0.00000  Uiso   1.00
H235   H     0.94312   0.22308   0.09992   0.00000  Uiso   1.00
H236   H     0.93235   0.29558   0.07859   0.00000  Uiso   1.00
H237   H     0.99453   0.27618   0.07444   0.00000  Uiso   1.00
H238   H     0.95248   0.28431   0.02253   0.00000  Uiso   1.00
H239   H     0.97997   0.09317   0.01628   0.00000  Uiso   1.00
H240   H     0.93725   0.09473   0.06113   0.00000  Uiso   1.00
H241   H     0.95830   0.24453   0.20354   0.00000  Uiso   1.00
H242   H     0.68371   0.24737   0.17708   0.00000  Uiso   1.00
H243   H     0.67234   0.25754   0.28041   0.00000  Uiso   1.00
H244   H     0.73104   0.26132   0.25355   0.00000  Uiso   1.00
N245   N     0.83335   0.16668   0.28403   0.00000  Uiso   1.00
N246   N     0.83332   0.16666   0.04931   0.00000  Uiso   1.00
N247   N     0.75762   0.04101   0.10476   0.00000  Uiso   1.00
N248   N     0.86741   0.29120   0.24769   0.00000  Uiso   1.00
N249   N     0.78798   0.10095   0.03965   0.00000  Uiso   1.00
N250   N     0.89972   0.21764   0.29055   0.00000  Uiso   1.00
O251   O     0.83333   0.10655   0.20625   0.00000  Uiso   1.00
O252   O     0.67539   0.19711   0.22027   0.00000  Uiso   1.00
O253   O     0.77396   0.28937   0.09525   0.00000  Uiso   1.00
O254   O     0.85372   0.04191   0.25043   0.00000  Uiso   1.00
O255   O     0.78379   0.10656   0.27790   0.00000  Uiso   1.00
O256   O     0.88048   0.22945   0.05256   0.00000  Uiso   1.00
O257   O     0.83334   0.22678   0.12709   0.00000  Uiso   1.00
O258   O     0.83333   0.10654   0.12706   0.00000  Uiso   1.00
O259   O     0.83334   0.22679   0.20628   0.00000  Uiso   1.00
O260   O     0.75828   0.16667   0.19712   0.00000  Uiso   1.00
O261   O     0.90839   0.16666   0.13621   0.00000  Uiso   1.00
O262   O     0.75828   0.16666   0.11793   0.00000  Uiso   1.00
O263   O     0.90839   0.16667   0.21540   0.00000  Uiso   1.00
O264   O     0.98615   0.15818   0.10375   0.00000  Uiso   1.00
C265   C     0.16408   0.42085   0.16672   0.00000  Uiso   1.00
C266   C     0.18117   0.35525   0.20789   0.00000  Uiso   1.00
C267   C     0.16299   0.62415   0.16683   0.00000  Uiso   1.00
C268   C     0.16051   0.37609   0.16800   0.00000  Uiso   1.00
C269   C     0.14148   0.47020   0.02089   0.00000  Uiso   1.00
C270   C     0.19731   0.52647   0.31176   0.00000  Uiso   1.00
C271   C     0.13871   0.47189   0.30481   0.00000  Uiso   1.00
C272   C     0.19564   0.52811   0.02804   0.00000  Uiso   1.00
C273   C     0.00629   0.46349   0.07500   0.00000  Uiso   1.00
C274   C     0.29692   0.44598   0.04152   0.00000  Uiso   1.00
C275   C     0.33299   0.57181   0.20898   0.00000  Uiso   1.00
C276   C     0.16553   0.57924   0.16657   0.00000  Uiso   1.00
C277   C     0.02287   0.59886   0.24839   0.00000  Uiso   1.00
C278   C     0.12749   0.62886   0.05278   0.00000  Uiso   1.00
C279   C     0.10245   0.59809   0.01809   0.00000  Uiso   1.00
C280   C     0.23834   0.37888   0.26910   0.00000  Uiso   1.00
C281   C     0.24280   0.36602   0.32006   0.00000  Uiso   1.00
C282   C     0.06429   0.43642   0.27918   0.00000  Uiso   1.00
C283   C     0.05011   0.39151   0.28221   0.00000  Uiso   1.00
C284   C     0.26715   0.56423   0.06301   0.00000  Uiso   1.00
C285   C     0.28756   0.60774   0.05918   0.00000  Uiso   1.00
C286   C     0.06821   0.49943   0.15477   0.00000  Uiso   1.00
C287   C     0.26500   0.50118   0.17813   0.00000  Uiso   1.00
C288   C     0.01288   0.49696   0.14783   0.00000  Uiso   1.00
C289   C     0.31980   0.50736   0.18304   0.00000  Uiso   1.00
C290   C     0.13127   0.35413   0.13234   0.00000  Uiso   1.00
C291   C     0.18257   0.64604   0.20682   0.00000  Uiso   1.00
C292   C     0.13587   0.64488   0.12975   0.00000  Uiso   1.00
Cu293  Cu    0.16667   0.50001   0.21355   0.00000  Uiso   1.00
Cu294  Cu    0.16667   0.49999   0.11978   0.00000  Uiso   1.00
H295   H     0.02458   0.43808   0.09510   0.00000  Uiso   1.00
H296   H     0.01531   0.63124   0.23981   0.00000  Uiso   1.00
H297   H     0.06820   0.38647   0.12819   0.00000  Uiso   1.00
H298   H     0.06684   0.35388   0.08490   0.00000  Uiso   1.00
H299   H     0.17881   0.63178   0.27402   0.00000  Uiso   1.00
H300   H     0.23908   0.63150   0.25675   0.00000  Uiso   1.00
H301   H     0.16914   0.62507   0.05654   0.00000  Uiso   1.00
H302   H     0.11966   0.65979   0.03865   0.00000  Uiso   1.00
H303   H     0.06203   0.60561   0.00998   0.00000  Uiso   1.00
H304   H     0.12158   0.59882   0.31943   0.00000  Uiso   1.00
H305   H     0.10454   0.56702   0.03302   0.00000  Uiso   1.00
H306   H     0.03229   0.47979   0.05360   0.00000  Uiso   1.00
H307   H     0.25049   0.41137   0.26751   0.00000  Uiso   1.00
H308   H     0.26482   0.36131   0.25010   0.00000  Uiso   1.00
H309   H     0.28309   0.36382   0.00113   0.00000  Uiso   1.00
H310   H     0.22310   0.38813   0.00675   0.00000  Uiso   1.00
H311   H     0.22481   0.33597   0.32477   0.00000  Uiso   1.00
H312   H     0.15130   0.41527   0.05047   0.00000  Uiso   1.00
H313   H     0.10129   0.44216   0.06671   0.00000  Uiso   1.00
H314   H     0.23653   0.57896   0.30720   0.00000  Uiso   1.00
H315   H     0.26816   0.53712   0.29652   0.00000  Uiso   1.00
H316   H     0.04476   0.44853   0.24630   0.00000  Uiso   1.00
H317   H     0.27598   0.47056   0.02203   0.00000  Uiso   1.00
H318   H     0.04992   0.45310   0.30826   0.00000  Uiso   1.00
H319   H     0.06885   0.37823   0.31482   0.00000  Uiso   1.00
H320   H     0.00877   0.38793   0.28194   0.00000  Uiso   1.00
H321   H     0.06189   0.37481   0.25203   0.00000  Uiso   1.00
H322   H     0.28755   0.54376   0.04142   0.00000  Uiso   1.00
H323   H     0.27645   0.55642   0.09992   0.00000  Uiso   1.00
H324   H     0.26569   0.62892   0.07859   0.00000  Uiso   1.00
H325   H     0.32787   0.60952   0.07444   0.00000  Uiso   1.00
H326   H     0.28581   0.61764   0.02253   0.00000  Uiso   1.00
H327   H     0.31330   0.42651   0.01628   0.00000  Uiso   1.00
H328   H     0.27058   0.42806   0.06113   0.00000  Uiso   1.00
H329   H     0.29163   0.57786   0.20354   0.00000  Uiso   1.00
H330   H     0.01704   0.58070   0.17708   0.00000  Uiso   1.00
H331   H     0.00568   0.59088   0.28041   0.00000  Uiso   1.00
H332   H     0.06437   0.59465   0.25355   0.00000  Uiso   1.00
N333   N     0.16668   0.50001   0.28403   0.00000  Uiso   1.00
N334   N     0.16665   0.49999   0.04931   0.00000  Uiso   1.00
N335   N     0.09095   0.37435   0.10476   0.00000  Uiso   1.00
N336   N     0.20074   0.62454   0.24769   0.00000  Uiso   1.00
N337   N     0.12131   0.43428   0.03965   0.00000  Uiso   1.00
N338   N     0.23305   0.55098   0.29055   0.00000  Uiso   1.00
O339   O     0.16666   0.43989   0.20625   0.00000  Uiso   1.00
O340   O     0.00872   0.53044   0.22027   0.00000  Uiso   1.00
O341   O     0.10730   0.62270   0.09525   0.00000  Uiso   1.00
O342   O     0.18705   0.37524   0.25043   0.00000  Uiso   1.00
O343   O     0.11712   0.43989   0.27790   0.00000  Uiso   1.00
O344   O     0.21381   0.56278   0.05256   0.00000  Uiso   1.00
O345   O     0.16667   0.56011   0.12709   0.00000  Uiso   1.00
O346   O     0.16666   0.43988   0.12706   0.00000  Uiso   1.00
O347   O     0.16667   0.56012   0.20628   0.00000  Uiso   1.00
O348   O     0.09161   0.50000   0.19712   0.00000  Uiso   1.00
O349   O     0.24172   0.50000   0.13621   0.00000  Uiso   1.00
O350   O     0.09161   0.49999   0.11793   0.00000  Uiso   1.00
O351   O     0.24172   0.50001   0.21540   0.00000  Uiso   1.00
O352   O     0.31948   0.49152   0.10375   0.00000  Uiso   1.00
C353   C     0.49742   0.42085   0.16672   0.00000  Uiso   1.00
C354   C     0.51451   0.35525   0.20789   0.00000  Uiso   1.00
C355   C     0.49633   0.62415   0.16683   0.00000  Uiso   1.00
C356   C     0.49384   0.37609   0.16800   0.00000  Uiso   1.00
C357   C     0.47481   0.47020   0.02089   0.00000  Uiso   1.00
C358   C     0.53064   0.52647   0.31176   0.00000  Uiso   1.00
C359   C     0.47204   0.47189   0.30481   0.00000  Uiso   1.00
C360   C     0.52897   0.52811   0.02804   0.00000  Uiso   1.00
C361   C     0.33962   0.46349   0.07500   0.00000  Uiso   1.00
C362   C     0.63026   0.44598   0.04152   0.00000  Uiso   1.00
C363   C     0.66632   0.57181   0.20898   0.00000  Uiso   1.00
C364   C     0.49886   0.57924   0.16657   0.00000  Uiso   1.00
C365   C     0.35620   0.59886   0.24839   0.00000  Uiso   1.00
C366   C     0.46082   0.62886   0.05278   0.00000  Uiso   1.00
C367   C     0.43578   0.59809   0.01809   0.00000  Uiso   1.00
C368   C     0.57168   0.37888   0.26910   0.00000  Uiso   1.00
C369   C     0.57614   0.36602   0.32006   0.00000  Uiso   1.00
C370   C     0.39762   0.43642   0.27918   0.00000  Uiso   1.00
C371   C     0.38344   0.39151   0.28221   0.00000  Uiso   1.00
C372   C     0.60048   0.56423   0.06301   0.00000  Uiso   1.00
C373   C     0.62090   0.60774   0.05918   0.00000  Uiso   1.00
C374   C     0.40155   0.49943   0.15477   0.00000  Uiso   1.00
C375   C     0.59833   0.50118   0.17813   0.00000  Uiso   1.00
C376   C     0.34621   0.49696   0.14783   0.00000  Uiso   1.00
C377   C     0.65313   0.50736   0.18304   0.00000  Uiso   1.00
C378   C     0.46461   0.35413   0.13234   0.00000  Uiso   1.00
C379   C     0.51590   0.64604   0.20682   0.00000  Uiso   1.00
C380   C     0.46921   0.64488   0.12975   0.00000  Uiso   1.00
Cu381  Cu    0.50000   0.50001   0.21355   0.00000  Uiso   1.00
Cu382  Cu    0.50000   0.49999   0.11978   0.00000  Uiso   1.00
H383   H     0.35791   0.43808   0.09510   0.00000  Uiso   1.00
H384   H     0.34864   0.63124   0.23981   0.00000  Uiso   1.00
H385   H     0.40153   0.38647   0.12819   0.00000  Uiso   1.00
H386   H     0.40018   0.35388   0.08490   0.00000  Uiso   1.00
H387   H     0.51214   0.63178   0.27402   0.00000  Uiso   1.00
H388   H     0.57241   0.63150   0.25675   0.00000  Uiso   1.00
H389   H     0.50247   0.62507   0.05654   0.00000  Uiso   1.00
H390   H     0.45300   0.65979   0.03865   0.00000  Uiso   1.00
H391   H     0.39536   0.60561   0.00998   0.00000  Uiso   1.00
H392   H     0.45491   0.59882   0.31943   0.00000  Uiso   1.00
H393   H     0.43787   0.56702   0.03302   0.00000  Uiso   1.00
H394   H     0.36562   0.47979   0.05360   0.00000  Uiso   1.00
H395   H     0.58383   0.41137   0.26751   0.00000  Uiso   1.00
H396   H     0.59816   0.36131   0.25010   0.00000  Uiso   1.00
H397   H     0.61643   0.36382   0.00113   0.00000  Uiso   1.00
H398   H     0.55643   0.38813   0.00675   0.00000  Uiso   1.00
H399   H     0.55815   0.33597   0.32477   0.00000  Uiso   1.00
H400   H     0.48463   0.41527   0.05047   0.00000  Uiso   1.00
H401   H     0.43463   0.44216   0.06671   0.00000  Uiso   1.00
H402   H     0.56986   0.57896   0.30720   0.00000  Uiso   1.00
H403   H     0.60149   0.53712   0.29652   0.00000  Uiso   1.00
H404   H     0.37809   0.44853   0.24630   0.00000  Uiso   1.00
H405   H     0.60932   0.47056   0.02203   0.00000  Uiso   1.00
H406   H     0.38325   0.45310   0.30826   0.00000  Uiso   1.00
H407   H     0.40219   0.37823   0.31482   0.00000  Uiso   1.00
H408   H     0.34210   0.38793   0.28194   0.00000  Uiso   1.00
H409   H     0.39522   0.37481   0.25203   0.00000  Uiso   1.00
H410   H     0.62089   0.54376   0.04142   0.00000  Uiso   1.00
H411   H     0.60979   0.55642   0.09992   0.00000  Uiso   1.00
H412   H     0.59902   0.62892   0.07859   0.00000  Uiso   1.00
H413   H     0.66120   0.60952   0.07444   0.00000  Uiso   1.00
H414   H     0.61915   0.61764   0.02253   0.00000  Uiso   1.00
H415   H     0.64663   0.42651   0.01628   0.00000  Uiso   1.00
H416   H     0.60392   0.42806   0.06113   0.00000  Uiso   1.00
H417   H     0.62497   0.57786   0.20354   0.00000  Uiso   1.00
H418   H     0.35038   0.58070   0.17708   0.00000  Uiso   1.00
H419   H     0.33901   0.59088   0.28041   0.00000  Uiso   1.00
H420   H     0.39771   0.59465   0.25355   0.00000  Uiso   1.00
N421   N     0.50001   0.50001   0.28403   0.00000  Uiso   1.00
N422   N     0.49999   0.49999   0.04931   0.00000  Uiso   1.00
N423   N     0.42429   0.37435   0.10476   0.00000  Uiso   1.00
N424   N     0.53408   0.62454   0.24769   0.00000  Uiso   1.00
N425   N     0.45465   0.43428   0.03965   0.00000  Uiso   1.00
N426   N     0.56639   0.55098   0.29055   0.00000  Uiso   1.00
O427   O     0.50000   0.43989   0.20625   0.00000  Uiso   1.00
O428   O     0.34206   0.53044   0.22027   0.00000  Uiso   1.00
O429   O     0.44063   0.62270   0.09525   0.00000  Uiso   1.00
O430   O     0.52039   0.37524   0.25043   0.00000  Uiso   1.00
O431   O     0.45046   0.43989   0.27790   0.00000  Uiso   1.00
O432   O     0.54715   0.56278   0.05256   0.00000  Uiso   1.00
O433   O     0.50000   0.56011   0.12709   0.00000  Uiso   1.00
O434   O     0.50000   0.43988   0.12706   0.00000  Uiso   1.00
O435   O     0.50000   0.56012   0.20628   0.00000  Uiso   1.00
O436   O     0.42495   0.50000   0.19712   0.00000  Uiso   1.00
O437   O     0.57505   0.50000   0.13621   0.00000  Uiso   1.00
O438   O     0.42494   0.49999   0.11793   0.00000  Uiso   1.00
O439   O     0.57506   0.50001   0.21540   0.00000  Uiso   1.00
O440   O     0.65282   0.49152   0.10375   0.00000  Uiso   1.00
C441   C     0.83075   0.42085   0.16672   0.00000  Uiso   1.00
C442   C     0.84784   0.35525   0.20789   0.00000  Uiso   1.00
C443   C     0.82966   0.62415   0.16683   0.00000  Uiso   1.00
C444   C     0.82717   0.37609   0.16800   0.00000  Uiso   1.00
C445   C     0.80814   0.47020   0.02089   0.00000  Uiso   1.00
C446   C     0.86397   0.52647   0.31176   0.00000  Uiso   1.00
C447   C     0.80537   0.47189   0.30481   0.00000  Uiso   1.00
C448   C     0.86231   0.52811   0.02804   0.00000  Uiso   1.00
C449   C     0.67296   0.46349   0.07500   0.00000  Uiso   1.00
C450   C     0.96359   0.44598   0.04152   0.00000  Uiso   1.00
C451   C     0.99966   0.57181   0.20898   0.00000  Uiso   1.00
C452   C     0.83219   0.57924   0.16657   0.00000  Uiso   1.00
C453   C     0.68953   0.59886   0.24839   0.00000  Uiso   1.00
C454   C     0.79415   0.62886   0.05278   0.00000  Uiso   1.00
C455   C     0.76912   0.59809   0.01809   0.00000  Uiso   1.00
C456   C     0.90501   0.37888   0.26910   0.00000  Uiso   1.00
C457   C     0.90947   0.36602   0.32006   0.00000  Uiso   1.00
C458   C     0.73096   0.43642   0.27918   0.00000  Uiso   1.00
C459   C     0.71678   0.39151   0.28221   0.00000  Uiso   1.00
C460   C     0.93382   0.56423   0.06301   0.00000  Uiso   1.00
C461   C     0.95423   0.60774   0.05918   0.00000  Uiso   1.00
C462   C     0.73488   0.49943   0.15477   0.00000  Uiso   1.00
C463   C     0.93166   0.50118   0.17813   0.00000  Uiso   1.00
C464   C     0.67955   0.49696   0.14783   0.00000  Uiso   1.00
C465   C     0.98647   0.50736   0.18304   0.00000  Uiso   1.00
C466   C     0.79794   0.35413   0.13234   0.00000  Uiso   1.00
C467   C     0.84923   0.64604   0.20682   0.00000  Uiso   1.00
C468   C     0.80254   0.64488   0.12975   0.00000  Uiso   1.00
Cu469  Cu    0.83333   0.50001   0.21355   0.00000  Uiso   1.00
Cu470  Cu    0.83333   0.49999   0.11978   0.00000  Uiso   1.00
H471   H     0.69124   0.43808   0.09510   0.00000  Uiso   1.00
H472   H     0.68197   0.63124   0.23981   0.00000  Uiso   1.00
H473   H     0.73487   0.38647   0.12819   0.00000  Uiso   1.00
H474   H     0.73351   0.35388   0.08490   0.00000  Uiso   1.00
H475   H     0.84547   0.63178   0.27402   0.00000  Uiso   1.00
H476   H     0.90575   0.63150   0.25675   0.00000  Uiso   1.00
H477   H     0.83580   0.62507   0.05654   0.00000  Uiso   1.00
H478   H     0.78633   0.65979   0.03865   0.00000  Uiso   1.00
H479   H     0.72869   0.60561   0.00998   0.00000  Uiso   1.00
H480   H     0.78824   0.59882   0.31943   0.00000  Uiso   1.00
H481   H     0.77120   0.56702   0.03302   0.00000  Uiso   1.00
H482   H     0.69895   0.47979   0.05360   0.00000  Uiso   1.00
H483   H     0.91716   0.41137   0.26751   0.00000  Uiso   1.00
H484   H     0.93149   0.36131   0.25010   0.00000  Uiso   1.00
H485   H     0.94976   0.36382   0.00113   0.00000  Uiso   1.00
H486   H     0.88976   0.38813   0.00675   0.00000  Uiso   1.00
H487   H     0.89148   0.33597   0.32477   0.00000  Uiso   1.00
H488   H     0.81797   0.41527   0.05047   0.00000  Uiso   1.00
H489   H     0.76796   0.44216   0.06671   0.00000  Uiso   1.00
H490   H     0.90320   0.57896   0.30720   0.00000  Uiso   1.00
H491   H     0.93483   0.53712   0.29652   0.00000  Uiso   1.00
H492   H     0.71143   0.44853   0.24630   0.00000  Uiso   1.00
H493   H     0.94265   0.47056   0.02203   0.00000  Uiso   1.00
H494   H     0.71658   0.45310   0.30826   0.00000  Uiso   1.00
H495   H     0.73552   0.37823   0.31482   0.00000  Uiso   1.00
H496   H     0.67543   0.38793   0.28194   0.00000  Uiso   1.00
H497   H     0.72856   0.37481   0.25203   0.00000  Uiso   1.00
H498   H     0.95422   0.54376   0.04142   0.00000  Uiso   1.00
H499   H     0.94312   0.55642   0.09992   0.00000  Uiso   1.00
H500   H     0.93235   0.62892   0.07859   0.00000  Uiso   1.00
H501   H     0.99453   0.60952   0.07444   0.00000  Uiso   1.00
H502   H     0.95248   0.61764   0.02253   0.00000  Uiso   1.00
H503   H     0.97997   0.42651   0.01628   0.00000  Uiso   1.00
H504   H     0.93725   0.42806   0.06113   0.00000  Uiso   1.00
H505   H     0.95830   0.57786   0.20354   0.00000  Uiso   1.00
H506   H     0.68371   0.58070   0.17708   0.00000  Uiso   1.00
H507   H     0.67234   0.59088   0.28041   0.00000  Uiso   1.00
H508   H     0.73104   0.59465   0.25355   0.00000  Uiso   1.00
N509   N     0.83335   0.50001   0.28403   0.00000  Uiso   1.00
N510   N     0.83332   0.49999   0.04931   0.00000  Uiso   1.00
N511   N     0.75762   0.37435   0.10476   0.00000  Uiso   1.00
N512   N     0.86741   0.62454   0.24769   0.00000  Uiso   1.00
N513   N     0.78798   0.43428   0.03965   0.00000  Uiso   1.00
N514   N     0.89972   0.55098   0.29055   0.00000  Uiso   1.00
O515   O     0.83333   0.43989   0.20625   0.00000  Uiso   1.00
O516   O     0.67539   0.53044   0.22027   0.00000  Uiso   1.00
O517   O     0.77396   0.62270   0.09525   0.00000  Uiso   1.00
O518   O     0.85372   0.37524   0.25043   0.00000  Uiso   1.00
O519   O     0.78379   0.43989   0.27790   0.00000  Uiso   1.00
O520   O     0.88048   0.56278   0.05256   0.00000  Uiso   1.00
O521   O     0.83334   0.56011   0.12709   0.00000  Uiso   1.00
O522   O     0.83333   0.43988   0.12706   0.00000  Uiso   1.00
O523   O     0.83334   0.56012   0.20628   0.00000  Uiso   1.00
O524   O     0.75828   0.50000   0.19712   0.00000  Uiso   1.00
O525   O     0.90839   0.50000   0.13621   0.00000  Uiso   1.00
O526   O     0.75828   0.49999   0.11793   0.00000  Uiso   1.00
O527   O     0.90839   0.50001   0.21540   0.00000  Uiso   1.00
O528   O     0.98615   0.49152   0.10375   0.00000  Uiso   1.00
C529   C     0.16408   0.75419   0.16672   0.00000  Uiso   1.00
C530   C     0.18117   0.68858   0.20789   0.00000  Uiso   1.00
C531   C     0.16299   0.95748   0.16683   0.00000  Uiso   1.00
C532   C     0.16051   0.70942   0.16800   0.00000  Uiso   1.00
C533   C     0.14148   0.80354   0.02089   0.00000  Uiso   1.00
C534   C     0.19731   0.85981   0.31176   0.00000  Uiso   1.00
C535   C     0.13871   0.80522   0.30481   0.00000  Uiso   1.00
C536   C     0.19564   0.86144   0.02804   0.00000  Uiso   1.00
C537   C     0.00629   0.79682   0.07500   0.00000  Uiso   1.00
C538   C     0.29692   0.77931   0.04152   0.00000  Uiso   1.00
C539   C     0.33299   0.90515   0.20898   0.00000  Uiso   1.00
C540   C     0.16553   0.91257   0.16657   0.00000  Uiso   1.00
C541   C     0.02287   0.93219   0.24839   0.00000  Uiso   1.00
C542   C     0.12749   0.96220   0.05278   0.00000  Uiso   1.00
C543   C     0.10245   0.93142   0.01809   0.00000  Uiso   1.00
C544   C     0.23834   0.71221   0.26910   0.00000  Uiso   1.00
C545   C     0.24280   0.69935   0.32006   0.00000  Uiso   1.00
C546   C     0.06429   0.76975   0.27918   0.00000  Uiso   1.00
C547   C     0.05011   0.72484   0.28221   0.00000  Uiso   1.00
C548   C     0.26715   0.89756   0.06301   0.00000  Uiso   1.00
C549   C     0.28756   0.94107   0.05918   0.00000  Uiso   1.00
C550   C     0.06821   0.83276   0.15477   0.00000  Uiso   1.00
C551   C     0.26500   0.83452   0.17813   0.00000  Uiso   1.00
C552   C     0.01288   0.83029   0.14783   0.00000  Uiso   1.00
C553   C     0.31980   0.84069   0.18304   0.00000  Uiso   1.00
C554   C     0.13127   0.68747   0.13234   0.00000  Uiso   1.00
C555   C     0.18257   0.97937   0.20682   0.00000  Uiso   1.00
C556   C     0.13587   0.97821   0.12975   0.00000  Uiso   1.00
Cu557  Cu    0.16667   0.83334   0.21355   0.00000  Uiso   1.00
Cu558  Cu    0.16667   0.83333   0.11978   0.00000  Uiso   1.00
H559   H     0.02458   0.77141   0.09510   0.00000  Uiso   1.00
H560   H     0.01531   0.96457   0.23981   0.00000  Uiso   1.00
H561   H     0.06820   0.71980   0.12819   0.00000  Uiso   1.00
H562   H     0.06684   0.68721   0.08490   0.00000  Uiso   1.00
H563   H     0.17881   0.96511   0.27402   0.00000  Uiso   1.00
H564   H     0.23908   0.96483   0.25675   0.00000  Uiso   1.00
H565   H     0.16914   0.95840   0.05654   0.00000  Uiso   1.00
H566   H     0.11966   0.99312   0.03865   0.00000  Uiso   1.00
H567   H     0.06203   0.93894   0.00998   0.00000  Uiso   1.00
H568   H     0.12158   0.93215   0.31943   0.00000  Uiso   1.00
H569   H     0.10454   0.90035   0.03302   0.00000  Uiso   1.00
H570   H     0.03229   0.81312   0.05360   0.00000  Uiso   1.00
H571   H     0.25049   0.74471   0.26751   0.00000  Uiso   1.00
H572   H     0.26482   0.69464   0.25010   0.00000  Uiso   1.00
H573   H     0.28309   0.69715   0.00113   0.00000  Uiso   1.00
H574   H     0.22310   0.72146   0.00675   0.00000  Uiso   1.00
H575   H     0.22481   0.66930   0.32477   0.00000  Uiso   1.00
H576   H     0.15130   0.74860   0.05047   0.00000  Uiso   1.00
H577   H     0.10129   0.77550   0.06671   0.00000  Uiso   1.00
H578   H     0.23653   0.91229   0.30720   0.00000  Uiso   1.00
H579   H     0.26816   0.87046   0.29652   0.00000  Uiso   1.00
H580   H     0.04476   0.78186   0.24630   0.00000  Uiso   1.00
H581   H     0.27598   0.80390   0.02203   0.00000  Uiso   1.00
H582   H     0.04992   0.78643   0.30826   0.00000  Uiso   1.00
H583   H     0.06885   0.71156   0.31482   0.00000  Uiso   1.00
H584   H     0.00877   0.72126   0.28194   0.00000  Uiso   1.00
H585   H     0.06189   0.70814   0.25203   0.00000  Uiso   1.00
H586   H     0.28755   0.87709   0.04142   0.00000  Uiso   1.00
H587   H     0.27645   0.88975   0.09992   0.00000  Uiso   1.00
H588   H     0.26569   0.96225   0.07859   0.00000  Uiso   1.00
H589   H     0.32787   0.94285   0.07444   0.00000  Uiso   1.00
H590   H     0.28581   0.95097   0.02253   0.00000  Uiso   1.00
H591   H     0.31330   0.75984   0.01628   0.00000  Uiso   1.00
H592   H     0.27058   0.76140   0.06113   0.00000  Uiso   1.00
H593   H     0.29163   0.91119   0.20354   0.00000  Uiso   1.00
H594   H     0.01704   0.91403   0.17708   0.00000  Uiso   1.00
H595   H     0.00568   0.92421   0.28041   0.00000  Uiso   1.00
H596   H     0.06437   0.92799   0.25355   0.00000  Uiso   1.00
N597   N     0.16668   0.83334   0.28403   0.00000  Uiso   1.00
N598   N     0.16665   0.83332   0.04931   0.00000  Uiso   1.00
N599   N     0.09095   0.70768   0.10476   0.00000  Uiso   1.00
N600   N     0.20074   0.95787   0.24769   0.00000  Uiso   1.00
N601   N     0.12131   0.76761   0.03965   0.00000  Uiso   1.00
N602   N     0.23305   0.88431   0.29055   0.00000  Uiso   1.00
O603   O     0.16666   0.77322   0.20625   0.00000  Uiso   1.00
O604   O     0.00872   0.86377   0.22027   0.00000  Uiso   1.00
O605   O     0.10730   0.95603   0.09525   0.00000  Uiso   1.00
O606   O     0.18705   0.70857   0.25043   0.00000  Uiso   1.00
O607   O     0.11712   0.77323   0.27790   0.00000  Uiso   1.00
O608   O     0.21381   0.89611   0.05256   0.00000  Uiso   1.00
O609   O     0.16667   0.89345   0.12709   0.00000  Uiso   1.00
O610   O     0.16666   0.77321   0.12706   0.00000  Uiso   1.00
O611   O     0.16667   0.89346   0.20628   0.00000  Uiso   1.00
O612   O     0.09161   0.83334   0.19712   0.00000  Uiso   1.00
O613   O     0.24172   0.83333   0.13621   0.00000  Uiso   1.00
O614   O     0.09161   0.83333   0.11793   0.00000  Uiso   1.00
O615   O     0.24172   0.83334   0.21540   0.00000  Uiso   1.00
O616   O     0.31948   0.82485   0.10375   0.00000  Uiso   1.00
C617   C     0.49742   0.75419   0.16672   0.00000  Uiso   1.00
C618   C     0.51451   0.68858   0.20789   0.00000  Uiso   1.00
C619   C     0.49633   0.95748   0.16683   0.00000  Uiso   1.00
C620   C     0.49384   0.70942   0.16800   0.00000  Uiso   1.00
C621   C     0.47481   0.80354   0.02089   0.00000  Uiso   1.00
C622   C     0.53064   0.85981   0.31176   0.00000  Uiso   1.00
C623   C     0.47204   0.80522   0.30481   0.00000  Uiso   1.00
C624   C     0.52897   0.86144   0.02804   0.00000  Uiso   1.00
C625   C     0.33962   0.79682   0.07500   0.00000  Uiso   1.00
C626   C     0.63026   0.77931   0.04152   0.00000  Uiso   1.00
C627   C     0.66632   0.90515   0.20898   0.00000  Uiso   1.00
C628   C     0.49886   0.91257   0.16657   0.00000  Uiso   1.00
C629   C     0.35620   0.93219   0.24839   0.00000  Uiso   1.00
C630   C     0.46082   0.96220   0.05278   0.00000  Uiso   1.00
C631   C     0.43578   0.93142   0.01809   0.00000  Uiso   1.00
C632   C     0.57168   0.71221   0.26910   0.00000  Uiso   1.00
C633   C     0.57614   0.69935   0.32006   0.00000  Uiso   1.00
C634   C     0.39762   0.76975   0.27918   0.00000  Uiso   1.00
C635   C     0.38344   0.72484   0.28221   0.00000  Uiso   1.00
C636   C     0.60048   0.89756   0.06301   0.00000  Uiso   1.00
C637   C     0.62090   0.94107   0.05918   0.00000  Uiso   1.00
C638   C     0.40155   0.83276   0.15477   0.00000  Uiso   1.00
C639   C     0.59833   0.83452   0.17813   0.00000  Uiso   1.00
C640   C     0.34621   0.83029   0.14783   0.00000  Uiso   1.00
C641   C     0.65313   0.84069   0.18304   0.00000  Uiso   1.00
C642   C     0.46461   0.68747   0.13234   0.00000  Uiso   1.00
C643   C     0.51590   0.97937   0.20682   0.00000  Uiso   1.00
C644   C     0.46921   0.97821   0.12975   0.00000  Uiso   1.00
Cu645  Cu    0.50000   0.83334   0.21355   0.00000  Uiso   1.00
Cu646  Cu    0.50000   0.83333   0.11978   0.00000  Uiso   1.00
H647   H     0.35791   0.77141   0.09510   0.00000  Uiso   1.00
H648   H     0.34864   0.96457   0.23981   0.00000  Uiso   1.00
H649   H     0.40153   0.71980   0.12819   0.00000  Uiso   1.00
H650   H     0.40018   0.68721   0.08490   0.00000  Uiso   1.00
H651   H     0.51214   0.96511   0.27402   0.00000  Uiso   1.00
H652   H     0.57241   0.96483   0.25675   0.00000  Uiso   1.00
H653   H     0.50247   0.95840   0.05654   0.00000  Uiso   1.00
H654   H     0.45300   0.99312   0.03865   0.00000  Uiso   1.00
H655   H     0.39536   0.93894   0.00998   0.00000  Uiso   1.00
H656   H     0.45491   0.93215   0.31943   0.00000  Uiso   1.00
H657   H     0.43787   0.90035   0.03302   0.00000  Uiso   1.00
H658   H     0.36562   0.81312   0.05360   0.00000  Uiso   1.00
H659   H     0.58383   0.74471   0.26751   0.00000  Uiso   1.00
H660   H     0.59816   0.69464   0.25010   0.00000  Uiso   1.00
H661   H     0.61643   0.69715   0.00113   0.00000  Uiso   1.00
H662   H     0.55643   0.72146   0.00675   0.00000  Uiso   1.00
H663   H     0.55815   0.66930   0.32477   0.00000  Uiso   1.00
H664   H     0.48463   0.74860   0.05047   0.00000  Uiso   1.00
H665   H     0.43463   0.77550   0.06671   0.00000  Uiso   1.00
H666   H     0.56986   0.91229   0.30720   0.00000  Uiso   1.00
H667   H     0.60149   0.87046   0.29652   0.00000  Uiso   1.00
H668   H     0.37809   0.78186   0.24630   0.00000  Uiso   1.00
H669   H     0.60932   0.80390   0.02203   0.00000  Uiso   1.00
H670   H     0.38325   0.78643   0.30826   0.00000  Uiso   1.00
H671   H     0.40219   0.71156   0.31482   0.00000  Uiso   1.00
H672   H     0.34210   0.72126   0.28194   0.00000  Uiso   1.00
H673   H     0.39522   0.70814   0.25203   0.00000  Uiso   1.00
H674   H     0.62089   0.87709   0.04142   0.00000  Uiso   1.00
H675   H     0.60979   0.88975   0.09992   0.00000  Uiso   1.00
H676   H     0.59902   0.96225   0.07859   0.00000  Uiso   1.00
H677   H     0.66120   0.94285   0.07444   0.00000  Uiso   1.00
H678   H     0.61915   0.95097   0.02253   0.00000  Uiso   1.00
H679   H     0.64663   0.75984   0.01628   0.00000  Uiso   1.00
H680   H     0.60392   0.76140   0.06113   0.00000  Uiso   1.00
H681   H     0.62497   0.91119   0.20354   0.00000  Uiso   1.00
H682   H     0.35038   0.91403   0.17708   0.00000  Uiso   1.00
H683   H     0.33901   0.92421   0.28041   0.00000  Uiso   1.00
H684   H     0.39771   0.92799   0.25355   0.00000  Uiso   1.00
N685   N     0.50001   0.83334   0.28403   0.00000  Uiso   1.00
N686   N     0.49999   0.83332   0.04931   0.00000  Uiso   1.00
N687   N     0.42429   0.70768   0.10476   0.00000  Uiso   1.00
N688   N     0.53408   0.95787   0.24769   0.00000  Uiso   1.00
N689   N     0.45465   0.76761   0.03965   0.00000  Uiso   1.00
N690   N     0.56639   0.88431   0.29055   0.00000  Uiso   1.00
O691   O     0.50000   0.77322   0.20625   0.00000  Uiso   1.00
O692   O     0.34206   0.86377   0.22027   0.00000  Uiso   1.00
O693   O     0.44063   0.95603   0.09525   0.00000  Uiso   1.00
O694   O     0.52039   0.70857   0.25043   0.00000  Uiso   1.00
O695   O     0.45046   0.77323   0.27790   0.00000  Uiso   1.00
O696   O     0.54715   0.89611   0.05256   0.00000  Uiso   1.00
O697   O     0.50000   0.89345   0.12709   0.00000  Uiso   1.00
O698   O     0.50000   0.77321   0.12706   0.00000  Uiso   1.00
O699   O     0.50000   0.89346   0.20628   0.00000  Uiso   1.00
O700   O     0.42495   0.83334   0.19712   0.00000  Uiso   1.00
O701   O     0.57505   0.83333   0.13621   0.00000  Uiso   1.00
O702   O     0.42494   0.83333   0.11793   0.00000  Uiso   1.00
O703   O     0.57506   0.83334   0.21540   0.00000  Uiso   1.00
O704   O     0.65282   0.82485   0.10375   0.00000  Uiso   1.00
C705   C     0.83075   0.75419   0.16672   0.00000  Uiso   1.00
C706   C     0.84784   0.68858   0.20789   0.00000  Uiso   1.00
C707   C     0.82966   0.95748   0.16683   0.00000  Uiso   1.00
C708   C     0.82717   0.70942   0.16800   0.00000  Uiso   1.00
C709   C     0.80814   0.80354   0.02089   0.00000  Uiso   1.00
C710   C     0.86397   0.85981   0.31176   0.00000  Uiso   1.00
C711   C     0.80537   0.80522   0.30481   0.00000  Uiso   1.00
C712   C     0.86231   0.86144   0.02804   0.00000  Uiso   1.00
C713   C     0.67296   0.79682   0.07500   0.00000  Uiso   1.00
C714   C     0.96359   0.77931   0.04152   0.00000  Uiso   1.00
C715   C     0.99966   0.90515   0.20898   0.00000  Uiso   1.00
C716   C     0.83219   0.91257   0.16657   0.00000  Uiso   1.00
C717   C     0.68953   0.93219   0.24839   0.00000  Uiso   1.00
C718   C     0.79415   0.96220   0.05278   0.00000  Uiso   1.00
C719   C     0.76912   0.93142   0.01809   0.00000  Uiso   1.00
C720   C     0.90501   0.71221   0.26910   0.00000  Uiso   1.00
C721   C     0.90947   0.69935   0.32006   0.00000  Uiso   1.00
C722   C     0.73096   0.76975   0.27918   0.00000  Uiso   1.00
C723   C     0.71678   0.72484   0.28221   0.00000  Uiso   1.00
C724   C     0.93382   0.89756   0.06301   0.00000  Uiso   1.00
C725   C     0.95423   0.94107   0.05918   0.00000  Uiso   1.00
C726   C     0.73488   0.83276   0.15477   0.00000  Uiso   1.00
C727   C     0.93166   0.83452   0.17813   0.00000  Uiso   1.00
C728   C     0.67955   0.83029   0.14783   0.00000  Uiso   1.00
C729   C     0.98647   0.84069   0.18304   0.00000  Uiso   1.00
C730   C     0.79794   0.68747   0.13234   0.00000  Uiso   1.00
C731   C     0.84923   0.97937   0.20682   0.00000  Uiso   1.00
C732   C     0.80254   0.97821   0.12975   0.00000  Uiso   1.00
Cu733  Cu    0.83333   0.83334   0.21355   0.00000  Uiso   1.00
Cu734  Cu    0.83333   0.83333   0.11978   0.00000  Uiso   1.00
H735   H     0.69124   0.77141   0.09510   0.00000  Uiso   1.00
H736   H     0.68197   0.96457   0.23981   0.00000  Uiso   1.00
H737   H     0.73487   0.71980   0.12819   0.00000  Uiso   1.00
H738   H     0.73351   0.68721   0.08490   0.00000  Uiso   1.00
H739   H     0.84547   0.96511   0.27402   0.00000  Uiso   1.00
H740   H     0.90575   0.96483   0.25675   0.00000  Uiso   1.00
H741   H     0.83580   0.95840   0.05654   0.00000  Uiso   1.00
H742   H     0.78633   0.99312   0.03865   0.00000  Uiso   1.00
H743   H     0.72869   0.93894   0.00998   0.00000  Uiso   1.00
H744   H     0.78824   0.93215   0.31943   0.00000  Uiso   1.00
H745   H     0.77120   0.90035   0.03302   0.00000  Uiso   1.00
H746   H     0.69895   0.81312   0.05360   0.00000  Uiso   1.00
H747   H     0.91716   0.74471   0.26751   0.00000  Uiso   1.00
H748   H     0.93149   0.69464   0.25010   0.00000  Uiso   1.00
H749   H     0.94976   0.69715   0.00113   0.00000  Uiso   1.00
H750   H     0.88976   0.72146   0.00675   0.00000  Uiso   1.00
H751   H     0.89148   0.66930   0.32477   0.00000  Uiso   1.00
H752   H     0.81797   0.74860   0.05047   0.00000  Uiso   1.00
H753   H     0.76796   0.77550   0.06671   0.00000  Uiso   1.00
H754   H     0.90320   0.91229   0.30720   0.00000  Uiso   1.00
H755   H     0.93483   0.87046   0.29652   0.00000  Uiso   1.00
H756   H     0.71143   0.78186   0.24630   0.00000  Uiso   1.00
H757   H     0.94265   0.80390   0.02203   0.00000  Uiso   1.00
H758   H     0.71658   0.78643   0.30826   0.00000  Uiso   1.00
H759   H     0.73552   0.71156   0.31482   0.00000  Uiso   1.00
H760   H     0.67543   0.72126   0.28194   0.00000  Uiso   1.00
H761   H     0.72856   0.70814   0.25203   0.00000  Uiso   1.00
H762   H     0.95422   0.87709   0.04142   0.00000  Uiso   1.00
H763   H     0.94312   0.88975   0.09992   0.00000  Uiso   1.00
H764   H     0.93235   0.96225   0.07859   0.00000  Uiso   1.00
H765   H     0.99453   0.94285   0.07444   0.00000  Uiso   1.00
H766   H     0.95248   0.95097   0.02253   0.00000  Uiso   1.00
H767   H     0.97997   0.75984   0.01628   0.00000  Uiso   1.00
H768   H     0.93725   0.76140   0.06113   0.00000  Uiso   1.00
H769   H     0.95830   0.91119   0.20354   0.00000  Uiso   1.00
H770   H     0.68371   0.91403   0.17708   0.00000  Uiso   1.00
H771   H     0.67234   0.92421   0.28041   0.00000  Uiso   1.00
H772   H     0.73104   0.92799   0.25355   0.00000  Uiso   1.00
N773   N     0.83335   0.83334   0.28403   0.00000  Uiso   1.00
N774   N     0.83332   0.83332   0.04931   0.00000  Uiso   1.00
N775   N     0.75762   0.70768   0.10476   0.00000  Uiso   1.00
N776   N     0.86741   0.95787   0.24769   0.00000  Uiso   1.00
N777   N     0.78798   0.76761   0.03965   0.00000  Uiso   1.00
N778   N     0.89972   0.88431   0.29055   0.00000  Uiso   1.00
O779   O     0.83333   0.77322   0.20625   0.00000  Uiso   1.00
O780   O     0.67539   0.86377   0.22027   0.00000  Uiso   1.00
O781   O     0.77396   0.95603   0.09525   0.00000  Uiso   1.00
O782   O     0.85372   0.70857   0.25043   0.00000  Uiso   1.00
O783   O     0.78379   0.77323   0.27790   0.00000  Uiso   1.00
O784   O     0.88048   0.89611   0.05256   0.00000  Uiso   1.00
O785   O     0.83334   0.89345   0.12709   0.00000  Uiso   1.00
O786   O     0.83333   0.77321   0.12706   0.00000  Uiso   1.00
O787   O     0.83334   0.89346   0.20628   0.00000  Uiso   1.00
O788   O     0.75828   0.83334   0.19712   0.00000  Uiso   1.00
O789   O     0.90839   0.83333   0.13621   0.00000  Uiso   1.00
O790   O     0.75828   0.83333   0.11793   0.00000  Uiso   1.00
O791   O     0.90839   0.83334   0.21540   0.00000  Uiso   1.00
O792   O     0.98615   0.82485   0.10375   0.00000  Uiso   1.00
C793   C     0.16408   0.08752   0.50005   0.00000  Uiso   1.00
C794   C     0.18117   0.02192   0.54122   0.00000  Uiso   1.00
C795   C     0.16299   0.29082   0.50016   0.00000  Uiso   1.00
C796   C     0.16051   0.04275   0.50133   0.00000  Uiso   1.00
C797   C     0.14148   0.13687   0.35423   0.00000  Uiso   1.00
C798   C     0.19731   0.19314   0.64509   0.00000  Uiso   1.00
C799   C     0.13871   0.13855   0.63814   0.00000  Uiso   1.00
C800   C     0.19564   0.19478   0.36137   0.00000  Uiso   1.00
C801   C     0.00629   0.13016   0.40834   0.00000  Uiso   1.00
C802   C     0.29692   0.11265   0.37485   0.00000  Uiso   1.00
C803   C     0.33299   0.23848   0.54232   0.00000  Uiso   1.00
C804   C     0.16553   0.24591   0.49990   0.00000  Uiso   1.00
C805   C     0.02287   0.26552   0.58172   0.00000  Uiso   1.00
C806   C     0.12749   0.29553   0.38611   0.00000  Uiso   1.00
C807   C     0.10245   0.26475   0.35142   0.00000  Uiso   1.00
C808   C     0.23834   0.04554   0.60243   0.00000  Uiso   1.00
C809   C     0.24280   0.03268   0.65340   0.00000  Uiso   1.00
C810   C     0.06429   0.10308   0.61252   0.00000  Uiso   1.00
C811   C     0.05011   0.05817   0.61554   0.00000  Uiso   1.00
C812   C     0.26715   0.23089   0.39634   0.00000  Uiso   1.00
C813   C     0.28756   0.27441   0.39252   0.00000  Uiso   1.00
C814   C     0.06821   0.16610   0.48811   0.00000  Uiso   1.00
C815   C     0.26500   0.16785   0.51147   0.00000  Uiso   1.00
C816   C     0.01288   0.16362   0.48116   0.00000  Uiso   1.00
C817   C     0.31980   0.17403   0.51637   0.00000  Uiso   1.00
C818   C     0.13127   0.02080   0.46568   0.00000  Uiso   1.00
C819   C     0.18257   0.31271   0.54015   0.00000  Uiso   1.00
C820   C     0.13587   0.31154   0.46308   0.00000  Uiso   1.00
Cu821  Cu    0.16667   0.16667   0.54689   0.00000  Uiso   1.00
Cu822  Cu    0.16667   0.16666   0.45311   0.00000  Uiso   1.00
H823   H     0.02458   0.10474   0.42843   0.00000  Uiso   1.00
H824   H     0.01531   0.29791   0.57315   0.00000  Uiso   1.00
H825   H     0.06820   0.05314   0.46153   0.00000  Uiso   1.00
H826   H     0.06684   0.02055   0.41823   0.00000  Uiso   1.00
H827   H     0.17881   0.29844   0.60736   0.00000  Uiso   1.00
H828   H     0.23908   0.29816   0.59008   0.00000  Uiso   1.00
H829   H     0.16914   0.29173   0.38988   0.00000  Uiso   1.00
H830   H     0.11966   0.32646   0.37198   0.00000  Uiso   1.00
H831   H     0.06203   0.27227   0.34332   0.00000  Uiso   1.00
H832   H     0.12158   0.26548   0.65276   0.00000  Uiso   1.00
H833   H     0.10454   0.23369   0.36635   0.00000  Uiso   1.00
H834   H     0.03229   0.14646   0.38693   0.00000  Uiso   1.00
H835   H     0.25049   0.07804   0.60084   0.00000  Uiso   1.00
H836   H     0.26482   0.02797   0.58343   0.00000  Uiso   1.00
H837   H     0.28309   0.03048   0.33446   0.00000  Uiso   1.00
H838   H     0.22310   0.05480   0.34008   0.00000  Uiso   1.00
H839   H     0.22481   0.00263   0.65811   0.00000  Uiso   1.00
H840   H     0.15130   0.08193   0.38381   0.00000  Uiso   1.00
H841   H     0.10129   0.10883   0.40005   0.00000  Uiso   1.00
H842   H     0.23653   0.24563   0.64054   0.00000  Uiso   1.00
H843   H     0.26816   0.20379   0.62985   0.00000  Uiso   1.00
H844   H     0.04476   0.11519   0.57964   0.00000  Uiso   1.00
H845   H     0.27598   0.13723   0.35537   0.00000  Uiso   1.00
H846   H     0.04992   0.11977   0.64160   0.00000  Uiso   1.00
H847   H     0.06885   0.04489   0.64815   0.00000  Uiso   1.00
H848   H     0.00877   0.05460   0.61527   0.00000  Uiso   1.00
H849   H     0.06189   0.04147   0.58537   0.00000  Uiso   1.00
H850   H     0.28755   0.21043   0.37475   0.00000  Uiso   1.00
H851   H     0.27645   0.22308   0.43325   0.00000  Uiso   1.00
H852   H     0.26569   0.29558   0.41192   0.00000  Uiso   1.00
H853   H     0.32787   0.27618   0.40777   0.00000  Uiso   1.00
H854   H     0.28581   0.28431   0.35586   0.00000  Uiso   1.00
H855   H     0.31330   0.09317   0.34961   0.00000  Uiso   1.00
H856   H     0.27058   0.09473   0.39446   0.00000  Uiso   1.00
H857   H     0.29163   0.24453   0.53687   0.00000  Uiso   1.00
H858   H     0.01704   0.24737   0.51042   0.00000  Uiso   1.00
H859   H     0.00568   0.25754   0.61375   0.00000  Uiso   1.00
H860   H     0.06437   0.26132   0.58688   0.00000  Uiso   1.00
N861   N     0.16668   0.16668   0.61736   0.00000  Uiso   1.00
N862   N     0.16665   0.16666   0.38264   0.00000  Uiso   1.00
N863   N     0.09095   0.04101   0.43809   0.00000  Uiso   1.00
N864   N     0.20074   0.29120   0.58102   0.00000  Uiso   1.00
N865   N     0.12131   0.10095   0.37299   0.00000  Uiso   1.00
N866   N     0.23305   0.21764   0.62389   0.00000  Uiso   1.00
O867   O     0.16666   0.10655   0.53958   0.00000  Uiso   1.00
O868   O     0.00872   0.19711   0.55360   0.00000  Uiso   1.00
O869   O     0.10730   0.28937   0.42858   0.00000  Uiso   1.00
O870   O     0.18705   0.04191   0.58376   0.00000  Uiso   1.00
O871   O     0.11712   0.10656   0.61123   0.00000  Uiso   1.00
O872   O     0.21381   0.22945   0.38589   0.00000  Uiso   1.00
O873   O     0.16667   0.22678   0.46042   0.00000  Uiso   1.00
O874   O     0.16666   0.10654   0.46039   0.00000  Uiso   1.00
O875   O     0.16667   0.22679   0.53961   0.00000  Uiso   1.00
O876   O     0.09161   0.16667   0.53046   0.00000  Uiso   1.00
O877   O     0.24172   0.16666   0.46954   0.00000  Uiso   1.00
O878   O     0.09161   0.16666   0.45127   0.00000  Uiso   1.00
O879   O     0.24172   0.16667   0.54873   0.00000  Uiso   1.00
O880   O     0.31948   0.15818   0.43708   0.00000  Uiso   1.00
C881   C     0.49742   0.08752   0.50005   0.00000  Uiso   1.00
C882   C     0.51451   0.02192   0.54122   0.00000  Uiso   1.00
C883   C     0.49633   0.29082   0.50016   0.00000  Uiso   1.00
C884   C     0.49384   0.04275   0.50133   0.00000  Uiso   1.00
C885   C     0.47481   0.13687   0.35423   0.00000  Uiso   1.00
C886   C     0.53064   0.19314   0.64509   0.00000  Uiso   1.00
C887   C     0.47204   0.13855   0.63814   0.00000  Uiso   1.00
C888   C     0.52897   0.19478   0.36137   0.00000  Uiso   1.00
C889   C     0.33962   0.13016   0.40834   0.00000  Uiso   1.00
C890   C     0.63026   0.11265   0.37485   0.00000  Uiso   1.00
C891   C     0.66632   0.23848   0.54232   0.00000  Uiso   1.00
C892   C     0.49886   0.24591   0.49990   0.00000  Uiso   1.00
C893   C     0.35620   0.26552   0.58172   0.00000  Uiso   1.00
C894   C     0.46082   0.29553   0.38611   0.00000  Uiso   1.00
C895   C     0.43578   0.26475   0.35142   0.00000  Uiso   1.00
C896   C     0.57168   0.04554   0.60243   0.00000  Uiso   1.00
C897   C     0.57614   0.03268   0.65340   0.00000  Uiso   1.00
C898   C     0.39762   0.10308   0.61252   0.00000  Uiso   1.00
C899   C     0.38344   0.05817   0.61554   0.00000  Uiso   1.00
C900   C     0.60048   0.23089   0.39634   0.00000  Uiso   1.00
C901   C     0.62090   0.27441   0.39252   0.00000  Uiso   1.00
C902   C     0.40155   0.16610   0.48811   0.00000  Uiso   1.00
C903   C     0.59833   0.16785   0.51147   0.00000  Uiso   1.00
C904   C     0.34621   0.16362   0.48116   0.00000  Uiso   1.00
C905   C     0.65313   0.17403   0.51637   0.00000  Uiso   1.00
C906   C     0.46461   0.02080   0.46568   0.00000  Uiso   1.00
C907   C     0.51590   0.31271   0.54015   0.00000  Uiso   1.00
C908   C     0.46921   0.31154   0.46308   0.00000  Uiso   1.00
Cu909  Cu    0.50000   0.16667   0.54689   0.00000  Uiso   1.00
Cu910  Cu    0.50000   0.16666   0.45311   0.00000  Uiso   1.00
H911   H     0.35791   0.10474   0.42843   0.00000  Uiso   1.00
H912   H     0.34864   0.29791   0.57315   0.00000  Uiso   1.00
H913   H     0.40153   0.05314   0.46153   0.00000  Uiso   1.00
H914   H     0.40018   0.02055   0.41823   0.00000  Uiso   1.00
H915   H     0.51214   0.29844   0.60736   0.00000  Uiso   1.00
H916   H     0.57241   0.29816   0.59008   0.00000  Uiso   1.00
H917   H     0.50247   0.29173   0.38988   0.00000  Uiso   1.00
H918   H     0.45300   0.32646   0.37198   0.00000  Uiso   1.00
H919   H     0.39536   0.27227   0.34332   0.00000  Uiso   1.00
H920   H     0.45491   0.26548   0.65276   0.00000  Uiso   1.00
H921   H     0.43787   0.23369   0.36635   0.00000  Uiso   1.00
H922   H     0.36562   0.14646   0.38693   0.00000  Uiso   1.00
H923   H     0.58383   0.07804   0.60084   0.00000  Uiso   1.00
H924   H     0.59816   0.02797   0.58343   0.00000  Uiso   1.00
H925   H     0.61643   0.03048   0.33446   0.00000  Uiso   1.00
H926   H     0.55643   0.05480   0.34008   0.00000  Uiso   1.00
H927   H     0.55815   0.00263   0.65811   0.00000  Uiso   1.00
H928   H     0.48463   0.08193   0.38381   0.00000  Uiso   1.00
H929   H     0.43463   0.10883   0.40005   0.00000  Uiso   1.00
H930   H     0.56986   0.24563   0.64054   0.00000  Uiso   1.00
H931   H     0.60149   0.20379   0.62985   0.00000  Uiso   1.00
H932   H     0.37809   0.11519   0.57964   0.00000  Uiso   1.00
H933   H     0.60932   0.13723   0.35537   0.00000  Uiso   1.00
H934   H     0.38325   0.11977   0.64160   0.00000  Uiso   1.00
H935   H     0.40219   0.04489   0.64815   0.00000  Uiso   1.00
H936   H     0.34210   0.05460   0.61527   0.00000  Uiso   1.00
H937   H     0.39522   0.04147   0.58537   0.00000  Uiso   1.00
H938   H     0.62089   0.21043   0.37475   0.00000  Uiso   1.00
H939   H     0.60979   0.22308   0.43325   0.00000  Uiso   1.00
H940   H     0.59902   0.29558   0.41192   0.00000  Uiso   1.00
H941   H     0.66120   0.27618   0.40777   0.00000  Uiso   1.00
H942   H     0.61915   0.28431   0.35586   0.00000  Uiso   1.00
H943   H     0.64663   0.09317   0.34961   0.00000  Uiso   1.00
H944   H     0.60392   0.09473   0.39446   0.00000  Uiso   1.00
H945   H     0.62497   0.24453   0.53687   0.00000  Uiso   1.00
H946   H     0.35038   0.24737   0.51042   0.00000  Uiso   1.00
H947   H     0.33901   0.25754   0.61375   0.00000  Uiso   1.00
H948   H     0.39771   0.26132   0.58688   0.00000  Uiso   1.00
N949   N     0.50001   0.16668   0.61736   0.00000  Uiso   1.00
N950   N     0.49999   0.16666   0.38264   0.00000  Uiso   1.00
N951   N     0.42429   0.04101   0.43809   0.00000  Uiso   1.00
N952   N     0.53408   0.29120   0.58102   0.00000  Uiso   1.00
N953   N     0.45465   0.10095   0.37299   0.00000  Uiso   1.00
N954   N     0.56639   0.21764   0.62389   0.00000  Uiso   1.00
O955   O     0.50000   0.10655   0.53958   0.00000  Uiso   1.00
O956   O     0.34206   0.19711   0.55360   0.00000  Uiso   1.00
O957   O     0.44063   0.28937   0.42858   0.00000  Uiso   1.00
O958   O     0.52039   0.04191   0.58376   0.00000  Uiso   1.00
O959   O     0.45046   0.10656   0.61123   0.00000  Uiso   1.00
O960   O     0.54715   0.22945   0.38589   0.00000  Uiso   1.00
O961   O     0.50000   0.22678   0.46042   0.00000  Uiso   1.00
O962   O     0.50000   0.10654   0.46039   0.00000  Uiso   1.00
O963   O     0.50000   0.22679   0.53961   0.00000  Uiso   1.00
O964   O     0.42495   0.16667   0.53046   0.00000  Uiso   1.00
O965   O     0.57505   0.16666   0.46954   0.00000  Uiso   1.00
O966   O     0.42494   0.16666   0.45127   0.00000  Uiso   1.00
O967   O     0.57506   0.16667   0.54873   0.00000  Uiso   1.00
O968   O     0.65282   0.15818   0.43708   0.00000  Uiso   1.00
C969   C     0.83075   0.08752   0.50005   0.00000  Uiso   1.00
C970   C     0.84784   0.02192   0.54122   0.00000  Uiso   1.00
C971   C     0.82966   0.29082   0.50016   0.00000  Uiso   1.00
C972   C     0.82717   0.04275   0.50133   0.00000  Uiso   1.00
C973   C     0.80814   0.13687   0.35423   0.00000  Uiso   1.00
C974   C     0.86397   0.19314   0.64509   0.00000  Uiso   1.00
C975   C     0.80537   0.13855   0.63814   0.00000  Uiso   1.00
C976   C     0.86231   0.19478   0.36137   0.00000  Uiso   1.00
C977   C     0.67296   0.13016   0.40834   0.00000  Uiso   1.00
C978   C     0.96359   0.11265   0.37485   0.00000  Uiso   1.00
C979   C     0.99966   0.23848   0.54232   0.00000  Uiso   1.00
C980   C     0.83219   0.24591   0.49990   0.00000  Uiso   1.00
C981   C     0.68953   0.26552   0.58172   0.00000  Uiso   1.00
C982   C     0.79415   0.29553   0.38611   0.00000  Uiso   1.00
C983   C     0.76912   0.26475   0.35142   0.00000  Uiso   1.00
C984   C     0.90501   0.04554   0.60243   0.00000  Uiso   1.00
C985   C     0.90947   0.03268   0.65340   0.00000  Uiso   1.00
C986   C     0.73096   0.10308   0.61252   0.00000  Uiso   1.00
C987   C     0.71678   0.05817   0.61554   0.00000  Uiso   1.00
C988   C     0.93382   0.23089   0.39634   0.00000  Uiso   1.00
C989   C     0.95423   0.27441   0.39252   0.00000  Uiso   1.00
C990   C     0.73488   0.16610   0.48811   0.00000  Uiso   1.00
C991   C     0.93166   0.16785   0.51147   0.00000  Uiso   1.00
C992   C     0.67955   0.16362   0.48116   0.00000  Uiso   1.00
C993   C     0.98647   0.17403   0.51637   0.00000  Uiso   1.00
C994   C     0.79794   0.02080   0.46568   0.00000  Uiso   1.00
C995   C     0.84923   0.31271   0.54015   0.00000  Uiso   1.00
C996   C     0.80254   0.31154   0.46308   0.00000  Uiso   1.00
Cu997  Cu    0.83333   0.16667   0.54689   0.00000  Uiso   1.00
Cu998  Cu    0.83333   0.16666   0.45311   0.00000  Uiso   1.00
H999   H     0.69124   0.10474   0.42843   0.00000  Uiso   1.00
H1000  H     0.68197   0.29791   0.57315   0.00000  Uiso   1.00
H1001  H     0.73487   0.05314   0.46153   0.00000  Uiso   1.00
H1002  H     0.73351   0.02055   0.41823   0.00000  Uiso   1.00
H1003  H     0.84547   0.29844   0.60736   0.00000  Uiso   1.00
H1004  H     0.90575   0.29816   0.59008   0.00000  Uiso   1.00
H1005  H     0.83580   0.29173   0.38988   0.00000  Uiso   1.00
H1006  H     0.78633   0.32646   0.37198   0.00000  Uiso   1.00
H1007  H     0.72869   0.27227   0.34332   0.00000  Uiso   1.00
H1008  H     0.78824   0.26548   0.65276   0.00000  Uiso   1.00
H1009  H     0.77120   0.23369   0.36635   0.00000  Uiso   1.00
H1010  H     0.69895   0.14646   0.38693   0.00000  Uiso   1.00
H1011  H     0.91716   0.07804   0.60084   0.00000  Uiso   1.00
H1012  H     0.93149   0.02797   0.58343   0.00000  Uiso   1.00
H1013  H     0.94976   0.03048   0.33446   0.00000  Uiso   1.00
H1014  H     0.88976   0.05480   0.34008   0.00000  Uiso   1.00
H1015  H     0.89148   0.00263   0.65811   0.00000  Uiso   1.00
H1016  H     0.81797   0.08193   0.38381   0.00000  Uiso   1.00
H1017  H     0.76796   0.10883   0.40005   0.00000  Uiso   1.00
H1018  H     0.90320   0.24563   0.64054   0.00000  Uiso   1.00
H1019  H     0.93483   0.20379   0.62985   0.00000  Uiso   1.00
H1020  H     0.71143   0.11519   0.57964   0.00000  Uiso   1.00
H1021  H     0.94265   0.13723   0.35537   0.00000  Uiso   1.00
H1022  H     0.71658   0.11977   0.64160   0.00000  Uiso   1.00
H1023  H     0.73552   0.04489   0.64815   0.00000  Uiso   1.00
H1024  H     0.67543   0.05460   0.61527   0.00000  Uiso   1.00
H1025  H     0.72856   0.04147   0.58537   0.00000  Uiso   1.00
H1026  H     0.95422   0.21043   0.37475   0.00000  Uiso   1.00
H1027  H     0.94312   0.22308   0.43325   0.00000  Uiso   1.00
H1028  H     0.93235   0.29558   0.41192   0.00000  Uiso   1.00
H1029  H     0.99453   0.27618   0.40777   0.00000  Uiso   1.00
H1030  H     0.95248   0.28431   0.35586   0.00000  Uiso   1.00
H1031  H     0.97997   0.09317   0.34961   0.00000  Uiso   1.00
H1032  H     0.93725   0.09473   0.39446   0.00000  Uiso   1.00
H1033  H     0.95830   0.24453   0.53687   0.00000  Uiso   1.00
H1034  H     0.68371   0.24737   0.51042   0.00000  Uiso   1.00
H1035  H     0.67234   0.25754   0.61375   0.00000  Uiso   1.00
H1036  H     0.73104   0.26132   0.58688   0.00000  Uiso   1.00
N1037  N     0.83335   0.16668   0.61736   0.00000  Uiso   1.00
N1038  N     0.83332   0.16666   0.38264   0.00000  Uiso   1.00
N1039  N     0.75762   0.04101   0.43809   0.00000  Uiso   1.00
N1040  N     0.86741   0.29120   0.58102   0.00000  Uiso   1.00
N1041  N     0.78798   0.10095   0.37299   0.00000  Uiso   1.00
N1042  N     0.89972   0.21764   0.62389   0.00000  Uiso   1.00
O1043  O     0.83333   0.10655   0.53958   0.00000  Uiso   1.00
O1044  O     0.67539   0.19711   0.55360   0.00000  Uiso   1.00
O1045  O     0.77396   0.28937   0.42858   0.00000  Uiso   1.00
O1046  O     0.85372   0.04191   0.58376   0.00000  Uiso   1.00
O1047  O     0.78379   0.10656   0.61123   0.00000  Uiso   1.00
O1048  O     0.88048   0.22945   0.38589   0.00000  Uiso   1.00
O1049  O     0.83334   0.22678   0.46042   0.00000  Uiso   1.00
O1050  O     0.83333   0.10654   0.46039   0.00000  Uiso   1.00
O1051  O     0.83334   0.22679   0.53961   0.00000  Uiso   1.00
O1052  O     0.75828   0.16667   0.53046   0.00000  Uiso   1.00
O1053  O     0.90839   0.16666   0.46954   0.00000  Uiso   1.00
O1054  O     0.75828   0.16666   0.45127   0.00000  Uiso   1.00
O1055  O     0.90839   0.16667   0.54873   0.00000  Uiso   1.00
O1056  O     0.98615   0.15818   0.43708   0.00000  Uiso   1.00
C1057  C     0.16408   0.42085   0.50005   0.00000  Uiso   1.00
C1058  C     0.18117   0.35525   0.54122   0.00000  Uiso   1.00
C1059  C     0.16299   0.62415   0.50016   0.00000  Uiso   1.00
C1060  C     0.16051   0.37609   0.50133   0.00000  Uiso   1.00
C1061  C     0.14148   0.47020   0.35423   0.00000  Uiso   1.00
C1062  C     0.19731   0.52647   0.64509   0.00000  Uiso   1.00
C1063  C     0.13871   0.47189   0.63814   0.00000  Uiso   1.00
C1064  C     0.19564   0.52811   0.36137   0.00000  Uiso   1.00
C1065  C     0.00629   0.46349   0.40834   0.00000  Uiso   1.00
C1066  C     0.29692   0.44598   0.37485   0.00000  Uiso   1.00
C1067  C     0.33299   0.57181   0.54232   0.00000  Uiso   1.00
C1068  C     0.16553   0.57924   0.49990   0.00000  Uiso   1.00
C1069  C     0.02287   0.59886   0.58172   0.00000  Uiso   1.00
C1070  C     0.12749   0.62886   0.38611   0.00000  Uiso   1.00
C1071  C     0.10245   0.59809   0.35142   0.00000  Uiso   1.00
C1072  C     0.23834   0.37888   0.60243   0.00000  Uiso   1.00
C1073  C     0.24280   0.36602   0.65340   0.00000  Uiso   1.00
C1074  C     0.06429   0.43642   0.61252   0.00000  Uiso   1.00
C1075  C     0.05011   0.39151   0.61554   0.00000  Uiso   1.00
C1076  C     0.26715   0.56423   0.39634   0.00000  Uiso   1.00
C1077  C     0.28756   0.60774   0.39252   0.00000  Uiso   1.00
C1078  C     0.06821   0.49943   0.48811   0.00000  Uiso   1.00
C1079  C     0.26500   0.50118   0.51147   0.00000  Uiso   1.00
C1080  C     0.01288   0.49696   0.48116   0.00000  Uiso   1.00
C1081  C     0.31980   0.50736   0.51637   0.00000  Uiso   1.00
C1082  C     0.13127   0.35413   0.46568   0.00000  Uiso   1.00
C1083  C     0.18257   0.64604   0.54015   0.00000  Uiso   1.00
C1084  C     0.13587   0.64488   0.46308   0.00000  Uiso   1.00
Cu1085 Cu    0.16667   0.50001   0.54689   0.00000  Uiso   1.00
Cu1086 Cu    0.16667   0.49999   0.45311   0.00000  Uiso   1.00
H1087  H     0.02458   0.43808   0.42843   0.00000  Uiso   1.00
H1088  H     0.01531   0.63124   0.57315   0.00000  Uiso   1.00
H1089  H     0.06820   0.38647   0.46153   0.00000  Uiso   1.00
H1090  H     0.06684   0.35388   0.41823   0.00000  Uiso   1.00
H1091  H     0.17881   0.63178   0.60736   0.00000  Uiso   1.00
H1092  H     0.23908   0.63150   0.59008   0.00000  Uiso   1.00
H1093  H     0.16914   0.62507   0.38988   0.00000  Uiso   1.00
H1094  H     0.11966   0.65979   0.37198   0.00000  Uiso   1.00
H1095  H     0.06203   0.60561   0.34332   0.00000  Uiso   1.00
H1096  H     0.12158   0.59882   0.65276   0.00000  Uiso   1.00
H1097  H     0.10454   0.56702   0.36635   0.00000  Uiso   1.00
H1098  H     0.03229   0.47979   0.38693   0.00000  Uiso   1.00
H1099  H     0.25049   0.41137   0.60084   0.00000  Uiso   1.00
H1100  H     0.26482   0.36131   0.58343   0.00000  Uiso   1.00
H1101  H     0.28309   0.36382   0.33446   0.00000  Uiso   1.00
H1102  H     0.22310   0.38813   0.34008   0.00000  Uiso   1.00
H1103  H     0.22481   0.33597   0.65811   0.00000  Uiso   1.00
H1104  H     0.15130   0.41527   0.38381   0.00000  Uiso   1.00
H1105  H     0.10129   0.44216   0.40005   0.00000  Uiso   1.00
H1106  H     0.23653   0.57896   0.64054   0.00000  Uiso   1.00
H1107  H     0.26816   0.53712   0.62985   0.00000  Uiso   1.00
H1108  H     0.04476   0.44853   0.57964   0.00000  Uiso   1.00
H1109  H     0.27598   0.47056   0.35537   0.00000  Uiso   1.00
H1110  H     0.04992   0.45310   0.64160   0.00000  Uiso   1.00
H1111  H     0.06885   0.37823   0.64815   0.00000  Uiso   1.00
H1112  H     0.00877   0.38793   0.61527   0.00000  Uiso   1.00
H1113  H     0.06189   0.37481   0.58537   0.00000  Uiso   1.00
H1114  H     0.28755   0.54376   0.37475   0.00000  Uiso   1.00
H1115  H     0.27645   0.55642   0.43325   0.00000  Uiso   1.00
H1116  H     0.26569   0.62892   0.41192   0.00000  Uiso   1.00
H1117  H     0.32787   0.60952   0.40777   0.00000  Uiso   1.00
H1118  H     0.28581   0.61764   0.35586   0.00000  Uiso   1.00
H1119  H     0.31330   0.42651   0.34961   0.00000  Uiso   1.00
H1120  H     0.27058   0.42806   0.39446   0.00000  Uiso   1.00
H1121  H     0.29163   0.57786   0.53687   0.00000  Uiso   1.00
H1122  H     0.01704   0.58070   0.51042   0.00000  Uiso   1.00
H1123  H     0.00568   0.59088   0.61375   0.00000  Uiso   1.00
H1124  H     0.06437   0.59465   0.58688   0.00000  Uiso   1.00
N1125  N     0.16668   0.50001   0.61736   0.00000  Uiso   1.00
N1126  N     0.16665   0.49999   0.38264   0.00000  Uiso   1.00
N1127  N     0.09095   0.37435   0.43809   0.00000  Uiso   1.00
N1128  N     0.20074   0.62454   0.58102   0.00000  Uiso   1.00
N1129  N     0.12131   0.43428   0.37299   0.00000  Uiso   1.00
N1130  N     0.23305   0.55098   0.62389   0.00000  Uiso   1.00
O1131  O     0.16666   0.43989   0.53958   0.00000  Uiso   1.00
O1132  O     0.00872   0.53044   0.55360   0.00000  Uiso   1.00
O1133  O     0.10730   0.62270   0.42858   0.00000  Uiso   1.00
O1134  O     0.18705   0.37524   0.58376   0.00000  Uiso   1.00
O1135  O     0.11712   0.43989   0.61123   0.00000  Uiso   1.00
O1136  O     0.21381   0.56278   0.38589   0.00000  Uiso   1.00
O1137  O     0.16667   0.56011   0.46042   0.00000  Uiso   1.00
O1138  O     0.16666   0.43988   0.46039   0.00000  Uiso   1.00
O1139  O     0.16667   0.56012   0.53961   0.00000  Uiso   1.00
O1140  O     0.09161   0.50000   0.53046   0.00000  Uiso   1.00
O1141  O     0.24172   0.50000   0.46954   0.00000  Uiso   1.00
O1142  O     0.09161   0.49999   0.45127   0.00000  Uiso   1.00
O1143  O     0.24172   0.50001   0.54873   0.00000  Uiso   1.00
O1144  O     0.31948   0.49152   0.43708   0.00000  Uiso   1.00
C1145  C     0.49742   0.42085   0.50005   0.00000  Uiso   1.00
C1146  C     0.51451   0.35525   0.54122   0.00000  Uiso   1.00
C1147  C     0.49633   0.62415   0.50016   0.00000  Uiso   1.00
C1148  C     0.49384   0.37609   0.50133   0.00000  Uiso   1.00
C1149  C     0.47481   0.47020   0.35423   0.00000  Uiso   1.00
C1150  C     0.53064   0.52647   0.64509   0.00000  Uiso   1.00
C1151  C     0.47204   0.47189   0.63814   0.00000  Uiso   1.00
C1152  C     0.52897   0.52811   0.36137   0.00000  Uiso   1.00
C1153  C     0.33962   0.46349   0.40834   0.00000  Uiso   1.00
C1154  C     0.63026   0.44598   0.37485   0.00000  Uiso   1.00
C1155  C     0.66632   0.57181   0.54232   0.00000  Uiso   1.00
C1156  C     0.49886   0.57924   0.49990   0.00000  Uiso   1.00
C1157  C     0.35620   0.59886   0.58172   0.00000  Uiso   1.00
C1158  C     0.46082   0.62886   0.38611   0.00000  Uiso   1.00
C1159  C     0.43578   0.59809   0.35142   0.00000  Uiso   1.00
C1160  C     0.57168   0.37888   0.60243   0.00000  Uiso   1.00
C1161  C     0.57614   0.36602   0.65340   0.00000  Uiso   1.00
C1162  C     0.39762   0.43642   0.61252   0.00000  Uiso   1.00
C1163  C     0.38344   0.39151   0.61554   0.00000  Uiso   1.00
C1164  C     0.60048   0.56423   0.39634   0.00000  Uiso   1.00
C1165  C     0.62090   0.60774   0.39252   0.00000  Uiso   1.00
C1166  C     0.40155   0.49943   0.48811   0.00000  Uiso   1.00
C1167  C     0.59833   0.50118   0.51147   0.00000  Uiso   1.00
C1168  C     0.34621   0.49696   0.48116   0.00000  Uiso   1.00
C1169  C     0.65313   0.50736   0.51637   0.00000  Uiso   1.00
C1170  C     0.46461   0.35413   0.46568   0.00000  Uiso   1.00
C1171  C     0.51590   0.64604   0.54015   0.00000  Uiso   1.00
C1172  C     0.46921   0.64488   0.46308   0.00000  Uiso   1.00
Cu1173 Cu    0.50000   0.50001   0.54689   0.00000  Uiso   1.00
Cu1174 Cu    0.50000   0.49999   0.45311   0.00000  Uiso   1.00
H1175  H     0.35791   0.43808   0.42843   0.00000  Uiso   1.00
H1176  H     0.34864   0.63124   0.57315   0.00000  Uiso   1.00
H1177  H     0.40153   0.38647   0.46153   0.00000  Uiso   1.00
H1178  H     0.40018   0.35388   0.41823   0.00000  Uiso   1.00
H1179  H     0.51214   0.63178   0.60736   0.00000  Uiso   1.00
H1180  H     0.57241   0.63150   0.59008   0.00000  Uiso   1.00
H1181  H     0.50247   0.62507   0.38988   0.00000  Uiso   1.00
H1182  H     0.45300   0.65979   0.37198   0.00000  Uiso   1.00
H1183  H     0.39536   0.60561   0.34332   0.00000  Uiso   1.00
H1184  H     0.45491   0.59882   0.65276   0.00000  Uiso   1.00
H1185  H     0.43787   0.56702   0.36635   0.00000  Uiso   1.00
H1186  H     0.36562   0.47979   0.38693   0.00000  Uiso   1.00
H1187  H     0.58383   0.41137   0.60084   0.00000  Uiso   1.00
H1188  H     0.59816   0.36131   0.58343   0.00000  Uiso   1.00
H1189  H     0.61643   0.36382   0.33446   0.00000  Uiso   1.00
H1190  H     0.55643   0.38813   0.34008   0.00000  Uiso   1.00
H1191  H     0.55815   0.33597   0.65811   0.00000  Uiso   1.00
H1192  H     0.48463   0.41527   0.38381   0.00000  Uiso   1.00
H1193  H     0.43463   0.44216   0.40005   0.00000  Uiso   1.00
H1194  H     0.56986   0.57896   0.64054   0.00000  Uiso   1.00
H1195  H     0.60149   0.53712   0.62985   0.00000  Uiso   1.00
H1196  H     0.37809   0.44853   0.57964   0.00000  Uiso   1.00
H1197  H     0.60932   0.47056   0.35537   0.00000  Uiso   1.00
H1198  H     0.38325   0.45310   0.64160   0.00000  Uiso   1.00
H1199  H     0.40219   0.37823   0.64815   0.00000  Uiso   1.00
H1200  H     0.34210   0.38793   0.61527   0.00000  Uiso   1.00
H1201  H     0.39522   0.37481   0.58537   0.00000  Uiso   1.00
H1202  H     0.62089   0.54376   0.37475   0.00000  Uiso   1.00
H1203  H     0.60979   0.55642   0.43325   0.00000  Uiso   1.00
H1204  H     0.59902   0.62892   0.41192   0.00000  Uiso   1.00
H1205  H     0.66120   0.60952   0.40777   0.00000  Uiso   1.00
H1206  H     0.61915   0.61764   0.35586   0.00000  Uiso   1.00
H1207  H     0.64663   0.42651   0.34961   0.00000  Uiso   1.00
H1208  H     0.60392   0.42806   0.39446   0.00000  Uiso   1.00
H1209  H     0.62497   0.57786   0.53687   0.00000  Uiso   1.00
H1210  H     0.35038   0.58070   0.51042   0.00000  Uiso   1.00
H1211  H     0.33901   0.59088   0.61375   0.00000  Uiso   1.00
H1212  H     0.39771   0.59465   0.58688   0.00000  Uiso   1.00
N1213  N     0.50001   0.50001   0.61736   0.00000  Uiso   1.00
N1214  N     0.49999   0.49999   0.38264   0.00000  Uiso   1.00
N1215  N     0.42429   0.37435   0.43809   0.00000  Uiso   1.00
N1216  N     0.53408   0.62454   0.58102   0.00000  Uiso   1.00
N1217  N     0.45465   0.43428   0.37299   0.00000  Uiso   1.00
N1218  N     0.56639   0.55098   0.62389   0.00000  Uiso   1.00
O1219  O     0.50000   0.43989   0.53958   0.00000  Uiso   1.00
O1220  O     0.34206   0.53044   0.55360   0.00000  Uiso   1.00
O1221  O     0.44063   0.62270   0.42858   0.00000  Uiso   1.00
O1222  O     0.52039   0.37524   0.58376   0.00000  Uiso   1.00
O1223  O     0.45046   0.43989   0.61123   0.00000  Uiso   1.00
O1224  O     0.54715   0.56278   0.38589   0.00000  Uiso   1.00
O1225  O     0.50000   0.56011   0.46042   0.00000  Uiso   1.00
O1226  O     0.50000   0.43988   0.46039   0.00000  Uiso   1.00
O1227  O     0.50000   0.56012   0.53961   0.00000  Uiso   1.00
O1228  O     0.42495   0.50000   0.53046   0.00000  Uiso   1.00
O1229  O     0.57505   0.50000   0.46954   0.00000  Uiso   1.00
O1230  O     0.42494   0.49999   0.45127   0.00000  Uiso   1.00
O1231  O     0.57506   0.50001   0.54873   0.00000  Uiso   1.00
O1232  O     0.65282   0.49152   0.43708   0.00000  Uiso   1.00
C1233  C     0.83075   0.42085   0.50005   0.00000  Uiso   1.00
C1234  C     0.84784   0.35525   0.54122   0.00000  Uiso   1.00
C1235  C     0.82966   0.62415   0.50016   0.00000  Uiso   1.00
C1236  C     0.82717   0.37609   0.50133   0.00000  Uiso   1.00
C1237  C     0.80814   0.47020   0.35423   0.00000  Uiso   1.00
C1238  C     0.86397   0.52647   0.64509   0.00000  Uiso   1.00
C1239  C     0.80537   0.47189   0.63814   0.00000  Uiso   1.00
C1240  C     0.86231   0.52811   0.36137   0.00000  Uiso   1.00
C1241  C     0.67296   0.46349   0.40834   0.00000  Uiso   1.00
C1242  C     0.96359   0.44598   0.37485   0.00000  Uiso   1.00
C1243  C     0.99966   0.57181   0.54232   0.00000  Uiso   1.00
C1244  C     0.83219   0.57924   0.49990   0.00000  Uiso   1.00
C1245  C     0.68953   0.59886   0.58172   0.00000  Uiso   1.00
C1246  C     0.79415   0.62886   0.38611   0.00000  Uiso   1.00
C1247  C     0.76912   0.59809   0.35142   0.00000  Uiso   1.00
C1248  C     0.90501   0.37888   0.60243   0.00000  Uiso   1.00
C1249  C     0.90947   0.36602   0.65340   0.00000  Uiso   1.00
C1250  C     0.73096   0.43642   0.61252   0.00000  Uiso   1.00
C1251  C     0.71678   0.39151   0.61554   0.00000  Uiso   1.00
C1252  C     0.93382   0.56423   0.39634   0.00000  Uiso   1.00
C1253  C     0.95423   0.60774   0.39252   0.00000  Uiso   1.00
C1254  C     0.73488   0.49943   0.48811   0.00000  Uiso   1.00
C1255  C     0.93166   0.50118   0.51147   0.00000  Uiso   1.00
C1256  C     0.67955   0.49696   0.48116   0.00000  Uiso   1.00
C1257  C     0.98647   0.50736   0.51637   0.00000  Uiso   1.00
C1258  C     0.79794   0.35413   0.46568   0.00000  Uiso   1.00
C1259  C     0.84923   0.64604   0.54015   0.00000  Uiso   1.00
C1260  C     0.80254   0.64488   0.46308   0.00000  Uiso   1.00
Cu1261 Cu    0.83333   0.50001   0.54689   0.00000  Uiso   1.00
Cu1262 Cu    0.83333   0.49999   0.45311   0.00000  Uiso   1.00
H1263  H     0.69124   0.43808   0.42843   0.00000  Uiso   1.00
H1264  H     0.68197   0.63124   0.57315   0.00000  Uiso   1.00
H1265  H     0.73487   0.38647   0.46153   0.00000  Uiso   1.00
H1266  H     0.73351   0.35388   0.41823   0.00000  Uiso   1.00
H1267  H     0.84547   0.63178   0.60736   0.00000  Uiso   1.00
H1268  H     0.90575   0.63150   0.59008   0.00000  Uiso   1.00
H1269  H     0.83580   0.62507   0.38988   0.00000  Uiso   1.00
H1270  H     0.78633   0.65979   0.37198   0.00000  Uiso   1.00
H1271  H     0.72869   0.60561   0.34332   0.00000  Uiso   1.00
H1272  H     0.78824   0.59882   0.65276   0.00000  Uiso   1.00
H1273  H     0.77120   0.56702   0.36635   0.00000  Uiso   1.00
H1274  H     0.69895   0.47979   0.38693   0.00000  Uiso   1.00
H1275  H     0.91716   0.41137   0.60084   0.00000  Uiso   1.00
H1276  H     0.93149   0.36131   0.58343   0.00000  Uiso   1.00
H1277  H     0.94976   0.36382   0.33446   0.00000  Uiso   1.00
H1278  H     0.88976   0.38813   0.34008   0.00000  Uiso   1.00
H1279  H     0.89148   0.33597   0.65811   0.00000  Uiso   1.00
H1280  H     0.81797   0.41527   0.38381   0.00000  Uiso   1.00
H1281  H     0.76796   0.44216   0.40005   0.00000  Uiso   1.00
H1282  H     0.90320   0.57896   0.64054   0.00000  Uiso   1.00
H1283  H     0.93483   0.53712   0.62985   0.00000  Uiso   1.00
H1284  H     0.71143   0.44853   0.57964   0.00000  Uiso   1.00
H1285  H     0.94265   0.47056   0.35537   0.00000  Uiso   1.00
H1286  H     0.71658   0.45310   0.64160   0.00000  Uiso   1.00
H1287  H     0.73552   0.37823   0.64815   0.00000  Uiso   1.00
H1288  H     0.67543   0.38793   0.61527   0.00000  Uiso   1.00
H1289  H     0.72856   0.37481   0.58537   0.00000  Uiso   1.00
H1290  H     0.95422   0.54376   0.37475   0.00000  Uiso   1.00
H1291  H     0.94312   0.55642   0.43325   0.00000  Uiso   1.00
H1292  H     0.93235   0.62892   0.41192   0.00000  Uiso   1.00
H1293  H     0.99453   0.60952   0.40777   0.00000  Uiso   1.00
H1294  H     0.95248   0.61764   0.35586   0.00000  Uiso   1.00
H1295  H     0.97997   0.42651   0.34961   0.00000  Uiso   1.00
H1296  H     0.93725   0.42806   0.39446   0.00000  Uiso   1.00
H1297  H     0.95830   0.57786   0.53687   0.00000  Uiso   1.00
H1298  H     0.68371   0.58070   0.51042   0.00000  Uiso   1.00
H1299  H     0.67234   0.59088   0.61375   0.00000  Uiso   1.00
H1300  H     0.73104   0.59465   0.58688   0.00000  Uiso   1.00
N1301  N     0.83335   0.50001   0.61736   0.00000  Uiso   1.00
N1302  N     0.83332   0.49999   0.38264   0.00000  Uiso   1.00
N1303  N     0.75762   0.37435   0.43809   0.00000  Uiso   1.00
N1304  N     0.86741   0.62454   0.58102   0.00000  Uiso   1.00
N1305  N     0.78798   0.43428   0.37299   0.00000  Uiso   1.00
N1306  N     0.89972   0.55098   0.62389   0.00000  Uiso   1.00
O1307  O     0.83333   0.43989   0.53958   0.00000  Uiso   1.00
O1308  O     0.67539   0.53044   0.55360   0.00000  Uiso   1.00
O1309  O     0.77396   0.62270   0.42858   0.00000  Uiso   1.00
O1310  O     0.85372   0.37524   0.58376   0.00000  Uiso   1.00
O1311  O     0.78379   0.43989   0.61123   0.00000  Uiso   1.00
O1312  O     0.88048   0.56278   0.38589   0.00000  Uiso   1.00
O1313  O     0.83334   0.56011   0.46042   0.00000  Uiso   1.00
O1314  O     0.83333   0.43988   0.46039   0.00000  Uiso   1.00
O1315  O     0.83334   0.56012   0.53961   0.00000  Uiso   1.00
O1316  O     0.75828   0.50000   0.53046   0.00000  Uiso   1.00
O1317  O     0.90839   0.50000   0.46954   0.00000  Uiso   1.00
O1318  O     0.75828   0.49999   0.45127   0.00000  Uiso   1.00
O1319  O     0.90839   0.50001   0.54873   0.00000  Uiso   1.00
O1320  O     0.98615   0.49152   0.43708   0.00000  Uiso   1.00
C1321  C     0.16408   0.75419   0.50005   0.00000  Uiso   1.00
C1322  C     0.18117   0.68858   0.54122   0.00000  Uiso   1.00
C1323  C     0.16299   0.95748   0.50016   0.00000  Uiso   1.00
C1324  C     0.16051   0.70942   0.50133   0.00000  Uiso   1.00
C1325  C     0.14148   0.80354   0.35423   0.00000  Uiso   1.00
C1326  C     0.19731   0.85981   0.64509   0.00000  Uiso   1.00
C1327  C     0.13871   0.80522   0.63814   0.00000  Uiso   1.00
C1328  C     0.19564   0.86144   0.36137   0.00000  Uiso   1.00
C1329  C     0.00629   0.79682   0.40834   0.00000  Uiso   1.00
C1330  C     0.29692   0.77931   0.37485   0.00000  Uiso   1.00
C1331  C     0.33299   0.90515   0.54232   0.00000  Uiso   1.00
C1332  C     0.16553   0.91257   0.49990   0.00000  Uiso   1.00
C1333  C     0.02287   0.93219   0.58172   0.00000  Uiso   1.00
C1334  C     0.12749   0.96220   0.38611   0.00000  Uiso   1.00
C1335  C     0.10245   0.93142   0.35142   0.00000  Uiso   1.00
C1336  C     0.23834   0.71221   0.60243   0.00000  Uiso   1.00
C1337  C     0.24280   0.69935   0.65340   0.00000  Uiso   1.00
C1338  C     0.06429   0.76975   0.61252   0.00000  Uiso   1.00
C1339  C     0.05011   0.72484   0.61554   0.00000  Uiso   1.00
C1340  C     0.26715   0.89756   0.39634   0.00000  Uiso   1.00
C1341  C     0.28756   0.94107   0.39252   0.00000  Uiso   1.00
C1342  C     0.06821   0.83276   0.48811   0.00000  Uiso   1.00
C1343  C     0.26500   0.83452   0.51147   0.00000  Uiso   1.00
C1344  C     0.01288   0.83029   0.48116   0.00000  Uiso   1.00
C1345  C     0.31980   0.84069   0.51637   0.00000  Uiso   1.00
C1346  C     0.13127   0.68747   0.46568   0.00000  Uiso   1.00
C1347  C     0.18257   0.97937   0.54015   0.00000  Uiso   1.00
C1348  C     0.13587   0.97821   0.46308   0.00000  Uiso   1.00
Cu1349 Cu    0.16667   0.83334   0.54689   0.00000  Uiso   1.00
Cu1350 Cu    0.16667   0.83333   0.45311   0.00000  Uiso   1.00
H1351  H     0.02458   0.77141   0.42843   0.00000  Uiso   1.00
H1352  H     0.01531   0.96457   0.57315   0.00000  Uiso   1.00
H1353  H     0.06820   0.71980   0.46153   0.00000  Uiso   1.00
H1354  H     0.06684   0.68721   0.41823   0.00000  Uiso   1.00
H1355  H     0.17881   0.96511   0.60736   0.00000  Uiso   1.00
H1356  H     0.23908   0.96483   0.59008   0.00000  Uiso   1.00
H1357  H     0.16914   0.95840   0.38988   0.00000  Uiso   1.00
H1358  H     0.11966   0.99312   0.37198   0.00000  Uiso   1.00
H1359  H     0.06203   0.93894   0.34332   0.00000  Uiso   1.00
H1360  H     0.12158   0.93215   0.65276   0.00000  Uiso   1.00
H1361  H     0.10454   0.90035   0.36635   0.00000  Uiso   1.00
H1362  H     0.03229   0.81312   0.38693   0.00000  Uiso   1.00
H1363  H     0.25049   0.74471   0.60084   0.00000  Uiso   1.00
H1364  H     0.26482   0.69464   0.58343   0.00000  Uiso   1.00
H1365  H     0.28309   0.69715   0.33446   0.00000  Uiso   1.00
H1366  H     0.22310   0.72146   0.34008   0.00000  Uiso   1.00
H1367  H     0.22481   0.66930   0.65811   0.00000  Uiso   1.00
H1368  H     0.15130   0.74860   0.38381   0.00000  Uiso   1.00
H1369  H     0.10129   0.77550   0.40005   0.00000  Uiso   1.00
H1370  H     0.23653   0.91229   0.64054   0.00000  Uiso   1.00
H1371  H     0.26816   0.87046   0.62985   0.00000  Uiso   1.00
H1372  H     0.04476   0.78186   0.57964   0.00000  Uiso   1.00
H1373  H     0.27598   0.80390   0.35537   0.00000  Uiso   1.00
H1374  H     0.04992   0.78643   0.64160   0.00000  Uiso   1.00
H1375  H     0.06885   0.71156   0.64815   0.00000  Uiso   1.00
H1376  H     0.00877   0.72126   0.61527   0.00000  Uiso   1.00
H1377  H     0.06189   0.70814   0.58537   0.00000  Uiso   1.00
H1378  H     0.28755   0.87709   0.37475   0.00000  Uiso   1.00
H1379  H     0.27645   0.88975   0.43325   0.00000  Uiso   1.00
H1380  H     0.26569   0.96225   0.41192   0.00000  Uiso   1.00
H1381  H     0.32787   0.94285   0.40777   0.00000  Uiso   1.00
H1382  H     0.28581   0.95097   0.35586   0.00000  Uiso   1.00
H1383  H     0.31330   0.75984   0.34961   0.00000  Uiso   1.00
H1384  H     0.27058   0.76140   0.39446   0.00000  Uiso   1.00
H1385  H     0.29163   0.91119   0.53687   0.00000  Uiso   1.00
H1386  H     0.01704   0.91403   0.51042   0.00000  Uiso   1.00
H1387  H     0.00568   0.92421   0.61375   0.00000  Uiso   1.00
H1388  H     0.06437   0.92799   0.58688   0.00000  Uiso   1.00
N1389  N     0.16668   0.83334   0.61736   0.00000  Uiso   1.00
N1390  N     0.16665   0.83332   0.38264   0.00000  Uiso   1.00
N1391  N     0.09095   0.70768   0.43809   0.00000  Uiso   1.00
N1392  N     0.20074   0.95787   0.58102   0.00000  Uiso   1.00
N1393  N     0.12131   0.76761   0.37299   0.00000  Uiso   1.00
N1394  N     0.23305   0.88431   0.62389   0.00000  Uiso   1.00
O1395  O     0.16666   0.77322   0.53958   0.00000  Uiso   1.00
O1396  O     0.00872   0.86377   0.55360   0.00000  Uiso   1.00
O1397  O     0.10730   0.95603   0.42858   0.00000  Uiso   1.00
O1398  O     0.18705   0.70857   0.58376   0.00000  Uiso   1.00
O1399  O     0.11712   0.77323   0.61123   0.00000  Uiso   1.00
O1400  O     0.21381   0.89611   0.38589   0.00000  Uiso   1.00
O1401  O     0.16667   0.89345   0.46042   0.00000  Uiso   1.00
O1402  O     0.16666   0.77321   0.46039   0.00000  Uiso   1.00
O1403  O     0.16667   0.89346   0.53961   0.00000  Uiso   1.00
O1404  O     0.09161   0.83334   0.53046   0.00000  Uiso   1.00
O1405  O     0.24172   0.83333   0.46954   0.00000  Uiso   1.00
O1406  O     0.09161   0.83333   0.45127   0.00000  Uiso   1.00
O1407  O     0.24172   0.83334   0.54873   0.00000  Uiso   1.00
O1408  O     0.31948   0.82485   0.43708   0.00000  Uiso   1.00
C1409  C     0.49742   0.75419   0.50005   0.00000  Uiso   1.00
C1410  C     0.51451   0.68858   0.54122   0.00000  Uiso   1.00
C1411  C     0.49633   0.95748   0.50016   0.00000  Uiso   1.00
C1412  C     0.49384   0.70942   0.50133   0.00000  Uiso   1.00
C1413  C     0.47481   0.80354   0.35423   0.00000  Uiso   1.00
C1414  C     0.53064   0.85981   0.64509   0.00000  Uiso   1.00
C1415  C     0.47204   0.80522   0.63814   0.00000  Uiso   1.00
C1416  C     0.52897   0.86144   0.36137   0.00000  Uiso   1.00
C1417  C     0.33962   0.79682   0.40834   0.00000  Uiso   1.00
C1418  C     0.63026   0.77931   0.37485   0.00000  Uiso   1.00
C1419  C     0.66632   0.90515   0.54232   0.00000  Uiso   1.00
C1420  C     0.49886   0.91257   0.49990   0.00000  Uiso   1.00
C1421  C     0.35620   0.93219   0.58172   0.00000  Uiso   1.00
C1422  C     0.46082   0.96220   0.38611   0.00000  Uiso   1.00
C1423  C     0.43578   0.93142   0.35142   0.00000  Uiso   1.00
C1424  C     0.57168   0.71221   0.60243   0.00000  Uiso   1.00
C1425  C     0.57614   0.69935   0.65340   0.00000  Uiso   1.00
C1426  C     0.39762   0.76975   0.61252   0.00000  Uiso   1.00
C1427  C     0.38344   0.72484   0.61554   0.00000  Uiso   1.00
C1428  C     0.60048   0.89756   0.39634   0.00000  Uiso   1.00
C1429  C     0.62090   0.94107   0.39252   0.00000  Uiso   1.00
C1430  C     0.40155   0.83276   0.48811   0.00000  Uiso   1.00
C1431  C     0.59833   0.83452   0.51147   0.00000  Uiso   1.00
C1432  C     0.34621   0.83029   0.48116   0.00000  Uiso   1.00
C1433  C     0.65313   0.84069   0.51637   0.00000  Uiso   1.00
C1434  C     0.46461   0.68747   0.46568   0.00000  Uiso   1.00
C1435  C     0.51590   0.97937   0.54015   0.00000  Uiso   1.00
C1436  C     0.46921   0.97821   0.46308   0.00000  Uiso   1.00
Cu1437 Cu    0.50000   0.83334   0.54689   0.00000  Uiso   1.00
Cu1438 Cu    0.50000   0.83333   0.45311   0.00000  Uiso   1.00
H1439  H     0.35791   0.77141   0.42843   0.00000  Uiso   1.00
H1440  H     0.34864   0.96457   0.57315   0.00000  Uiso   1.00
H1441  H     0.40153   0.71980   0.46153   0.00000  Uiso   1.00
H1442  H     0.40018   0.68721   0.41823   0.00000  Uiso   1.00
H1443  H     0.51214   0.96511   0.60736   0.00000  Uiso   1.00
H1444  H     0.57241   0.96483   0.59008   0.00000  Uiso   1.00
H1445  H     0.50247   0.95840   0.38988   0.00000  Uiso   1.00
H1446  H     0.45300   0.99312   0.37198   0.00000  Uiso   1.00
H1447  H     0.39536   0.93894   0.34332   0.00000  Uiso   1.00
H1448  H     0.45491   0.93215   0.65276   0.00000  Uiso   1.00
H1449  H     0.43787   0.90035   0.36635   0.00000  Uiso   1.00
H1450  H     0.36562   0.81312   0.38693   0.00000  Uiso   1.00
H1451  H     0.58383   0.74471   0.60084   0.00000  Uiso   1.00
H1452  H     0.59816   0.69464   0.58343   0.00000  Uiso   1.00
H1453  H     0.61643   0.69715   0.33446   0.00000  Uiso   1.00
H1454  H     0.55643   0.72146   0.34008   0.00000  Uiso   1.00
H1455  H     0.55815   0.66930   0.65811   0.00000  Uiso   1.00
H1456  H     0.48463   0.74860   0.38381   0.00000  Uiso   1.00
H1457  H     0.43463   0.77550   0.40005   0.00000  Uiso   1.00
H1458  H     0.56986   0.91229   0.64054   0.00000  Uiso   1.00
H1459  H     0.60149   0.87046   0.62985   0.00000  Uiso   1.00
H1460  H     0.37809   0.78186   0.57964   0.00000  Uiso   1.00
H1461  H     0.60932   0.80390   0.35537   0.00000  Uiso   1.00
H1462  H     0.38325   0.78643   0.64160   0.00000  Uiso   1.00
H1463  H     0.40219   0.71156   0.64815   0.00000  Uiso   1.00
H1464  H     0.34210   0.72126   0.61527   0.00000  Uiso   1.00
H1465  H     0.39522   0.70814   0.58537   0.00000  Uiso   1.00
H1466  H     0.62089   0.87709   0.37475   0.00000  Uiso   1.00
H1467  H     0.60979   0.88975   0.43325   0.00000  Uiso   1.00
H1468  H     0.59902   0.96225   0.41192   0.00000  Uiso   1.00
H1469  H     0.66120   0.94285   0.40777   0.00000  Uiso   1.00
H1470  H     0.61915   0.95097   0.35586   0.00000  Uiso   1.00
H1471  H     0.64663   0.75984   0.34961   0.00000  Uiso   1.00
H1472  H     0.60392   0.76140   0.39446   0.00000  Uiso   1.00
H1473  H     0.62497   0.91119   0.53687   0.00000  Uiso   1.00
H1474  H     0.35038   0.91403   0.51042   0.00000  Uiso   1.00
H1475  H     0.33901   0.92421   0.61375   0.00000  Uiso   1.00
H1476  H     0.39771   0.92799   0.58688   0.00000  Uiso   1.00
N1477  N     0.50001   0.83334   0.61736   0.00000  Uiso   1.00
N1478  N     0.49999   0.83332   0.38264   0.00000  Uiso   1.00
N1479  N     0.42429   0.70768   0.43809   0.00000  Uiso   1.00
N1480  N     0.53408   0.95787   0.58102   0.00000  Uiso   1.00
N1481  N     0.45465   0.76761   0.37299   0.00000  Uiso   1.00
N1482  N     0.56639   0.88431   0.62389   0.00000  Uiso   1.00
O1483  O     0.50000   0.77322   0.53958   0.00000  Uiso   1.00
O1484  O     0.34206   0.86377   0.55360   0.00000  Uiso   1.00
O1485  O     0.44063   0.95603   0.42858   0.00000  Uiso   1.00
O1486  O     0.52039   0.70857   0.58376   0.00000  Uiso   1.00
O1487  O     0.45046   0.77323   0.61123   0.00000  Uiso   1.00
O1488  O     0.54715   0.89611   0.38589   0.00000  Uiso   1.00
O1489  O     0.50000   0.89345   0.46042   0.00000  Uiso   1.00
O1490  O     0.50000   0.77321   0.46039   0.00000  Uiso   1.00
O1491  O     0.50000   0.89346   0.53961   0.00000  Uiso   1.00
O1492  O     0.42495   0.83334   0.53046   0.00000  Uiso   1.00
O1493  O     0.57505   0.83333   0.46954   0.00000  Uiso   1.00
O1494  O     0.42494   0.83333   0.45127   0.00000  Uiso   1.00
O1495  O     0.57506   0.83334   0.54873   0.00000  Uiso   1.00
O1496  O     0.65282   0.82485   0.43708   0.00000  Uiso   1.00
C1497  C     0.83075   0.75419   0.50005   0.00000  Uiso   1.00
C1498  C     0.84784   0.68858   0.54122   0.00000  Uiso   1.00
C1499  C     0.82966   0.95748   0.50016   0.00000  Uiso   1.00
C1500  C     0.82717   0.70942   0.50133   0.00000  Uiso   1.00
C1501  C     0.80814   0.80354   0.35423   0.00000  Uiso   1.00
C1502  C     0.86397   0.85981   0.64509   0.00000  Uiso   1.00
C1503  C     0.80537   0.80522   0.63814   0.00000  Uiso   1.00
C1504  C     0.86231   0.86144   0.36137   0.00000  Uiso   1.00
C1505  C     0.67296   0.79682   0.40834   0.00000  Uiso   1.00
C1506  C     0.96359   0.77931   0.37485   0.00000  Uiso   1.00
C1507  C     0.99966   0.90515   0.54232   0.00000  Uiso   1.00
C1508  C     0.83219   0.91257   0.49990   0.00000  Uiso   1.00
C1509  C     0.68953   0.93219   0.58172   0.00000  Uiso   1.00
C1510  C     0.79415   0.96220   0.38611   0.00000  Uiso   1.00
C1511  C     0.76912   0.93142   0.35142   0.00000  Uiso   1.00
C1512  C     0.90501   0.71221   0.60243   0.00000  Uiso   1.00
C1513  C     0.90947   0.69935   0.65340   0.00000  Uiso   1.00
C1514  C     0.73096   0.76975   0.61252   0.00000  Uiso   1.00
C1515  C     0.71678   0.72484   0.61554   0.00000  Uiso   1.00
C1516  C     0.93382   0.89756   0.39634   0.00000  Uiso   1.00
C1517  C     0.95423   0.94107   0.39252   0.00000  Uiso   1.00
C1518  C     0.73488   0.83276   0.48811   0.00000  Uiso   1.00
C1519  C     0.93166   0.83452   0.51147   0.00000  Uiso   1.00
C1520  C     0.67955   0.83029   0.48116   0.00000  Uiso   1.00
C1521  C     0.98647   0.84069   0.51637   0.00000  Uiso   1.00
C1522  C     0.79794   0.68747   0.46568   0.00000  Uiso   1.00
C1523  C     0.84923   0.97937   0.54015   0.00000  Uiso   1.00
C1524  C     0.80254   0.97821   0.46308   0.00000  Uiso   1.00
Cu1525 Cu    0.83333   0.83334   0.54689   0.00000  Uiso   1.00
Cu1526 Cu    0.83333   0.83333   0.45311   0.00000  Uiso   1.00
H1527  H     0.69124   0.77141   0.42843   0.00000  Uiso   1.00
H1528  H     0.68197   0.96457   0.57315   0.00000  Uiso   1.00
H1529  H     0.73487   0.71980   0.46153   0.00000  Uiso   1.00
H1530  H     0.73351   0.68721   0.41823   0.00000  Uiso   1.00
H1531  H     0.84547   0.96511   0.60736   0.00000  Uiso   1.00
H1532  H     0.90575   0.96483   0.59008   0.00000  Uiso   1.00
H1533  H     0.83580   0.95840   0.38988   0.00000  Uiso   1.00
H1534  H     0.78633   0.99312   0.37198   0.00000  Uiso   1.00
H1535  H     0.72869   0.93894   0.34332   0.00000  Uiso   1.00
H1536  H     0.78824   0.93215   0.65276   0.00000  Uiso   1.00
H1537  H     0.77120   0.90035   0.36635   0.00000  Uiso   1.00
H1538  H     0.69895   0.81312   0.38693   0.00000  Uiso   1.00
H1539  H     0.91716   0.74471   0.60084   0.00000  Uiso   1.00
H1540  H     0.93149   0.69464   0.58343   0.00000  Uiso   1.00
H1541  H     0.94976   0.69715   0.33446   0.00000  Uiso   1.00
H1542  H     0.88976   0.72146   0.34008   0.00000  Uiso   1.00
H1543  H     0.89148   0.66930   0.65811   0.00000  Uiso   1.00
H1544  H     0.81797   0.74860   0.38381   0.00000  Uiso   1.00
H1545  H     0.76796   0.77550   0.40005   0.00000  Uiso   1.00
H1546  H     0.90320   0.91229   0.64054   0.00000  Uiso   1.00
H1547  H     0.93483   0.87046   0.62985   0.00000  Uiso   1.00
H1548  H     0.71143   0.78186   0.57964   0.00000  Uiso   1.00
H1549  H     0.94265   0.80390   0.35537   0.00000  Uiso   1.00
H1550  H     0.71658   0.78643   0.64160   0.00000  Uiso   1.00
H1551  H     0.73552   0.71156   0.64815   0.00000  Uiso   1.00
H1552  H     0.67543   0.72126   0.61527   0.00000  Uiso   1.00
H1553  H     0.72856   0.70814   0.58537   0.00000  Uiso   1.00
H1554  H     0.95422   0.87709   0.37475   0.00000  Uiso   1.00
H1555  H     0.94312   0.88975   0.43325   0.00000  Uiso   1.00
H1556  H     0.93235   0.96225   0.41192   0.00000  Uiso   1.00
H1557  H     0.99453   0.94285   0.40777   0.00000  Uiso   1.00
H1558  H     0.95248   0.95097   0.35586   0.00000  Uiso   1.00
H1559  H     0.97997   0.75984   0.34961   0.00000  Uiso   1.00
H1560  H     0.93725   0.76140   0.39446   0.00000  Uiso   1.00
H1561  H     0.95830   0.91119   0.53687   0.00000  Uiso   1.00
H1562  H     0.68371   0.91403   0.51042   0.00000  Uiso   1.00
H1563  H     0.67234   0.92421   0.61375   0.00000  Uiso   1.00
H1564  H     0.73104   0.92799   0.58688   0.00000  Uiso   1.00
N1565  N     0.83335   0.83334   0.61736   0.00000  Uiso   1.00
N1566  N     0.83332   0.83332   0.38264   0.00000  Uiso   1.00
N1567  N     0.75762   0.70768   0.43809   0.00000  Uiso   1.00
N1568  N     0.86741   0.95787   0.58102   0.00000  Uiso   1.00
N1569  N     0.78798   0.76761   0.37299   0.00000  Uiso   1.00
N1570  N     0.89972   0.88431   0.62389   0.00000  Uiso   1.00
O1571  O     0.83333   0.77322   0.53958   0.00000  Uiso   1.00
O1572  O     0.67539   0.86377   0.55360   0.00000  Uiso   1.00
O1573  O     0.77396   0.95603   0.42858   0.00000  Uiso   1.00
O1574  O     0.85372   0.70857   0.58376   0.00000  Uiso   1.00
O1575  O     0.78379   0.77323   0.61123   0.00000  Uiso   1.00
O1576  O     0.88048   0.89611   0.38589   0.00000  Uiso   1.00
O1577  O     0.83334   0.89345   0.46042   0.00000  Uiso   1.00
O1578  O     0.83333   0.77321   0.46039   0.00000  Uiso   1.00
O1579  O     0.83334   0.89346   0.53961   0.00000  Uiso   1.00
O1580  O     0.75828   0.83334   0.53046   0.00000  Uiso   1.00
O1581  O     0.90839   0.83333   0.46954   0.00000  Uiso   1.00
O1582  O     0.75828   0.83333   0.45127   0.00000  Uiso   1.00
O1583  O     0.90839   0.83334   0.54873   0.00000  Uiso   1.00
O1584  O     0.98615   0.82485   0.43708   0.00000  Uiso   1.00
C1585  C     0.16408   0.08752   0.83338   0.00000  Uiso   1.00
C1586  C     0.18117   0.02192   0.87456   0.00000  Uiso   1.00
C1587  C     0.16299   0.29082   0.83350   0.00000  Uiso   1.00
C1588  C     0.16051   0.04275   0.83467   0.00000  Uiso   1.00
C1589  C     0.14148   0.13687   0.68756   0.00000  Uiso   1.00
C1590  C     0.19731   0.19314   0.97843   0.00000  Uiso   1.00
C1591  C     0.13871   0.13855   0.97147   0.00000  Uiso   1.00
C1592  C     0.19564   0.19478   0.69470   0.00000  Uiso   1.00
C1593  C     0.00629   0.13016   0.74167   0.00000  Uiso   1.00
C1594  C     0.29692   0.11265   0.70818   0.00000  Uiso   1.00
C1595  C     0.33299   0.23848   0.87565   0.00000  Uiso   1.00
C1596  C     0.16553   0.24591   0.83324   0.00000  Uiso   1.00
C1597  C     0.02287   0.26552   0.91505   0.00000  Uiso   1.00
C1598  C     0.12749   0.29553   0.71944   0.00000  Uiso   1.00
C1599  C     0.10245   0.26475   0.68475   0.00000  Uiso   1.00
C1600  C     0.23834   0.04554   0.93577   0.00000  Uiso   1.00
C1601  C     0.24280   0.03268   0.98673   0.00000  Uiso   1.00
C1602  C     0.06429   0.10308   0.94585   0.00000  Uiso   1.00
C1603  C     0.05011   0.05817   0.94887   0.00000  Uiso   1.00
C1604  C     0.26715   0.23089   0.72967   0.00000  Uiso   1.00
C1605  C     0.28756   0.27441   0.72585   0.00000  Uiso   1.00
C1606  C     0.06821   0.16610   0.82144   0.00000  Uiso   1.00
C1607  C     0.26500   0.16785   0.84480   0.00000  Uiso   1.00
C1608  C     0.01288   0.16362   0.81449   0.00000  Uiso   1.00
C1609  C     0.31980   0.17403   0.84970   0.00000  Uiso   1.00
C1610  C     0.13127   0.02080   0.79901   0.00000  Uiso   1.00
C1611  C     0.18257   0.31271   0.87348   0.00000  Uiso   1.00
C1612  C     0.13587   0.31154   0.79641   0.00000  Uiso   1.00
Cu1613 Cu    0.16667   0.16667   0.88022   0.00000  Uiso   1.00
Cu1614 Cu    0.16667   0.16666   0.78645   0.00000  Uiso   1.00
H1615  H     0.02458   0.10474   0.76176   0.00000  Uiso   1.00
H1616  H     0.01531   0.29791   0.90648   0.00000  Uiso   1.00
H1617  H     0.06820   0.05314   0.79486   0.00000  Uiso   1.00
H1618  H     0.06684   0.02055   0.75156   0.00000  Uiso   1.00
H1619  H     0.17881   0.29844   0.94069   0.00000  Uiso   1.00
H1620  H     0.23908   0.29816   0.92341   0.00000  Uiso   1.00
H1621  H     0.16914   0.29173   0.72321   0.00000  Uiso   1.00
H1622  H     0.11966   0.32646   0.70532   0.00000  Uiso   1.00
H1623  H     0.06203   0.27227   0.67665   0.00000  Uiso   1.00
H1624  H     0.12158   0.26548   0.98610   0.00000  Uiso   1.00
H1625  H     0.10454   0.23369   0.69968   0.00000  Uiso   1.00
H1626  H     0.03229   0.14646   0.72026   0.00000  Uiso   1.00
H1627  H     0.25049   0.07804   0.93418   0.00000  Uiso   1.00
H1628  H     0.26482   0.02797   0.91676   0.00000  Uiso   1.00
H1629  H     0.28309   0.03048   0.66780   0.00000  Uiso   1.00
H1630  H     0.22310   0.05480   0.67342   0.00000  Uiso   1.00
H1631  H     0.22481   0.00263   0.99144   0.00000  Uiso   1.00
H1632  H     0.15130   0.08193   0.71714   0.00000  Uiso   1.00
H1633  H     0.10129   0.10883   0.73338   0.00000  Uiso   1.00
H1634  H     0.23653   0.24563   0.97387   0.00000  Uiso   1.00
H1635  H     0.26816   0.20379   0.96318   0.00000  Uiso   1.00
H1636  H     0.04476   0.11519   0.91297   0.00000  Uiso   1.00
H1637  H     0.27598   0.13723   0.68870   0.00000  Uiso   1.00
H1638  H     0.04992   0.11977   0.97493   0.00000  Uiso   1.00
H1639  H     0.06885   0.04489   0.98149   0.00000  Uiso   1.00
H1640  H     0.00877   0.05460   0.94861   0.00000  Uiso   1.00
H1641  H     0.06189   0.04147   0.91870   0.00000  Uiso   1.00
H1642  H     0.28755   0.21043   0.70808   0.00000  Uiso   1.00
H1643  H     0.27645   0.22308   0.76659   0.00000  Uiso   1.00
H1644  H     0.26569   0.29558   0.74526   0.00000  Uiso   1.00
H1645  H     0.32787   0.27618   0.74111   0.00000  Uiso   1.00
H1646  H     0.28581   0.28431   0.68920   0.00000  Uiso   1.00
H1647  H     0.31330   0.09317   0.68295   0.00000  Uiso   1.00
H1648  H     0.27058   0.09473   0.72779   0.00000  Uiso   1.00
H1649  H     0.29163   0.24453   0.87021   0.00000  Uiso   1.00
H1650  H     0.01704   0.24737   0.84375   0.00000  Uiso   1.00
H1651  H     0.00568   0.25754   0.94708   0.00000  Uiso   1.00
H1652  H     0.06437   0.26132   0.92021   0.00000  Uiso   1.00
N1653  N     0.16668   0.16668   0.95069   0.00000  Uiso   1.00
N1654  N     0.16665   0.16666   0.71597   0.00000  Uiso   1.00
N1655  N     0.09095   0.04101   0.77143   0.00000  Uiso   1.00
N1656  N     0.20074   0.29120   0.91435   0.00000  Uiso   1.00
N1657  N     0.12131   0.10095   0.70632   0.00000  Uiso   1.00
N1658  N     0.23305   0.21764   0.95722   0.00000  Uiso   1.00
O1659  O     0.16666   0.10655   0.87291   0.00000  Uiso   1.00
O1660  O     0.00872   0.19711   0.88694   0.00000  Uiso   1.00
O1661  O     0.10730   0.28937   0.76192   0.00000  Uiso   1.00
O1662  O     0.18705   0.04191   0.91709   0.00000  Uiso   1.00
O1663  O     0.11712   0.10656   0.94456   0.00000  Uiso   1.00
O1664  O     0.21381   0.22945   0.71922   0.00000  Uiso   1.00
O1665  O     0.16667   0.22678   0.79375   0.00000  Uiso   1.00
O1666  O     0.16666   0.10654   0.79372   0.00000  Uiso   1.00
O1667  O     0.16667   0.22679   0.87294   0.00000  Uiso   1.00
O1668  O     0.09161   0.16667   0.86379   0.00000  Uiso   1.00
O1669  O     0.24172   0.16666   0.80288   0.00000  Uiso   1.00
O1670  O     0.09161   0.16666   0.78460   0.00000  Uiso   1.00
O1671  O     0.24172   0.16667   0.88207   0.00000  Uiso   1.00
O1672  O     0.31948   0.15818   0.77042   0.00000  Uiso   1.00
C1673  C     0.49742   0.08752   0.83338   0.00000  Uiso   1.00
C1674  C     0.51451   0.02192   0.87456   0.00000  Uiso   1.00
C1675  C     0.49633   0.29082   0.83350   0.00000  Uiso   1.00
C1676  C     0.49384   0.04275   0.83467   0.00000  Uiso   1.00
C1677  C     0.47481   0.13687   0.68756   0.00000  Uiso   1.00
C1678  C     0.53064   0.19314   0.97843   0.00000  Uiso   1.00
C1679  C     0.47204   0.13855   0.97147   0.00000  Uiso   1.00
C1680  C     0.52897   0.19478   0.69470   0.00000  Uiso   1.00
C1681  C     0.33962   0.13016   0.74167   0.00000  Uiso   1.00
C1682  C     0.63026   0.11265   0.70818   0.00000  Uiso   1.00
C1683  C     0.66632   0.23848   0.87565   0.00000  Uiso   1.00
C1684  C     0.49886   0.24591   0.83324   0.00000  Uiso   1.00
C1685  C     0.35620   0.26552   0.91505   0.00000  Uiso   1.00
C1686  C     0.46082   0.29553   0.71944   0.00000  Uiso   1.00
C1687  C     0.43578   0.26475   0.68475   0.00000  Uiso   1.00
C1688  C     0.57168   0.04554   0.93577   0.00000  Uiso   1.00
C1689  C     0.57614   0.03268   0.98673   0.00000  Uiso   1.00
C1690  C     0.39762   0.10308   0.94585   0.00000  Uiso   1.00
C1691  C     0.38344   0.05817   0.94887   0.00000  Uiso   1.00
C1692  C     0.60048   0.23089   0.72967   0.00000  Uiso   1.00
C1693  C     0.62090   0.27441   0.72585   0.00000  Uiso   1.00
C1694  C     0.40155   0.16610   0.82144   0.00000  Uiso   1.00
C1695  C     0.59833   0.16785   0.84480   0.00000  Uiso   1.00
C1696  C     0.34621   0.16362   0.81449   0.00000  Uiso   1.00
C1697  C     0.65313   0.17403   0.84970   0.00000  Uiso   1.00
C1698  C     0.46461   0.02080   0.79901   0.00000  Uiso   1.00
C1699  C     0.51590   0.31271   0.87348   0.00000  Uiso   1.00
C1700  C     0.46921   0.31154   0.79641   0.00000  Uiso   1.00
Cu1701 Cu    0.50000   0.16667   0.88022   0.00000  Uiso   1.00
Cu1702 Cu    0.50000   0.16666   0.78645   0.00000  Uiso   1.00
H1703  H     0.35791   0.10474   0.76176   0.00000  Uiso   1.00
H1704  H     0.34864   0.29791   0.90648   0.00000  Uiso   1.00
H1705  H     0.40153   0.05314   0.79486   0.00000  Uiso   1.00
H1706  H     0.40018   0.02055   0.75156   0.00000  Uiso   1.00
H1707  H     0.51214   0.29844   0.94069   0.00000  Uiso   1.00
H1708  H     0.57241   0.29816   0.92341   0.00000  Uiso   1.00
H1709  H     0.50247   0.29173   0.72321   0.00000  Uiso   1.00
H1710  H     0.45300   0.32646   0.70532   0.00000  Uiso   1.00
H1711  H     0.39536   0.27227   0.67665   0.00000  Uiso   1.00
H1712  H     0.45491   0.26548   0.98610   0.00000  Uiso   1.00
H1713  H     0.43787   0.23369   0.69968   0.00000  Uiso   1.00
H1714  H     0.36562   0.14646   0.72026   0.00000  Uiso   1.00
H1715  H     0.58383   0.07804   0.93418   0.00000  Uiso   1.00
H1716  H     0.59816   0.02797   0.91676   0.00000  Uiso   1.00
H1717  H     0.61643   0.03048   0.66780   0.00000  Uiso   1.00
H1718  H     0.55643   0.05480   0.67342   0.00000  Uiso   1.00
H1719  H     0.55815   0.00263   0.99144   0.00000  Uiso   1.00
H1720  H     0.48463   0.08193   0.71714   0.00000  Uiso   1.00
H1721  H     0.43463   0.10883   0.73338   0.00000  Uiso   1.00
H1722  H     0.56986   0.24563   0.97387   0.00000  Uiso   1.00
H1723  H     0.60149   0.20379   0.96318   0.00000  Uiso   1.00
H1724  H     0.37809   0.11519   0.91297   0.00000  Uiso   1.00
H1725  H     0.60932   0.13723   0.68870   0.00000  Uiso   1.00
H1726  H     0.38325   0.11977   0.97493   0.00000  Uiso   1.00
H1727  H     0.40219   0.04489   0.98149   0.00000  Uiso   1.00
H1728  H     0.34210   0.05460   0.94861   0.00000  Uiso   1.00
H1729  H     0.39522   0.04147   0.91870   0.00000  Uiso   1.00
H1730  H     0.62089   0.21043   0.70808   0.00000  Uiso   1.00
H1731  H     0.60979   0.22308   0.76659   0.00000  Uiso   1.00
H1732  H     0.59902   0.29558   0.74526   0.00000  Uiso   1.00
H1733  H     0.66120   0.27618   0.74111   0.00000  Uiso   1.00
H1734  H     0.61915   0.28431   0.68920   0.00000  Uiso   1.00
H1735  H     0.64663   0.09317   0.68295   0.00000  Uiso   1.00
H1736  H     0.60392   0.09473   0.72779   0.00000  Uiso   1.00
H1737  H     0.62497   0.24453   0.87021   0.00000  Uiso   1.00
H1738  H     0.35038   0.24737   0.84375   0.00000  Uiso   1.00
H1739  H     0.33901   0.25754   0.94708   0.00000  Uiso   1.00
H1740  H     0.39771   0.26132   0.92021   0.00000  Uiso   1.00
N1741  N     0.50001   0.16668   0.95069   0.00000  Uiso   1.00
N1742  N     0.49999   0.16666   0.71597   0.00000  Uiso   1.00
N1743  N     0.42429   0.04101   0.77143   0.00000  Uiso   1.00
N1744  N     0.53408   0.29120   0.91435   0.00000  Uiso   1.00
N1745  N     0.45465   0.10095   0.70632   0.00000  Uiso   1.00
N1746  N     0.56639   0.21764   0.95722   0.00000  Uiso   1.00
O1747  O     0.50000   0.10655   0.87291   0.00000  Uiso   1.00
O1748  O     0.34206   0.19711   0.88694   0.00000  Uiso   1.00
O1749  O     0.44063   0.28937   0.76192   0.00000  Uiso   1.00
O1750  O     0.52039   0.04191   0.91709   0.00000  Uiso   1.00
O1751  O     0.45046   0.10656   0.94456   0.00000  Uiso   1.00
O1752  O     0.54715   0.22945   0.71922   0.00000  Uiso   1.00
O1753  O     0.50000   0.22678   0.79375   0.00000  Uiso   1.00
O1754  O     0.50000   0.10654   0.79372   0.00000  Uiso   1.00
O1755  O     0.50000   0.22679   0.87294   0.00000  Uiso   1.00
O1756  O     0.42495   0.16667   0.86379   0.00000  Uiso   1.00
O1757  O     0.57505   0.16666   0.80288   0.00000  Uiso   1.00
O1758  O     0.42494   0.16666   0.78460   0.00000  Uiso   1.00
O1759  O     0.57506   0.16667   0.88207   0.00000  Uiso   1.00
O1760  O     0.65282   0.15818   0.77042   0.00000  Uiso   1.00
C1761  C     0.83075   0.08752   0.83338   0.00000  Uiso   1.00
C1762  C     0.84784   0.02192   0.87456   0.00000  Uiso   1.00
C1763  C     0.82966   0.29082   0.83350   0.00000  Uiso   1.00
C1764  C     0.82717   0.04275   0.83467   0.00000  Uiso   1.00
C1765  C     0.80814   0.13687   0.68756   0.00000  Uiso   1.00
C1766  C     0.86397   0.19314   0.97843   0.00000  Uiso   1.00
C1767  C     0.80537   0.13855   0.97147   0.00000  Uiso   1.00
C1768  C     0.86231   0.19478   0.69470   0.00000  Uiso   1.00
C1769  C     0.67296   0.13016   0.74167   0.00000  Uiso   1.00
C1770  C     0.96359   0.11265   0.70818   0.00000  Uiso   1.00
C1771  C     0.99966   0.23848   0.87565   0.00000  Uiso   1.00
C1772  C     0.83219   0.24591   0.83324   0.00000  Uiso   1.00
C1773  C     0.68953   0.26552   0.91505   0.00000  Uiso   1.00
C1774  C     0.79415   0.29553   0.71944   0.00000  Uiso   1.00
C1775  C     0.76912   0.26475   0.68475   0.00000  Uiso   1.00
C1776  C     0.90501   0.04554   0.93577   0.00000  Uiso   1.00
C1777  C     0.90947   0.03268   0.98673   0.00000  Uiso   1.00
C1778  C     0.73096   0.10308   0.94585   0.00000  Uiso   1.00
C1779  C     0.71678   0.05817   0.94887   0.00000  Uiso   1.00
C1780  C     0.93382   0.23089   0.72967   0.00000  Uiso   1.00
C1781  C     0.95423   0.27441   0.72585   0.00000  Uiso   1.00
C1782  C     0.73488   0.16610   0.82144   0.00000  Uiso   1.00
C1783  C     0.93166   0.16785   0.84480   0.00000  Uiso   1.00
C1784  C     0.67955   0.16362   0.81449   0.00000  Uiso   1.00
C1785  C     0.98647   0.17403   0.84970   0.00000  Uiso   1.00
C1786  C     0.79794   0.02080   0.79901   0.00000  Uiso   1.00
C1787  C     0.84923   0.31271   0.87348   0.00000  Uiso   1.00
C1788  C     0.80254   0.31154   0.79641   0.00000  Uiso   1.00
Cu1789 Cu    0.83333   0.16667   0.88022   0.00000  Uiso   1.00
Cu1790 Cu    0.83333   0.16666   0.78645   0.00000  Uiso   1.00
H1791  H     0.69124   0.10474   0.76176   0.00000  Uiso   1.00
H1792  H     0.68197   0.29791   0.90648   0.00000  Uiso   1.00
H1793  H     0.73487   0.05314   0.79486   0.00000  Uiso   1.00
H1794  H     0.73351   0.02055   0.75156   0.00000  Uiso   1.00
H1795  H     0.84547   0.29844   0.94069   0.00000  Uiso   1.00
H1796  H     0.90575   0.29816   0.92341   0.00000  Uiso   1.00
H1797  H     0.83580   0.29173   0.72321   0.00000  Uiso   1.00
H1798  H     0.78633   0.32646   0.70532   0.00000  Uiso   1.00
H1799  H     0.72869   0.27227   0.67665   0.00000  Uiso   1.00
H1800  H     0.78824   0.26548   0.98610   0.00000  Uiso   1.00
H1801  H     0.77120   0.23369   0.69968   0.00000  Uiso   1.00
H1802  H     0.69895   0.14646   0.72026   0.00000  Uiso   1.00
H1803  H     0.91716   0.07804   0.93418   0.00000  Uiso   1.00
H1804  H     0.93149   0.02797   0.91676   0.00000  Uiso   1.00
H1805  H     0.94976   0.03048   0.66780   0.00000  Uiso   1.00
H1806  H     0.88976   0.05480   0.67342   0.00000  Uiso   1.00
H1807  H     0.89148   0.00263   0.99144   0.00000  Uiso   1.00
H1808  H     0.81797   0.08193   0.71714   0.00000  Uiso   1.00
H1809  H     0.76796   0.10883   0.73338   0.00000  Uiso   1.00
H1810  H     0.90320   0.24563   0.97387   0.00000  Uiso   1.00
H1811  H     0.93483   0.20379   0.96318   0.00000  Uiso   1.00
H1812  H     0.71143   0.11519   0.91297   0.00000  Uiso   1.00
H1813  H     0.94265   0.13723   0.68870   0.00000  Uiso   1.00
H1814  H     0.71658   0.11977   0.97493   0.00000  Uiso   1.00
H1815  H     0.73552   0.04489   0.98149   0.00000  Uiso   1.00
H1816  H     0.67543   0.05460   0.94861   0.00000  Uiso   1.00
H1817  H     0.72856   0.04147   0.91870   0.00000  Uiso   1.00
H1818  H     0.95422   0.21043   0.70808   0.00000  Uiso   1.00
H1819  H     0.94312   0.22308   0.76659   0.00000  Uiso   1.00
H1820  H     0.93235   0.29558   0.74526   0.00000  Uiso   1.00
H1821  H     0.99453   0.27618   0.74111   0.00000  Uiso   1.00
H1822  H     0.95248   0.28431   0.68920   0.00000  Uiso   1.00
H1823  H     0.97997   0.09317   0.68295   0.00000  Uiso   1.00
H1824  H     0.93725   0.09473   0.72779   0.00000  Uiso   1.00
H1825  H     0.95830   0.24453   0.87021   0.00000  Uiso   1.00
H1826  H     0.68371   0.24737   0.84375   0.00000  Uiso   1.00
H1827  H     0.67234   0.25754   0.94708   0.00000  Uiso   1.00
H1828  H     0.73104   0.26132   0.92021   0.00000  Uiso   1.00
N1829  N     0.83335   0.16668   0.95069   0.00000  Uiso   1.00
N1830  N     0.83332   0.16666   0.71597   0.00000  Uiso   1.00
N1831  N     0.75762   0.04101   0.77143   0.00000  Uiso   1.00
N1832  N     0.86741   0.29120   0.91435   0.00000  Uiso   1.00
N1833  N     0.78798   0.10095   0.70632   0.00000  Uiso   1.00
N1834  N     0.89972   0.21764   0.95722   0.00000  Uiso   1.00
O1835  O     0.83333   0.10655   0.87291   0.00000  Uiso   1.00
O1836  O     0.67539   0.19711   0.88694   0.00000  Uiso   1.00
O1837  O     0.77396   0.28937   0.76192   0.00000  Uiso   1.00
O1838  O     0.85372   0.04191   0.91709   0.00000  Uiso   1.00
O1839  O     0.78379   0.10656   0.94456   0.00000  Uiso   1.00
O1840  O     0.88048   0.22945   0.71922   0.00000  Uiso   1.00
O1841  O     0.83334   0.22678   0.79375   0.00000  Uiso   1.00
O1842  O     0.83333   0.10654   0.79372   0.00000  Uiso   1.00
O1843  O     0.83334   0.22679   0.87294   0.00000  Uiso   1.00
O1844  O     0.75828   0.16667   0.86379   0.00000  Uiso   1.00
O1845  O     0.90839   0.16666   0.80288   0.00000  Uiso   1.00
O1846  O     0.75828   0.16666   0.78460   0.00000  Uiso   1.00
O1847  O     0.90839   0.16667   0.88207   0.00000  Uiso   1.00
O1848  O     0.98615   0.15818   0.77042   0.00000  Uiso   1.00
C1849  C     0.16408   0.42085   0.83338   0.00000  Uiso   1.00
C1850  C     0.18117   0.35525   0.87456   0.00000  Uiso   1.00
C1851  C     0.16299   0.62415   0.83350   0.00000  Uiso   1.00
C1852  C     0.16051   0.37609   0.83467   0.00000  Uiso   1.00
C1853  C     0.14148   0.47020   0.68756   0.00000  Uiso   1.00
C1854  C     0.19731   0.52647   0.97843   0.00000  Uiso   1.00
C1855  C     0.13871   0.47189   0.97147   0.00000  Uiso   1.00
C1856  C     0.19564   0.52811   0.69470   0.00000  Uiso   1.00
C1857  C     0.00629   0.46349   0.74167   0.00000  Uiso   1.00
C1858  C     0.29692   0.44598   0.70818   0.00000  Uiso   1.00
C1859  C     0.33299   0.57181   0.87565   0.00000  Uiso   1.00
C1860  C     0.16553   0.57924   0.83324   0.00000  Uiso   1.00
C1861  C     0.02287   0.59886   0.91505   0.00000  Uiso   1.00
C1862  C     0.12749   0.62886   0.71944   0.00000  Uiso   1.00
C1863  C     0.10245   0.59809   0.68475   0.00000  Uiso   1.00
C1864  C     0.23834   0.37888   0.93577   0.00000  Uiso   1.00
C1865  C     0.24280   0.36602   0.98673   0.00000  Uiso   1.00
C1866  C     0.06429   0.43642   0.94585   0.00000  Uiso   1.00
C1867  C     0.05011   0.39151   0.94887   0.00000  Uiso   1.00
C1868  C     0.26715   0.56423   0.72967   0.00000  Uiso   1.00
C1869  C     0.28756   0.60774   0.72585   0.00000  Uiso   1.00
C1870  C     0.06821   0.49943   0.82144   0.00000  Uiso   1.00
C1871  C     0.26500   0.50118   0.84480   0.00000  Uiso   1.00
C1872  C     0.01288   0.49696   0.81449   0.00000  Uiso   1.00
C1873  C     0.31980   0.50736   0.84970   0.00000  Uiso   1.00
C1874  C     0.13127   0.35413   0.79901   0.00000  Uiso   1.00
C1875  C     0.18257   0.64604   0.87348   0.00000  Uiso   1.00
C1876  C     0.13587   0.64488   0.79641   0.00000  Uiso   1.00
Cu1877 Cu    0.16667   0.50001   0.88022   0.00000  Uiso   1.00
Cu1878 Cu    0.16667   0.49999   0.78645   0.00000  Uiso   1.00
H1879  H     0.02458   0.43808   0.76176   0.00000  Uiso   1.00
H1880  H     0.01531   0.63124   0.90648   0.00000  Uiso   1.00
H1881  H     0.06820   0.38647   0.79486   0.00000  Uiso   1.00
H1882  H     0.06684   0.35388   0.75156   0.00000  Uiso   1.00
H1883  H     0.17881   0.63178   0.94069   0.00000  Uiso   1.00
H1884  H     0.23908   0.63150   0.92341   0.00000  Uiso   1.00
H1885  H     0.16914   0.62507   0.72321   0.00000  Uiso   1.00
H1886  H     0.11966   0.65979   0.70532   0.00000  Uiso   1.00
H1887  H     0.06203   0.60561   0.67665   0.00000  Uiso   1.00
H1888  H     0.12158   0.59882   0.98610   0.00000  Uiso   1.00
H1889  H     0.10454   0.56702   0.69968   0.00000  Uiso   1.00
H1890  H     0.03229   0.47979   0.72026   0.00000  Uiso   1.00
H1891  H     0.25049   0.41137   0.93418   0.00000  Uiso   1.00
H1892  H     0.26482   0.36131   0.91676   0.00000  Uiso   1.00
H1893  H     0.28309   0.36382   0.66780   0.00000  Uiso   1.00
H1894  H     0.22310   0.38813   0.67342   0.00000  Uiso   1.00
H1895  H     0.22481   0.33597   0.99144   0.00000  Uiso   1.00
H1896  H     0.15130   0.41527   0.71714   0.00000  Uiso   1.00
H1897  H     0.10129   0.44216   0.73338   0.00000  Uiso   1.00
H1898  H     0.23653   0.57896   0.97387   0.00000  Uiso   1.00
H1899  H     0.26816   0.53712   0.96318   0.00000  Uiso   1.00
H1900  H     0.04476   0.44853   0.91297   0.00000  Uiso   1.00
H1901  H     0.27598   0.47056   0.68870   0.00000  Uiso   1.00
H1902  H     0.04992   0.45310   0.97493   0.00000  Uiso   1.00
H1903  H     0.06885   0.37823   0.98149   0.00000  Uiso   1.00
H1904  H     0.00877   0.38793   0.94861   0.00000  Uiso   1.00
H1905  H     0.06189   0.37481   0.91870   0.00000  Uiso   1.00
H1906  H     0.28755   0.54376   0.70808   0.00000  Uiso   1.00
H1907  H     0.27645   0.55642   0.76659   0.00000  Uiso   1.00
H1908  H     0.26569   0.62892   0.74526   0.00000  Uiso   1.00
H1909  H     0.32787   0.60952   0.74111   0.00000  Uiso   1.00
H1910  H     0.28581   0.61764   0.68920   0.00000  Uiso   1.00
H1911  H     0.31330   0.42651   0.68295   0.00000  Uiso   1.00
H1912  H     0.27058   0.42806   0.72779   0.00000  Uiso   1.00
H1913  H     0.29163   0.57786   0.87021   0.00000  Uiso   1.00
H1914  H     0.01704   0.58070   0.84375   0.00000  Uiso   1.00
H1915  H     0.00568   0.59088   0.94708   0.00000  Uiso   1.00
H1916  H     0.06437   0.59465   0.92021   0.00000  Uiso   1.00
N1917  N     0.16668   0.50001   0.95069   0.00000  Uiso   1.00
N1918  N     0.16665   0.49999   0.71597   0.00000  Uiso   1.00
N1919  N     0.09095   0.37435   0.77143   0.00000  Uiso   1.00
N1920  N     0.20074   0.62454   0.91435   0.00000  Uiso   1.00
N1921  N     0.12131   0.43428   0.70632   0.00000  Uiso   1.00
N1922  N     0.23305   0.55098   0.95722   0.00000  Uiso   1.00
O1923  O     0.16666   0.43989   0.87291   0.00000  Uiso   1.00
O1924  O     0.00872   0.53044   0.88694   0.00000  Uiso   1.00
O1925  O     0.10730   0.62270   0.76192   0.00000  Uiso   1.00
O1926  O     0.18705   0.37524   0.91709   0.00000  Uiso   1.00
O1927  O     0.11712   0.43989   0.94456   0.00000  Uiso   1.00
O1928  O     0.21381   0.56278   0.71922   0.00000  Uiso   1.00
O1929  O     0.16667   0.56011   0.79375   0.00000  Uiso   1.00
O1930  O     0.16666   0.43988   0.79372   0.00000  Uiso   1.00
O1931  O     0.16667   0.56012   0.87294   0.00000  Uiso   1.00
O1932  O     0.09161   0.50000   0.86379   0.00000  Uiso   1.00
O1933  O     0.24172   0.50000   0.80288   0.00000  Uiso   1.00
O1934  O     0.09161   0.49999   0.78460   0.00000  Uiso   1.00
O1935  O     0.24172   0.50001   0.88207   0.00000  Uiso   1.00
O1936  O     0.31948   0.49152   0.77042   0.00000  Uiso   1.00
C1937  C     0.49742   0.42085   0.83338   0.00000  Uiso   1.00
C1938  C     0.51451   0.35525   0.87456   0.00000  Uiso   1.00
C1939  C     0.49633   0.62415   0.83350   0.00000  Uiso   1.00
C1940  C     0.49384   0.37609   0.83467   0.00000  Uiso   1.00
C1941  C     0.47481   0.47020   0.68756   0.00000  Uiso   1.00
C1942  C     0.53064   0.52647   0.97843   0.00000  Uiso   1.00
C1943  C     0.47204   0.47189   0.97147   0.00000  Uiso   1.00
C1944  C     0.52897   0.52811   0.69470   0.00000  Uiso   1.00
C1945  C     0.33962   0.46349   0.74167   0.00000  Uiso   1.00
C1946  C     0.63026   0.44598   0.70818   0.00000  Uiso   1.00
C1947  C     0.66632   0.57181   0.87565   0.00000  Uiso   1.00
C1948  C     0.49886   0.57924   0.83324   0.00000  Uiso   1.00
C1949  C     0.35620   0.59886   0.91505   0.00000  Uiso   1.00
C1950  C     0.46082   0.62886   0.71944   0.00000  Uiso   1.00
C1951  C     0.43578   0.59809   0.68475   0.00000  Uiso   1.00
C1952  C     0.57168   0.37888   0.93577   0.00000  Uiso   1.00
C1953  C     0.57614   0.36602   0.98673   0.00000  Uiso   1.00
C1954  C     0.39762   0.43642   0.94585   0.00000  Uiso   1.00
C1955  C     0.38344   0.39151   0.94887   0.00000  Uiso   1.00
C1956  C     0.60048   0.56423   0.72967   0.00000  Uiso   1.00
C1957  C     0.62090   0.60774   0.72585   0.00000  Uiso   1.00
C1958  C     0.40155   0.49943   0.82144   0.00000  Uiso   1.00
C1959  C     0.59833   0.50118   0.84480   0.00000  Uiso   1.00
C1960  C     0.34621   0.49696   0.81449   0.00000  Uiso   1.00
C1961  C     0.65313   0.50736   0.84970   0.00000  Uiso   1.00
C1962  C     0.46461   0.35413   0.79901   0.00000  Uiso   1.00
C1963  C     0.51590   0.64604   0.87348   0.00000  Uiso   1.00
C1964  C     0.46921   0.64488   0.79641   0.00000  Uiso   1.00
Cu1965 Cu    0.50000   0.50001   0.88022   0.00000  Uiso   1.00
Cu1966 Cu    0.50000   0.49999   0.78645   0.00000  Uiso   1.00
H1967  H     0.35791   0.43808   0.76176   0.00000  Uiso   1.00
H1968  H     0.34864   0.63124   0.90648   0.00000  Uiso   1.00
H1969  H     0.40153   0.38647   0.79486   0.00000  Uiso   1.00
H1970  H     0.40018   0.35388   0.75156   0.00000  Uiso   1.00
H1971  H     0.51214   0.63178   0.94069   0.00000  Uiso   1.00
H1972  H     0.57241   0.63150   0.92341   0.00000  Uiso   1.00
H1973  H     0.50247   0.62507   0.72321   0.00000  Uiso   1.00
H1974  H     0.45300   0.65979   0.70532   0.00000  Uiso   1.00
H1975  H     0.39536   0.60561   0.67665   0.00000  Uiso   1.00
H1976  H     0.45491   0.59882   0.98610   0.00000  Uiso   1.00
H1977  H     0.43787   0.56702   0.69968   0.00000  Uiso   1.00
H1978  H     0.36562   0.47979   0.72026   0.00000  Uiso   1.00
H1979  H     0.58383   0.41137   0.93418   0.00000  Uiso   1.00
H1980  H     0.59816   0.36131   0.91676   0.00000  Uiso   1.00
H1981  H     0.61643   0.36382   0.66780   0.00000  Uiso   1.00
H1982  H     0.55643   0.38813   0.67342   0.00000  Uiso   1.00
H1983  H     0.55815   0.33597   0.99144   0.00000  Uiso   1.00
H1984  H     0.48463   0.41527   0.71714   0.00000  Uiso   1.00
H1985  H     0.43463   0.44216   0.73338   0.00000  Uiso   1.00
H1986  H     0.56986   0.57896   0.97387   0.00000  Uiso   1.00
H1987  H     0.60149   0.53712   0.96318   0.00000  Uiso   1.00
H1988  H     0.37809   0.44853   0.91297   0.00000  Uiso   1.00
H1989  H     0.60932   0.47056   0.68870   0.00000  Uiso   1.00
H1990  H     0.38325   0.45310   0.97493   0.00000  Uiso   1.00
H1991  H     0.40219   0.37823   0.98149   0.00000  Uiso   1.00
H1992  H     0.34210   0.38793   0.94861   0.00000  Uiso   1.00
H1993  H     0.39522   0.37481   0.91870   0.00000  Uiso   1.00
H1994  H     0.62089   0.54376   0.70808   0.00000  Uiso   1.00
H1995  H     0.60979   0.55642   0.76659   0.00000  Uiso   1.00
H1996  H     0.59902   0.62892   0.74526   0.00000  Uiso   1.00
H1997  H     0.66120   0.60952   0.74111   0.00000  Uiso   1.00
H1998  H     0.61915   0.61764   0.68920   0.00000  Uiso   1.00
H1999  H     0.64663   0.42651   0.68295   0.00000  Uiso   1.00
H2000  H     0.60392   0.42806   0.72779   0.00000  Uiso   1.00
H2001  H     0.62497   0.57786   0.87021   0.00000  Uiso   1.00
H2002  H     0.35038   0.58070   0.84375   0.00000  Uiso   1.00
H2003  H     0.33901   0.59088   0.94708   0.00000  Uiso   1.00
H2004  H     0.39771   0.59465   0.92021   0.00000  Uiso   1.00
N2005  N     0.50001   0.50001   0.95069   0.00000  Uiso   1.00
N2006  N     0.49999   0.49999   0.71597   0.00000  Uiso   1.00
N2007  N     0.42429   0.37435   0.77143   0.00000  Uiso   1.00
N2008  N     0.53408   0.62454   0.91435   0.00000  Uiso   1.00
N2009  N     0.45465   0.43428   0.70632   0.00000  Uiso   1.00
N2010  N     0.56639   0.55098   0.95722   0.00000  Uiso   1.00
O2011  O     0.50000   0.43989   0.87291   0.00000  Uiso   1.00
O2012  O     0.34206   0.53044   0.88694   0.00000  Uiso   1.00
O2013  O     0.44063   0.62270   0.76192   0.00000  Uiso   1.00
O2014  O     0.52039   0.37524   0.91709   0.00000  Uiso   1.00
O2015  O     0.45046   0.43989   0.94456   0.00000  Uiso   1.00
O2016  O     0.54715   0.56278   0.71922   0.00000  Uiso   1.00
O2017  O     0.50000   0.56011   0.79375   0.00000  Uiso   1.00
O2018  O     0.50000   0.43988   0.79372   0.00000  Uiso   1.00
O2019  O     0.50000   0.56012   0.87294   0.00000  Uiso   1.00
O2020  O     0.42495   0.50000   0.86379   0.00000  Uiso   1.00
O2021  O     0.57505   0.50000   0.80288   0.00000  Uiso   1.00
O2022  O     0.42494   0.49999   0.78460   0.00000  Uiso   1.00
O2023  O     0.57506   0.50001   0.88207   0.00000  Uiso   1.00
O2024  O     0.65282   0.49152   0.77042   0.00000  Uiso   1.00
C2025  C     0.83075   0.42085   0.83338   0.00000  Uiso   1.00
C2026  C     0.84784   0.35525   0.87456   0.00000  Uiso   1.00
C2027  C     0.82966   0.62415   0.83350   0.00000  Uiso   1.00
C2028  C     0.82717   0.37609   0.83467   0.00000  Uiso   1.00
C2029  C     0.80814   0.47020   0.68756   0.00000  Uiso   1.00
C2030  C     0.86397   0.52647   0.97843   0.00000  Uiso   1.00
C2031  C     0.80537   0.47189   0.97147   0.00000  Uiso   1.00
C2032  C     0.86231   0.52811   0.69470   0.00000  Uiso   1.00
C2033  C     0.67296   0.46349   0.74167   0.00000  Uiso   1.00
C2034  C     0.96359   0.44598   0.70818   0.00000  Uiso   1.00
C2035  C     0.99966   0.57181   0.87565   0.00000  Uiso   1.00
C2036  C     0.83219   0.57924   0.83324   0.00000  Uiso   1.00
C2037  C     0.68953   0.59886   0.91505   0.00000  Uiso   1.00
C2038  C     0.79415   0.62886   0.71944   0.00000  Uiso   1.00
C2039  C     0.76912   0.59809   0.68475   0.00000  Uiso   1.00
C2040  C     0.90501   0.37888   0.93577   0.00000  Uiso   1.00
C2041  C     0.90947   0.36602   0.98673   0.00000  Uiso   1.00
C2042  C     0.73096   0.43642   0.94585   0.00000  Uiso   1.00
C2043  C     0.71678   0.39151   0.94887   0.00000  Uiso   1.00
C2044  C     0.93382   0.56423   0.72967   0.00000  Uiso   1.00
C2045  C     0.95423   0.60774   0.72585   0.00000  Uiso   1.00
C2046  C     0.73488   0.49943   0.82144   0.00000  Uiso   1.00
C2047  C     0.93166   0.50118   0.84480   0.00000  Uiso   1.00
C2048  C     0.67955   0.49696   0.81449   0.00000  Uiso   1.00
C2049  C     0.98647   0.50736   0.84970   0.00000  Uiso   1.00
C2050  C     0.79794   0.35413   0.79901   0.00000  Uiso   1.00
C2051  C     0.84923   0.64604   0.87348   0.00000  Uiso   1.00
C2052  C     0.80254   0.64488   0.79641   0.00000  Uiso   1.00
Cu2053 Cu    0.83333   0.50001   0.88022   0.00000  Uiso   1.00
Cu2054 Cu    0.83333   0.49999   0.78645   0.00000  Uiso   1.00
H2055  H     0.69124   0.43808   0.76176   0.00000  Uiso   1.00
H2056  H     0.68197   0.63124   0.90648   0.00000  Uiso   1.00
H2057  H     0.73487   0.38647   0.79486   0.00000  Uiso   1.00
H2058  H     0.73351   0.35388   0.75156   0.00000  Uiso   1.00
H2059  H     0.84547   0.63178   0.94069   0.00000  Uiso   1.00
H2060  H     0.90575   0.63150   0.92341   0.00000  Uiso   1.00
H2061  H     0.83580   0.62507   0.72321   0.00000  Uiso   1.00
H2062  H     0.78633   0.65979   0.70532   0.00000  Uiso   1.00
H2063  H     0.72869   0.60561   0.67665   0.00000  Uiso   1.00
H2064  H     0.78824   0.59882   0.98610   0.00000  Uiso   1.00
H2065  H     0.77120   0.56702   0.69968   0.00000  Uiso   1.00
H2066  H     0.69895   0.47979   0.72026   0.00000  Uiso   1.00
H2067  H     0.91716   0.41137   0.93418   0.00000  Uiso   1.00
H2068  H     0.93149   0.36131   0.91676   0.00000  Uiso   1.00
H2069  H     0.94976   0.36382   0.66780   0.00000  Uiso   1.00
H2070  H     0.88976   0.38813   0.67342   0.00000  Uiso   1.00
H2071  H     0.89148   0.33597   0.99144   0.00000  Uiso   1.00
H2072  H     0.81797   0.41527   0.71714   0.00000  Uiso   1.00
H2073  H     0.76796   0.44216   0.73338   0.00000  Uiso   1.00
H2074  H     0.90320   0.57896   0.97387   0.00000  Uiso   1.00
H2075  H     0.93483   0.53712   0.96318   0.00000  Uiso   1.00
H2076  H     0.71143   0.44853   0.91297   0.00000  Uiso   1.00
H2077  H     0.94265   0.47056   0.68870   0.00000  Uiso   1.00
H2078  H     0.71658   0.45310   0.97493   0.00000  Uiso   1.00
H2079  H     0.73552   0.37823   0.98149   0.00000  Uiso   1.00
H2080  H     0.67543   0.38793   0.94861   0.00000  Uiso   1.00
H2081  H     0.72856   0.37481   0.91870   0.00000  Uiso   1.00
H2082  H     0.95422   0.54376   0.70808   0.00000  Uiso   1.00
H2083  H     0.94312   0.55642   0.76659   0.00000  Uiso   1.00
H2084  H     0.93235   0.62892   0.74526   0.00000  Uiso   1.00
H2085  H     0.99453   0.60952   0.74111   0.00000  Uiso   1.00
H2086  H     0.95248   0.61764   0.68920   0.00000  Uiso   1.00
H2087  H     0.97997   0.42651   0.68295   0.00000  Uiso   1.00
H2088  H     0.93725   0.42806   0.72779   0.00000  Uiso   1.00
H2089  H     0.95830   0.57786   0.87021   0.00000  Uiso   1.00
H2090  H     0.68371   0.58070   0.84375   0.00000  Uiso   1.00
H2091  H     0.67234   0.59088   0.94708   0.00000  Uiso   1.00
H2092  H     0.73104   0.59465   0.92021   0.00000  Uiso   1.00
N2093  N     0.83335   0.50001   0.95069   0.00000  Uiso   1.00
N2094  N     0.83332   0.49999   0.71597   0.00000  Uiso   1.00
N2095  N     0.75762   0.37435   0.77143   0.00000  Uiso   1.00
N2096  N     0.86741   0.62454   0.91435   0.00000  Uiso   1.00
N2097  N     0.78798   0.43428   0.70632   0.00000  Uiso   1.00
N2098  N     0.89972   0.55098   0.95722   0.00000  Uiso   1.00
O2099  O     0.83333   0.43989   0.87291   0.00000  Uiso   1.00
O2100  O     0.67539   0.53044   0.88694   0.00000  Uiso   1.00
O2101  O     0.77396   0.62270   0.76192   0.00000  Uiso   1.00
O2102  O     0.85372   0.37524   0.91709   0.00000  Uiso   1.00
O2103  O     0.78379   0.43989   0.94456   0.00000  Uiso   1.00
O2104  O     0.88048   0.56278   0.71922   0.00000  Uiso   1.00
O2105  O     0.83334   0.56011   0.79375   0.00000  Uiso   1.00
O2106  O     0.83333   0.43988   0.79372   0.00000  Uiso   1.00
O2107  O     0.83334   0.56012   0.87294   0.00000  Uiso   1.00
O2108  O     0.75828   0.50000   0.86379   0.00000  Uiso   1.00
O2109  O     0.90839   0.50000   0.80288   0.00000  Uiso   1.00
O2110  O     0.75828   0.49999   0.78460   0.00000  Uiso   1.00
O2111  O     0.90839   0.50001   0.88207   0.00000  Uiso   1.00
O2112  O     0.98615   0.49152   0.77042   0.00000  Uiso   1.00
C2113  C     0.16408   0.75419   0.83338   0.00000  Uiso   1.00
C2114  C     0.18117   0.68858   0.87456   0.00000  Uiso   1.00
C2115  C     0.16299   0.95748   0.83350   0.00000  Uiso   1.00
C2116  C     0.16051   0.70942   0.83467   0.00000  Uiso   1.00
C2117  C     0.14148   0.80354   0.68756   0.00000  Uiso   1.00
C2118  C     0.19731   0.85981   0.97843   0.00000  Uiso   1.00
C2119  C     0.13871   0.80522   0.97147   0.00000  Uiso   1.00
C2120  C     0.19564   0.86144   0.69470   0.00000  Uiso   1.00
C2121  C     0.00629   0.79682   0.74167   0.00000  Uiso   1.00
C2122  C     0.29692   0.77931   0.70818   0.00000  Uiso   1.00
C2123  C     0.33299   0.90515   0.87565   0.00000  Uiso   1.00
C2124  C     0.16553   0.91257   0.83324   0.00000  Uiso   1.00
C2125  C     0.02287   0.93219   0.91505   0.00000  Uiso   1.00
C2126  C     0.12749   0.96220   0.71944   0.00000  Uiso   1.00
C2127  C     0.10245   0.93142   0.68475   0.00000  Uiso   1.00
C2128  C     0.23834   0.71221   0.93577   0.00000  Uiso   1.00
C2129  C     0.24280   0.69935   0.98673   0.00000  Uiso   1.00
C2130  C     0.06429   0.76975   0.94585   0.00000  Uiso   1.00
C2131  C     0.05011   0.72484   0.94887   0.00000  Uiso   1.00
C2132  C     0.26715   0.89756   0.72967   0.00000  Uiso   1.00
C2133  C     0.28756   0.94107   0.72585   0.00000  Uiso   1.00
C2134  C     0.06821   0.83276   0.82144   0.00000  Uiso   1.00
C2135  C     0.26500   0.83452   0.84480   0.00000  Uiso   1.00
C2136  C     0.01288   0.83029   0.81449   0.00000  Uiso   1.00
C2137  C     0.31980   0.84069   0.84970   0.00000  Uiso   1.00
C2138  C     0.13127   0.68747   0.79901   0.00000  Uiso   1.00
C2139  C     0.18257   0.97937   0.87348   0.00000  Uiso   1.00
C2140  C     0.13587   0.97821   0.79641   0.00000  Uiso   1.00
Cu2141 Cu    0.16667   0.83334   0.88022   0.00000  Uiso   1.00
Cu2142 Cu    0.16667   0.83333   0.78645   0.00000  Uiso   1.00
H2143  H     0.02458   0.77141   0.76176   0.00000  Uiso   1.00
H2144  H     0.01531   0.96457   0.90648   0.00000  Uiso   1.00
H2145  H     0.06820   0.71980   0.79486   0.00000  Uiso   1.00
H2146  H     0.06684   0.68721   0.75156   0.00000  Uiso   1.00
H2147  H     0.17881   0.96511   0.94069   0.00000  Uiso   1.00
H2148  H     0.23908   0.96483   0.92341   0.00000  Uiso   1.00
H2149  H     0.16914   0.95840   0.72321   0.00000  Uiso   1.00
H2150  H     0.11966   0.99312   0.70532   0.00000  Uiso   1.00
H2151  H     0.06203   0.93894   0.67665   0.00000  Uiso   1.00
H2152  H     0.12158   0.93215   0.98610   0.00000  Uiso   1.00
H2153  H     0.10454   0.90035   0.69968   0.00000  Uiso   1.00
H2154  H     0.03229   0.81312   0.72026   0.00000  Uiso   1.00
H2155  H     0.25049   0.74471   0.93418   0.00000  Uiso   1.00
H2156  H     0.26482   0.69464   0.91676   0.00000  Uiso   1.00
H2157  H     0.28309   0.69715   0.66780   0.00000  Uiso   1.00
H2158  H     0.22310   0.72146   0.67342   0.00000  Uiso   1.00
H2159  H     0.22481   0.66930   0.99144   0.00000  Uiso   1.00
H2160  H     0.15130   0.74860   0.71714   0.00000  Uiso   1.00
H2161  H     0.10129   0.77550   0.73338   0.00000  Uiso   1.00
H2162  H     0.23653   0.91229   0.97387   0.00000  Uiso   1.00
H2163  H     0.26816   0.87046   0.96318   0.00000  Uiso   1.00
H2164  H     0.04476   0.78186   0.91297   0.00000  Uiso   1.00
H2165  H     0.27598   0.80390   0.68870   0.00000  Uiso   1.00
H2166  H     0.04992   0.78643   0.97493   0.00000  Uiso   1.00
H2167  H     0.06885   0.71156   0.98149   0.00000  Uiso   1.00
H2168  H     0.00877   0.72126   0.94861   0.00000  Uiso   1.00
H2169  H     0.06189   0.70814   0.91870   0.00000  Uiso   1.00
H2170  H     0.28755   0.87709   0.70808   0.00000  Uiso   1.00
H2171  H     0.27645   0.88975   0.76659   0.00000  Uiso   1.00
H2172  H     0.26569   0.96225   0.74526   0.00000  Uiso   1.00
H2173  H     0.32787   0.94285   0.74111   0.00000  Uiso   1.00
H2174  H     0.28581   0.95097   0.68920   0.00000  Uiso   1.00
H2175  H     0.31330   0.75984   0.68295   0.00000  Uiso   1.00
H2176  H     0.27058   0.76140   0.72779   0.00000  Uiso   1.00
H2177  H     0.29163   0.91119   0.87021   0.00000  Uiso   1.00
H2178  H     0.01704   0.91403   0.84375   0.00000  Uiso   1.00
H2179  H     0.00568   0.92421   0.94708   0.00000  Uiso   1.00
H2180  H     0.06437   0.92799   0.92021   0.00000  Uiso   1.00
N2181  N     0.16668   0.83334   0.95069   0.00000  Uiso   1.00
N2182  N     0.16665   0.83332   0.71597   0.00000  Uiso   1.00
N2183  N     0.09095   0.70768   0.77143   0.00000  Uiso   1.00
N2184  N     0.20074   0.95787   0.91435   0.00000  Uiso   1.00
N2185  N     0.12131   0.76761   0.70632   0.00000  Uiso   1.00
N2186  N     0.23305   0.88431   0.95722   0.00000  Uiso   1.00
O2187  O     0.16666   0.77322   0.87291   0.00000  Uiso   1.00
O2188  O     0.00872   0.86377   0.88694   0.00000  Uiso   1.00
O2189  O     0.10730   0.95603   0.76192   0.00000  Uiso   1.00
O2190  O     0.18705   0.70857   0.91709   0.00000  Uiso   1.00
O2191  O     0.11712   0.77323   0.94456   0.00000  Uiso   1.00
O2192  O     0.21381   0.89611   0.71922   0.00000  Uiso   1.00
O2193  O     0.16667   0.89345   0.79375   0.00000  Uiso   1.00
O2194  O     0.16666   0.77321   0.79372   0.00000  Uiso   1.00
O2195  O     0.16667   0.89346   0.87294   0.00000  Uiso   1.00
O2196  O     0.09161   0.83334   0.86379   0.00000  Uiso   1.00
O2197  O     0.24172   0.83333   0.80288   0.00000  Uiso   1.00
O2198  O     0.09161   0.83333   0.78460   0.00000  Uiso   1.00
O2199  O     0.24172   0.83334   0.88207   0.00000  Uiso   1.00
O2200  O     0.31948   0.82485   0.77042   0.00000  Uiso   1.00
C2201  C     0.49742   0.75419   0.83338   0.00000  Uiso   1.00
C2202  C     0.51451   0.68858   0.87456   0.00000  Uiso   1.00
C2203  C     0.49633   0.95748   0.83350   0.00000  Uiso   1.00
C2204  C     0.49384   0.70942   0.83467   0.00000  Uiso   1.00
C2205  C     0.47481   0.80354   0.68756   0.00000  Uiso   1.00
C2206  C     0.53064   0.85981   0.97843   0.00000  Uiso   1.00
C2207  C     0.47204   0.80522   0.97147   0.00000  Uiso   1.00
C2208  C     0.52897   0.86144   0.69470   0.00000  Uiso   1.00
C2209  C     0.33962   0.79682   0.74167   0.00000  Uiso   1.00
C2210  C     0.63026   0.77931   0.70818   0.00000  Uiso   1.00
C2211  C     0.66632   0.90515   0.87565   0.00000  Uiso   1.00
C2212  C     0.49886   0.91257   0.83324   0.00000  Uiso   1.00
C2213  C     0.35620   0.93219   0.91505   0.00000  Uiso   1.00
C2214  C     0.46082   0.96220   0.71944   0.00000  Uiso   1.00
C2215  C     0.43578   0.93142   0.68475   0.00000  Uiso   1.00
C2216  C     0.57168   0.71221   0.93577   0.00000  Uiso   1.00
C2217  C     0.57614   0.69935   0.98673   0.00000  Uiso   1.00
C2218  C     0.39762   0.76975   0.94585   0.00000  Uiso   1.00
C2219  C     0.38344   0.72484   0.94887   0.00000  Uiso   1.00
C2220  C     0.60048   0.89756   0.72967   0.00000  Uiso   1.00
C2221  C     0.62090   0.94107   0.72585   0.00000  Uiso   1.00
C2222  C     0.40155   0.83276   0.82144   0.00000  Uiso   1.00
C2223  C     0.59833   0.83452   0.84480   0.00000  Uiso   1.00
C2224  C     0.34621   0.83029   0.81449   0.00000  Uiso   1.00
C2225  C     0.65313   0.84069   0.84970   0.00000  Uiso   1.00
C2226  C     0.46461   0.68747   0.79901   0.00000  Uiso   1.00
C2227  C     0.51590   0.97937   0.87348   0.00000  Uiso   1.00
C2228  C     0.46921   0.97821   0.79641   0.00000  Uiso   1.00
Cu2229 Cu    0.50000   0.83334   0.88022   0.00000  Uiso   1.00
Cu2230 Cu    0.50000   0.83333   0.78645   0.00000  Uiso   1.00
H2231  H     0.35791   0.77141   0.76176   0.00000  Uiso   1.00
H2232  H     0.34864   0.96457   0.90648   0.00000  Uiso   1.00
H2233  H     0.40153   0.71980   0.79486   0.00000  Uiso   1.00
H2234  H     0.40018   0.68721   0.75156   0.00000  Uiso   1.00
H2235  H     0.51214   0.96511   0.94069   0.00000  Uiso   1.00
H2236  H     0.57241   0.96483   0.92341   0.00000  Uiso   1.00
H2237  H     0.50247   0.95840   0.72321   0.00000  Uiso   1.00
H2238  H     0.45300   0.99312   0.70532   0.00000  Uiso   1.00
H2239  H     0.39536   0.93894   0.67665   0.00000  Uiso   1.00
H2240  H     0.45491   0.93215   0.98610   0.00000  Uiso   1.00
H2241  H     0.43787   0.90035   0.69968   0.00000  Uiso   1.00
H2242  H     0.36562   0.81312   0.72026   0.00000  Uiso   1.00
H2243  H     0.58383   0.74471   0.93418   0.00000  Uiso   1.00
H2244  H     0.59816   0.69464   0.91676   0.00000  Uiso   1.00
H2245  H     0.61643   0.69715   0.66780   0.00000  Uiso   1.00
H2246  H     0.55643   0.72146   0.67342   0.00000  Uiso   1.00
H2247  H     0.55815   0.66930   0.99144   0.00000  Uiso   1.00
H2248  H     0.48463   0.74860   0.71714   0.00000  Uiso   1.00
H2249  H     0.43463   0.77550   0.73338   0.00000  Uiso   1.00
H2250  H     0.56986   0.91229   0.97387   0.00000  Uiso   1.00
H2251  H     0.60149   0.87046   0.96318   0.00000  Uiso   1.00
H2252  H     0.37809   0.78186   0.91297   0.00000  Uiso   1.00
H2253  H     0.60932   0.80390   0.68870   0.00000  Uiso   1.00
H2254  H     0.38325   0.78643   0.97493   0.00000  Uiso   1.00
H2255  H     0.40219   0.71156   0.98149   0.00000  Uiso   1.00
H2256  H     0.34210   0.72126   0.94861   0.00000  Uiso   1.00
H2257  H     0.39522   0.70814   0.91870   0.00000  Uiso   1.00
H2258  H     0.62089   0.87709   0.70808   0.00000  Uiso   1.00
H2259  H     0.60979   0.88975   0.76659   0.00000  Uiso   1.00
H2260  H     0.59902   0.96225   0.74526   0.00000  Uiso   1.00
H2261  H     0.66120   0.94285   0.74111   0.00000  Uiso   1.00
H2262  H     0.61915   0.95097   0.68920   0.00000  Uiso   1.00
H2263  H     0.64663   0.75984   0.68295   0.00000  Uiso   1.00
H2264  H     0.60392   0.76140   0.72779   0.00000  Uiso   1.00
H2265  H     0.62497   0.91119   0.87021   0.00000  Uiso   1.00
H2266  H     0.35038   0.91403   0.84375   0.00000  Uiso   1.00
H2267  H     0.33901   0.92421   0.94708   0.00000  Uiso   1.00
H2268  H     0.39771   0.92799   0.92021   0.00000  Uiso   1.00
N2269  N     0.50001   0.83334   0.95069   0.00000  Uiso   1.00
N2270  N     0.49999   0.83332   0.71597   0.00000  Uiso   1.00
N2271  N     0.42429   0.70768   0.77143   0.00000  Uiso   1.00
N2272  N     0.53408   0.95787   0.91435   0.00000  Uiso   1.00
N2273  N     0.45465   0.76761   0.70632   0.00000  Uiso   1.00
N2274  N     0.56639   0.88431   0.95722   0.00000  Uiso   1.00
O2275  O     0.50000   0.77322   0.87291   0.00000  Uiso   1.00
O2276  O     0.34206   0.86377   0.88694   0.00000  Uiso   1.00
O2277  O     0.44063   0.95603   0.76192   0.00000  Uiso   1.00
O2278  O     0.52039   0.70857   0.91709   0.00000  Uiso   1.00
O2279  O     0.45046   0.77323   0.94456   0.00000  Uiso   1.00
O2280  O     0.54715   0.89611   0.71922   0.00000  Uiso   1.00
O2281  O     0.50000   0.89345   0.79375   0.00000  Uiso   1.00
O2282  O     0.50000   0.77321   0.79372   0.00000  Uiso   1.00
O2283  O     0.50000   0.89346   0.87294   0.00000  Uiso   1.00
O2284  O     0.42495   0.83334   0.86379   0.00000  Uiso   1.00
O2285  O     0.57505   0.83333   0.80288   0.00000  Uiso   1.00
O2286  O     0.42494   0.83333   0.78460   0.00000  Uiso   1.00
O2287  O     0.57506   0.83334   0.88207   0.00000  Uiso   1.00
O2288  O     0.65282   0.82485   0.77042   0.00000  Uiso   1.00
C2289  C     0.83075   0.75419   0.83338   0.00000  Uiso   1.00
C2290  C     0.84784   0.68858   0.87456   0.00000  Uiso   1.00
C2291  C     0.82966   0.95748   0.83350   0.00000  Uiso   1.00
C2292  C     0.82717   0.70942   0.83467   0.00000  Uiso   1.00
C2293  C     0.80814   0.80354   0.68756   0.00000  Uiso   1.00
C2294  C     0.86397   0.85981   0.97843   0.00000  Uiso   1.00
C2295  C     0.80537   0.80522   0.97147   0.00000  Uiso   1.00
C2296  C     0.86231   0.86144   0.69470   0.00000  Uiso   1.00
C2297  C     0.67296   0.79682   0.74167   0.00000  Uiso   1.00
C2298  C     0.96359   0.77931   0.70818   0.00000  Uiso   1.00
C2299  C     0.99966   0.90515   0.87565   0.00000  Uiso   1.00
C2300  C     0.83219   0.91257   0.83324   0.00000  Uiso   1.00
C2301  C     0.68953   0.93219   0.91505   0.00000  Uiso   1.00
C2302  C     0.79415   0.96220   0.71944   0.00000  Uiso   1.00
C2303  C     0.76912   0.93142   0.68475   0.00000  Uiso   1.00
C2304  C     0.90501   0.71221   0.93577   0.00000  Uiso   1.00
C2305  C     0.90947   0.69935   0.98673   0.00000  Uiso   1.00
C2306  C     0.73096   0.76975   0.94585   0.00000  Uiso   1.00
C2307  C     0.71678   0.72484   0.94887   0.00000  Uiso   1.00
C2308  C     0.93382   0.89756   0.72967   0.00000  Uiso   1.00
C2309  C     0.95423   0.94107   0.72585   0.00000  Uiso   1.00
C2310  C     0.73488   0.83276   0.82144   0.00000  Uiso   1.00
C2311  C     0.93166   0.83452   0.84480   0.00000  Uiso   1.00
C2312  C     0.67955   0.83029   0.81449   0.00000  Uiso   1.00
C2313  C     0.98647   0.84069   0.84970   0.00000  Uiso   1.00
C2314  C     0.79794   0.68747   0.79901   0.00000  Uiso   1.00
C2315  C     0.84923   0.97937   0.87348   0.00000  Uiso   1.00
C2316  C     0.80254   0.97821   0.79641   0.00000  Uiso   1.00
Cu2317 Cu    0.83333   0.83334   0.88022   0.00000  Uiso   1.00
Cu2318 Cu    0.83333   0.83333   0.78645   0.00000  Uiso   1.00
H2319  H     0.69124   0.77141   0.76176   0.00000  Uiso   1.00
H2320  H     0.68197   0.96457   0.90648   0.00000  Uiso   1.00
H2321  H     0.73487   0.71980   0.79486   0.00000  Uiso   1.00
H2322  H     0.73351   0.68721   0.75156   0.00000  Uiso   1.00
H2323  H     0.84547   0.96511   0.94069   0.00000  Uiso   1.00
H2324  H     0.90575   0.96483   0.92341   0.00000  Uiso   1.00
H2325  H     0.83580   0.95840   0.72321   0.00000  Uiso   1.00
H2326  H     0.78633   0.99312   0.70532   0.00000  Uiso   1.00
H2327  H     0.72869   0.93894   0.67665   0.00000  Uiso   1.00
H2328  H     0.78824   0.93215   0.98610   0.00000  Uiso   1.00
H2329  H     0.77120   0.90035   0.69968   0.00000  Uiso   1.00
H2330  H     0.69895   0.81312   0.72026   0.00000  Uiso   1.00
H2331  H     0.91716   0.74471   0.93418   0.00000  Uiso   1.00
H2332  H     0.93149   0.69464   0.91676   0.00000  Uiso   1.00
H2333  H     0.94976   0.69715   0.66780   0.00000  Uiso   1.00
H2334  H     0.88976   0.72146   0.67342   0.00000  Uiso   1.00
H2335  H     0.89148   0.66930   0.99144   0.00000  Uiso   1.00
H2336  H     0.81797   0.74860   0.71714   0.00000  Uiso   1.00
H2337  H     0.76796   0.77550   0.73338   0.00000  Uiso   1.00
H2338  H     0.90320   0.91229   0.97387   0.00000  Uiso   1.00
H2339  H     0.93483   0.87046   0.96318   0.00000  Uiso   1.00
H2340  H     0.71143   0.78186   0.91297   0.00000  Uiso   1.00
H2341  H     0.94265   0.80390   0.68870   0.00000  Uiso   1.00
H2342  H     0.71658   0.78643   0.97493   0.00000  Uiso   1.00
H2343  H     0.73552   0.71156   0.98149   0.00000  Uiso   1.00
H2344  H     0.67543   0.72126   0.94861   0.00000  Uiso   1.00
H2345  H     0.72856   0.70814   0.91870   0.00000  Uiso   1.00
H2346  H     0.95422   0.87709   0.70808   0.00000  Uiso   1.00
H2347  H     0.94312   0.88975   0.76659   0.00000  Uiso   1.00
H2348  H     0.93235   0.96225   0.74526   0.00000  Uiso   1.00
H2349  H     0.99453   0.94285   0.74111   0.00000  Uiso   1.00
H2350  H     0.95248   0.95097   0.68920   0.00000  Uiso   1.00
H2351  H     0.97997   0.75984   0.68295   0.00000  Uiso   1.00
H2352  H     0.93725   0.76140   0.72779   0.00000  Uiso   1.00
H2353  H     0.95830   0.91119   0.87021   0.00000  Uiso   1.00
H2354  H     0.68371   0.91403   0.84375   0.00000  Uiso   1.00
H2355  H     0.67234   0.92421   0.94708   0.00000  Uiso   1.00
H2356  H     0.73104   0.92799   0.92021   0.00000  Uiso   1.00
N2357  N     0.83335   0.83334   0.95069   0.00000  Uiso   1.00
N2358  N     0.83332   0.83332   0.71597   0.00000  Uiso   1.00
N2359  N     0.75762   0.70768   0.77143   0.00000  Uiso   1.00
N2360  N     0.86741   0.95787   0.91435   0.00000  Uiso   1.00
N2361  N     0.78798   0.76761   0.70632   0.00000  Uiso   1.00
N2362  N     0.89972   0.88431   0.95722   0.00000  Uiso   1.00
O2363  O     0.83333   0.77322   0.87291   0.00000  Uiso   1.00
O2364  O     0.67539   0.86377   0.88694   0.00000  Uiso   1.00
O2365  O     0.77396   0.95603   0.76192   0.00000  Uiso   1.00
O2366  O     0.85372   0.70857   0.91709   0.00000  Uiso   1.00
O2367  O     0.78379   0.77323   0.94456   0.00000  Uiso   1.00
O2368  O     0.88048   0.89611   0.71922   0.00000  Uiso   1.00
O2369  O     0.83334   0.89345   0.79375   0.00000  Uiso   1.00
O2370  O     0.83333   0.77321   0.79372   0.00000  Uiso   1.00
O2371  O     0.83334   0.89346   0.87294   0.00000  Uiso   1.00
O2372  O     0.75828   0.83334   0.86379   0.00000  Uiso   1.00
O2373  O     0.90839   0.83333   0.80288   0.00000  Uiso   1.00
O2374  O     0.75828   0.83333   0.78460   0.00000  Uiso   1.00
O2375  O     0.90839   0.83334   0.88207   0.00000  Uiso   1.00
O2376  O     0.98615   0.82485   0.77042   0.00000  Uiso   1.00
loop_
_geom_bond_atom_site_label_1
_geom_bond_atom_site_label_2
_geom_bond_distance
_geom_bond_site_symmetry_2
_ccdc_geom_bond_type
C1     O75     1.299   .     A
C1     O82     1.315   .     A
C1     C4      1.473   .     S
C2     C4      1.406   .     A
C2     O78     1.387   .     S
C2     C555    1.400   1_545 S
C3     C28     1.407   .     A
C3     C12     1.479   .     S
C3     C27     1.405   .     A
C4     C26     1.407   .     A
C5     N70     1.388   .     A
C5     N73     1.419   .     S
C5     C1591   1.426   1_554 S
C6     N69     1.371   .     A
C6     N74     1.424   .     S
C6     C800    1.444   .     S
C7     O79     1.382   .     S
C7     N69     1.357   .     A
C7     C797    1.426   .     S
C8     N70     1.380   .     A
C8     O80     1.390   .     S
C8     C1590   1.444   1_554 S
C9     H42     1.109   .     S
C9     H31     1.107   .     S
C9     C186    1.508   1_455 S
C9     O264    1.398   1_455 S
C10    H63     1.105   .     S
C10    H53     1.109   .     S
C10    H64     1.110   .     S
C10    C97     1.508   .     S
C11    H65     1.115   .     S
C11    C101    1.512   .     S
C11    H154    1.116   .     S
C11    O164    1.418   .     S
C12    O83     1.308   .     A
C12    O81     1.309   .     A
C13    H32     1.111   .     S
C13    H67     1.109   .     S
C13    H68     1.108   .     S
C13    C187    1.512   1_455 S
C14    O77     1.411   .     S
C14    H38     1.111   .     S
C14    H37     1.110   .     S
C14    C15     1.513   .     S
C15    H41     1.109   .     S
C15    H39     1.107   .     S
C15    H1624   1.107   1_554 S
C16    C17     1.527   .     S
C16    H44     1.114   .     S
C16    H43     1.111   .     S
C16    O78     1.410   .     S
C17    H47     1.103   .     S
C17    H837    1.108   .     S
C17    H838    1.108   .     S
C18    H52     1.109   .     S
C18    C19     1.520   .     S
C18    O79     1.411   .     S
C18    H54     1.114   .     S
C19    H56     1.102   .     S
C19    H57     1.111   .     S
C19    H55     1.110   .     S
C20    O80     1.415   .     S
C20    H59     1.101   .     S
C20    H58     1.111   .     S
C20    C21     1.526   .     S
C21    H61     1.111   .     S
C21    H60     1.111   .     S
C21    H62     1.106   .     S
C22    O84     1.309   .     A
C22    C24     1.462   .     S
C22    O86     1.296   .     A
C23    C25     1.457   .     S
C23    O87     1.305   .     A
C23    O85     1.297   .     A
C24    C201    1.352   1_455 S
C24    O264    1.397   1_455 S
C25    C112    1.352   .     S
C25    O164    1.386   .     S
C26    N71     1.437   .     S
C26    C556    1.411   1_545 S
C27    N72     1.420   .     S
C27    C266    1.400   .     S
C28    O77     1.380   .     S
C28    C290    1.411   .     S
Cu29   O83     1.987   .     S
Cu29   N69     2.041   .     S
Cu29   Cu30    2.716   .     S
Cu29   O84     1.997   .     S
Cu29   O75     1.988   .     S
Cu29   O87     1.990   .     S
Cu30   O86     1.990   .     S
Cu30   N70     2.041   .     S
Cu30   O82     1.987   .     S
Cu30   O85     1.997   .     S
Cu30   O81     1.988   .     S
H33    N71     1.045   .     S
H34    N71     1.043   .     S
H35    N72     1.043   .     S
H36    N72     1.043   .     S
H40    C807    1.107   .     S
H45    C1601   1.108   1_554 S
H46    C1601   1.108   1_554 S
H48    N73     1.044   .     S
H49    N73     1.033   .     S
H50    N74     1.036   .     S
H51    N74     1.045   .     S
H66    C187    1.116   1_455 S
O76    C187    1.418   1_455 S
O76    C201    1.386   1_455 S
O88    C97     1.398   .     S
O88    C112    1.397   .     S
C89    O163    1.299   .     A
C89    O170    1.315   .     A
C89    C92     1.473   .     S
C90    C92     1.406   .     A
C90    O166    1.387   .     S
C90    C643    1.400   1_545 S
C91    C116    1.407   .     A
C91    C100    1.479   .     S
C91    C115    1.405   .     A
C92    C114    1.407   .     A
C93    N158    1.388   .     A
C93    N161    1.419   .     S
C93    C1679   1.426   1_554 S
C94    N157    1.371   .     A
C94    N162    1.424   .     S
C94    C888    1.444   .     S
C95    O167    1.382   .     S
C95    N157    1.357   .     A
C95    C885    1.426   .     S
C96    N158    1.380   .     A
C96    O168    1.390   .     S
C96    C1678   1.444   1_554 S
C97    H130    1.109   .     S
C97    H119    1.107   .     S
C98    H151    1.105   .     S
C98    H141    1.109   .     S
C98    H152    1.110   .     S
C98    C185    1.508   .     S
C99    H153    1.115   .     S
C99    C189    1.512   .     S
C99    H242    1.116   .     S
C99    O252    1.418   .     S
C100   O171    1.308   .     A
C100   O169    1.309   .     A
C101   H120    1.111   .     S
C101   H155    1.109   .     S
C101   H156    1.108   .     S
C102   O165    1.411   .     S
C102   H126    1.111   .     S
C102   H125    1.110   .     S
C102   C103    1.513   .     S
C103   H129    1.109   .     S
C103   H127    1.107   .     S
C103   H1712   1.107   1_554 S
C104   C105    1.527   .     S
C104   H132    1.114   .     S
C104   H131    1.111   .     S
C104   O166    1.410   .     S
C105   H135    1.103   .     S
C105   H925    1.108   .     S
C105   H926    1.108   .     S
C106   H140    1.109   .     S
C106   C107    1.520   .     S
C106   O167    1.411   .     S
C106   H142    1.114   .     S
C107   H144    1.102   .     S
C107   H145    1.111   .     S
C107   H143    1.110   .     S
C108   O168    1.415   .     S
C108   H147    1.101   .     S
C108   H146    1.111   .     S
C108   C109    1.526   .     S
C109   H149    1.111   .     S
C109   H148    1.111   .     S
C109   H150    1.106   .     S
C110   O172    1.309   .     A
C110   C112    1.462   .     S
C110   O174    1.296   .     A
C111   C113    1.457   .     S
C111   O175    1.305   .     A
C111   O173    1.297   .     A
C113   C200    1.352   .     S
C113   O252    1.386   .     S
C114   N159    1.437   .     S
C114   C644    1.411   1_545 S
C115   N160    1.420   .     S
C115   C354    1.400   .     S
C116   O165    1.380   .     S
C116   C378    1.411   .     S
Cu117  O171    1.987   .     S
Cu117  N157    2.041   .     S
Cu117  Cu118   2.716   .     S
Cu117  O172    1.997   .     S
Cu117  O163    1.988   .     S
Cu117  O175    1.990   .     S
Cu118  O174    1.990   .     S
Cu118  N158    2.041   .     S
Cu118  O170    1.987   .     S
Cu118  O173    1.997   .     S
Cu118  O169    1.988   .     S
H121   N159    1.045   .     S
H122   N159    1.043   .     S
H123   N160    1.043   .     S
H124   N160    1.043   .     S
H128   C895    1.107   .     S
H133   C1689   1.108   1_554 S
H134   C1689   1.108   1_554 S
H136   N161    1.044   .     S
H137   N161    1.033   .     S
H138   N162    1.036   .     S
H139   N162    1.045   .     S
O176   C185    1.398   .     S
O176   C200    1.397   .     S
C177   O251    1.299   .     A
C177   O258    1.315   .     A
C177   C180    1.473   .     S
C178   C180    1.406   .     A
C178   O254    1.387   .     S
C178   C731    1.400   1_545 S
C179   C204    1.407   .     A
C179   C188    1.479   .     S
C179   C203    1.405   .     A
C180   C202    1.407   .     A
C181   N246    1.388   .     A
C181   N249    1.419   .     S
C181   C1767   1.426   1_554 S
C182   N245    1.371   .     A
C182   N250    1.424   .     S
C182   C976    1.444   .     S
C183   O255    1.382   .     S
C183   N245    1.357   .     A
C183   C973    1.426   .     S
C184   N246    1.380   .     A
C184   O256    1.390   .     S
C184   C1766   1.444   1_554 S
C185   H218    1.109   .     S
C185   H207    1.107   .     S
C186   H239    1.105   .     S
C186   H229    1.109   .     S
C186   H240    1.110   .     S
C186   C9      1.508   1_655 S
C187   H241    1.115   .     S
C187   C13     1.512   1_655 S
C187   H66     1.116   1_655 S
C187   O76     1.418   1_655 S
C188   O259    1.308   .     A
C188   O257    1.309   .     A
C189   H208    1.111   .     S
C189   H243    1.109   .     S
C189   H244    1.108   .     S
C190   O253    1.411   .     S
C190   H214    1.111   .     S
C190   H213    1.110   .     S
C190   C191    1.513   .     S
C191   H217    1.109   .     S
C191   H215    1.107   .     S
C191   H1800   1.107   1_554 S
C192   C193    1.527   .     S
C192   H220    1.114   .     S
C192   H219    1.111   .     S
C192   O254    1.410   .     S
C193   H223    1.103   .     S
C193   H1013   1.108   .     S
C193   H1014   1.108   .     S
C194   H228    1.109   .     S
C194   C195    1.520   .     S
C194   O255    1.411   .     S
C194   H230    1.114   .     S
C195   H232    1.102   .     S
C195   H233    1.111   .     S
C195   H231    1.110   .     S
C196   O256    1.415   .     S
C196   H235    1.101   .     S
C196   H234    1.111   .     S
C196   C197    1.526   .     S
C197   H237    1.111   .     S
C197   H236    1.111   .     S
C197   H238    1.106   .     S
C198   O260    1.309   .     A
C198   C200    1.462   .     S
C198   O262    1.296   .     A
C199   C201    1.457   .     S
C199   O263    1.305   .     A
C199   O261    1.297   .     A
C201   C24     1.352   1_655 S
C201   O76     1.386   1_655 S
C202   N247    1.437   .     S
C202   C732    1.411   1_545 S
C203   N248    1.420   .     S
C203   C442    1.400   .     S
C204   O253    1.380   .     S
C204   C466    1.411   .     S
Cu205  O259    1.987   .     S
Cu205  N245    2.041   .     S
Cu205  Cu206   2.716   .     S
Cu205  O260    1.997   .     S
Cu205  O251    1.988   .     S
Cu205  O263    1.990   .     S
Cu206  O262    1.990   .     S
Cu206  N246    2.041   .     S
Cu206  O258    1.987   .     S
Cu206  O261    1.997   .     S
Cu206  O257    1.988   .     S
H209   N247    1.045   .     S
H210   N247    1.043   .     S
H211   N248    1.043   .     S
H212   N248    1.043   .     S
H216   C983    1.107   .     S
H221   C1777   1.108   1_554 S
H222   C1777   1.108   1_554 S
H224   N249    1.044   .     S
H225   N249    1.033   .     S
H226   N250    1.036   .     S
H227   N250    1.045   .     S
O264   C9      1.398   1_655 S
O264   C24     1.397   1_655 S
C265   O339    1.299   .     A
C265   O346    1.315   .     A
C265   C268    1.473   .     S
C266   C268    1.406   .     A
C266   O342    1.387   .     S
C267   C292    1.407   .     A
C267   C276    1.479   .     S
C267   C291    1.405   .     A
C268   C290    1.407   .     A
C269   N334    1.388   .     A
C269   N337    1.419   .     S
C269   C1855   1.426   1_554 S
C270   N333    1.371   .     A
C270   N338    1.424   .     S
C270   C1064   1.444   .     S
C271   O343    1.382   .     S
C271   N333    1.357   .     A
C271   C1061   1.426   .     S
C272   N334    1.380   .     A
C272   O344    1.390   .     S
C272   C1854   1.444   1_554 S
C273   H306    1.109   .     S
C273   H295    1.107   .     S
C273   C450    1.508   1_455 S
C273   O528    1.398   1_455 S
C274   H327    1.105   .     S
C274   H317    1.109   .     S
C274   H328    1.110   .     S
C274   C361    1.508   .     S
C275   H329    1.115   .     S
C275   C365    1.512   .     S
C275   H418    1.116   .     S
C275   O428    1.418   .     S
C276   O347    1.308   .     A
C276   O345    1.309   .     A
C277   H296    1.111   .     S
C277   H331    1.109   .     S
C277   H332    1.108   .     S
C277   C451    1.512   1_455 S
C278   O341    1.411   .     S
C278   H302    1.111   .     S
C278   H301    1.110   .     S
C278   C279    1.513   .     S
C279   H305    1.109   .     S
C279   H303    1.107   .     S
C279   H1888   1.107   1_554 S
C280   C281    1.527   .     S
C280   H308    1.114   .     S
C280   H307    1.111   .     S
C280   O342    1.410   .     S
C281   H311    1.103   .     S
C281   H1101   1.108   .     S
C281   H1102   1.108   .     S
C282   H316    1.109   .     S
C282   C283    1.520   .     S
C282   O343    1.411   .     S
C282   H318    1.114   .     S
C283   H320    1.102   .     S
C283   H321    1.111   .     S
C283   H319    1.110   .     S
C284   O344    1.415   .     S
C284   H323    1.101   .     S
C284   H322    1.111   .     S
C284   C285    1.526   .     S
C285   H325    1.111   .     S
C285   H324    1.111   .     S
C285   H326    1.106   .     S
C286   O348    1.309   .     A
C286   C288    1.462   .     S
C286   O350    1.296   .     A
C287   C289    1.457   .     S
C287   O351    1.305   .     A
C287   O349    1.297   .     A
C288   C465    1.352   1_455 S
C288   O528    1.397   1_455 S
C289   C376    1.352   .     S
C289   O428    1.386   .     S
C290   N335    1.437   .     S
C291   N336    1.420   .     S
C291   C530    1.400   .     S
C292   O341    1.380   .     S
C292   C554    1.411   .     S
Cu293  O347    1.987   .     S
Cu293  N333    2.041   .     S
Cu293  Cu294   2.716   .     S
Cu293  O348    1.997   .     S
Cu293  O339    1.988   .     S
Cu293  O351    1.990   .     S
Cu294  O350    1.990   .     S
Cu294  N334    2.041   .     S
Cu294  O346    1.987   .     S
Cu294  O349    1.997   .     S
Cu294  O345    1.988   .     S
H297   N335    1.045   .     S
H298   N335    1.043   .     S
H299   N336    1.043   .     S
H300   N336    1.043   .     S
H304   C1071   1.107   .     S
H309   C1865   1.108   1_554 S
H310   C1865   1.108   1_554 S
H312   N337    1.044   .     S
H313   N337    1.033   .     S
H314   N338    1.036   .     S
H315   N338    1.045   .     S
H330   C451    1.116   1_455 S
O340   C451    1.418   1_455 S
O340   C465    1.386   1_455 S
O352   C361    1.398   .     S
O352   C376    1.397   .     S
C353   O427    1.299   .     A
C353   O434    1.315   .     A
C353   C356    1.473   .     S
C354   C356    1.406   .     A
C354   O430    1.387   .     S
C355   C380    1.407   .     A
C355   C364    1.479   .     S
C355   C379    1.405   .     A
C356   C378    1.407   .     A
C357   N422    1.388   .     A
C357   N425    1.419   .     S
C357   C1943   1.426   1_554 S
C358   N421    1.371   .     A
C358   N426    1.424   .     S
C358   C1152   1.444   .     S
C359   O431    1.382   .     S
C359   N421    1.357   .     A
C359   C1149   1.426   .     S
C360   N422    1.380   .     A
C360   O432    1.390   .     S
C360   C1942   1.444   1_554 S
C361   H394    1.109   .     S
C361   H383    1.107   .     S
C362   H415    1.105   .     S
C362   H405    1.109   .     S
C362   H416    1.110   .     S
C362   C449    1.508   .     S
C363   H417    1.115   .     S
C363   C453    1.512   .     S
C363   H506    1.116   .     S
C363   O516    1.418   .     S
C364   O435    1.308   .     A
C364   O433    1.309   .     A
C365   H384    1.111   .     S
C365   H419    1.109   .     S
C365   H420    1.108   .     S
C366   O429    1.411   .     S
C366   H390    1.111   .     S
C366   H389    1.110   .     S
C366   C367    1.513   .     S
C367   H393    1.109   .     S
C367   H391    1.107   .     S
C367   H1976   1.107   1_554 S
C368   C369    1.527   .     S
C368   H396    1.114   .     S
C368   H395    1.111   .     S
C368   O430    1.410   .     S
C369   H399    1.103   .     S
C369   H1189   1.108   .     S
C369   H1190   1.108   .     S
C370   H404    1.109   .     S
C370   C371    1.520   .     S
C370   O431    1.411   .     S
C370   H406    1.114   .     S
C371   H408    1.102   .     S
C371   H409    1.111   .     S
C371   H407    1.110   .     S
C372   O432    1.415   .     S
C372   H411    1.101   .     S
C372   H410    1.111   .     S
C372   C373    1.526   .     S
C373   H413    1.111   .     S
C373   H412    1.111   .     S
C373   H414    1.106   .     S
C374   O436    1.309   .     A
C374   C376    1.462   .     S
C374   O438    1.296   .     A
C375   C377    1.457   .     S
C375   O439    1.305   .     A
C375   O437    1.297   .     A
C377   C464    1.352   .     S
C377   O516    1.386   .     S
C378   N423    1.437   .     S
C379   N424    1.420   .     S
C379   C618    1.400   .     S
C380   O429    1.380   .     S
C380   C642    1.411   .     S
Cu381  O435    1.987   .     S
Cu381  N421    2.041   .     S
Cu381  Cu382   2.716   .     S
Cu381  O436    1.997   .     S
Cu381  O427    1.988   .     S
Cu381  O439    1.990   .     S
Cu382  O438    1.990   .     S
Cu382  N422    2.041   .     S
Cu382  O434    1.987   .     S
Cu382  O437    1.997   .     S
Cu382  O433    1.988   .     S
H385   N423    1.045   .     S
H386   N423    1.043   .     S
H387   N424    1.043   .     S
H388   N424    1.043   .     S
H392   C1159   1.107   .     S
H397   C1953   1.108   1_554 S
H398   C1953   1.108   1_554 S
H400   N425    1.044   .     S
H401   N425    1.033   .     S
H402   N426    1.036   .     S
H403   N426    1.045   .     S
O440   C449    1.398   .     S
O440   C464    1.397   .     S
C441   O515    1.299   .     A
C441   O522    1.315   .     A
C441   C444    1.473   .     S
C442   C444    1.406   .     A
C442   O518    1.387   .     S
C443   C468    1.407   .     A
C443   C452    1.479   .     S
C443   C467    1.405   .     A
C444   C466    1.407   .     A
C445   N510    1.388   .     A
C445   N513    1.419   .     S
C445   C2031   1.426   1_554 S
C446   N509    1.371   .     A
C446   N514    1.424   .     S
C446   C1240   1.444   .     S
C447   O519    1.382   .     S
C447   N509    1.357   .     A
C447   C1237   1.426   .     S
C448   N510    1.380   .     A
C448   O520    1.390   .     S
C448   C2030   1.444   1_554 S
C449   H482    1.109   .     S
C449   H471    1.107   .     S
C450   H503    1.105   .     S
C450   H493    1.109   .     S
C450   H504    1.110   .     S
C450   C273    1.508   1_655 S
C451   H505    1.115   .     S
C451   C277    1.512   1_655 S
C451   H330    1.116   1_655 S
C451   O340    1.418   1_655 S
C452   O523    1.308   .     A
C452   O521    1.309   .     A
C453   H472    1.111   .     S
C453   H507    1.109   .     S
C453   H508    1.108   .     S
C454   O517    1.411   .     S
C454   H478    1.111   .     S
C454   H477    1.110   .     S
C454   C455    1.513   .     S
C455   H481    1.109   .     S
C455   H479    1.107   .     S
C455   H2064   1.107   1_554 S
C456   C457    1.527   .     S
C456   H484    1.114   .     S
C456   H483    1.111   .     S
C456   O518    1.410   .     S
C457   H487    1.103   .     S
C457   H1277   1.108   .     S
C457   H1278   1.108   .     S
C458   H492    1.109   .     S
C458   C459    1.520   .     S
C458   O519    1.411   .     S
C458   H494    1.114   .     S
C459   H496    1.102   .     S
C459   H497    1.111   .     S
C459   H495    1.110   .     S
C460   O520    1.415   .     S
C460   H499    1.101   .     S
C460   H498    1.111   .     S
C460   C461    1.526   .     S
C461   H501    1.111   .     S
C461   H500    1.111   .     S
C461   H502    1.106   .     S
C462   O524    1.309   .     A
C462   C464    1.462   .     S
C462   O526    1.296   .     A
C463   C465    1.457   .     S
C463   O527    1.305   .     A
C463   O525    1.297   .     A
C465   C288    1.352   1_655 S
C465   O340    1.386   1_655 S
C466   N511    1.437   .     S
C467   N512    1.420   .     S
C467   C706    1.400   .     S
C468   O517    1.380   .     S
C468   C730    1.411   .     S
Cu469  O523    1.987   .     S
Cu469  N509    2.041   .     S
Cu469  Cu470   2.716   .     S
Cu469  O524    1.997   .     S
Cu469  O515    1.988   .     S
Cu469  O527    1.990   .     S
Cu470  O526    1.990   .     S
Cu470  N510    2.041   .     S
Cu470  O522    1.987   .     S
Cu470  O525    1.997   .     S
Cu470  O521    1.988   .     S
H473   N511    1.045   .     S
H474   N511    1.043   .     S
H475   N512    1.043   .     S
H476   N512    1.043   .     S
H480   C1247   1.107   .     S
H485   C2041   1.108   1_554 S
H486   C2041   1.108   1_554 S
H488   N513    1.044   .     S
H489   N513    1.033   .     S
H490   N514    1.036   .     S
H491   N514    1.045   .     S
O528   C273    1.398   1_655 S
O528   C288    1.397   1_655 S
C529   O603    1.299   .     A
C529   O610    1.315   .     A
C529   C532    1.473   .     S
C530   C532    1.406   .     A
C530   O606    1.387   .     S
C531   C556    1.407   .     A
C531   C540    1.479   .     S
C531   C555    1.405   .     A
C532   C554    1.407   .     A
C533   N598    1.388   .     A
C533   N601    1.419   .     S
C533   C2119   1.426   1_554 S
C534   N597    1.371   .     A
C534   N602    1.424   .     S
C534   C1328   1.444   .     S
C535   O607    1.382   .     S
C535   N597    1.357   .     A
C535   C1325   1.426   .     S
C536   N598    1.380   .     A
C536   O608    1.390   .     S
C536   C2118   1.444   1_554 S
C537   H570    1.109   .     S
C537   H559    1.107   .     S
C537   C714    1.508   1_455 S
C537   O792    1.398   1_455 S
C538   H591    1.105   .     S
C538   H581    1.109   .     S
C538   H592    1.110   .     S
C538   C625    1.508   .     S
C539   H593    1.115   .     S
C539   C629    1.512   .     S
C539   H682    1.116   .     S
C539   O692    1.418   .     S
C540   O611    1.308   .     A
C540   O609    1.309   .     A
C541   H560    1.111   .     S
C541   H595    1.109   .     S
C541   H596    1.108   .     S
C541   C715    1.512   1_455 S
C542   O605    1.411   .     S
C542   H566    1.111   .     S
C542   H565    1.110   .     S
C542   C543    1.513   .     S
C543   H569    1.109   .     S
C543   H567    1.107   .     S
C543   H2152   1.107   1_554 S
C544   C545    1.527   .     S
C544   H572    1.114   .     S
C544   H571    1.111   .     S
C544   O606    1.410   .     S
C545   H575    1.103   .     S
C545   H1365   1.108   .     S
C545   H1366   1.108   .     S
C546   H580    1.109   .     S
C546   C547    1.520   .     S
C546   O607    1.411   .     S
C546   H582    1.114   .     S
C547   H584    1.102   .     S
C547   H585    1.111   .     S
C547   H583    1.110   .     S
C548   O608    1.415   .     S
C548   H587    1.101   .     S
C548   H586    1.111   .     S
C548   C549    1.526   .     S
C549   H589    1.111   .     S
C549   H588    1.111   .     S
C549   H590    1.106   .     S
C550   O612    1.309   .     A
C550   C552    1.462   .     S
C550   O614    1.296   .     A
C551   C553    1.457   .     S
C551   O615    1.305   .     A
C551   O613    1.297   .     A
C552   C729    1.352   1_455 S
C552   O792    1.397   1_455 S
C553   C640    1.352   .     S
C553   O692    1.386   .     S
C554   N599    1.437   .     S
C555   N600    1.420   .     S
C555   C2      1.400   1_565 S
C556   O605    1.380   .     S
C556   C26     1.411   1_565 S
Cu557  O611    1.987   .     S
Cu557  N597    2.041   .     S
Cu557  Cu558   2.716   .     S
Cu557  O612    1.997   .     S
Cu557  O603    1.988   .     S
Cu557  O615    1.990   .     S
Cu558  O614    1.990   .     S
Cu558  N598    2.041   .     S
Cu558  O610    1.987   .     S
Cu558  O613    1.997   .     S
Cu558  O609    1.988   .     S
H561   N599    1.045   .     S
H562   N599    1.043   .     S
H563   N600    1.043   .     S
H564   N600    1.043   .     S
H568   C1335   1.107   .     S
H573   C2129   1.108   1_554 S
H574   C2129   1.108   1_554 S
H576   N601    1.044   .     S
H577   N601    1.033   .     S
H578   N602    1.036   .     S
H579   N602    1.045   .     S
H594   C715    1.116   1_455 S
O604   C715    1.418   1_455 S
O604   C729    1.386   1_455 S
O616   C625    1.398   .     S
O616   C640    1.397   .     S
C617   O691    1.299   .     A
C617   O698    1.315   .     A
C617   C620    1.473   .     S
C618   C620    1.406   .     A
C618   O694    1.387   .     S
C619   C644    1.407   .     A
C619   C628    1.479   .     S
C619   C643    1.405   .     A
C620   C642    1.407   .     A
C621   N686    1.388   .     A
C621   N689    1.419   .     S
C621   C2207   1.426   1_554 S
C622   N685    1.371   .     A
C622   N690    1.424   .     S
C622   C1416   1.444   .     S
C623   O695    1.382   .     S
C623   N685    1.357   .     A
C623   C1413   1.426   .     S
C624   N686    1.380   .     A
C624   O696    1.390   .     S
C624   C2206   1.444   1_554 S
C625   H658    1.109   .     S
C625   H647    1.107   .     S
C626   H679    1.105   .     S
C626   H669    1.109   .     S
C626   H680    1.110   .     S
C626   C713    1.508   .     S
C627   H681    1.115   .     S
C627   C717    1.512   .     S
C627   H770    1.116   .     S
C627   O780    1.418   .     S
C628   O699    1.308   .     A
C628   O697    1.309   .     A
C629   H648    1.111   .     S
C629   H683    1.109   .     S
C629   H684    1.108   .     S
C630   O693    1.411   .     S
C630   H654    1.111   .     S
C630   H653    1.110   .     S
C630   C631    1.513   .     S
C631   H657    1.109   .     S
C631   H655    1.107   .     S
C631   H2240   1.107   1_554 S
C632   C633    1.527   .     S
C632   H660    1.114   .     S
C632   H659    1.111   .     S
C632   O694    1.410   .     S
C633   H663    1.103   .     S
C633   H1453   1.108   .     S
C633   H1454   1.108   .     S
C634   H668    1.109   .     S
C634   C635    1.520   .     S
C634   O695    1.411   .     S
C634   H670    1.114   .     S
C635   H672    1.102   .     S
C635   H673    1.111   .     S
C635   H671    1.110   .     S
C636   O696    1.415   .     S
C636   H675    1.101   .     S
C636   H674    1.111   .     S
C636   C637    1.526   .     S
C637   H677    1.111   .     S
C637   H676    1.111   .     S
C637   H678    1.106   .     S
C638   O700    1.309   .     A
C638   C640    1.462   .     S
C638   O702    1.296   .     A
C639   C641    1.457   .     S
C639   O703    1.305   .     A
C639   O701    1.297   .     A
C641   C728    1.352   .     S
C641   O780    1.386   .     S
C642   N687    1.437   .     S
C643   N688    1.420   .     S
C643   C90     1.400   1_565 S
C644   O693    1.380   .     S
C644   C114    1.411   1_565 S
Cu645  O699    1.987   .     S
Cu645  N685    2.041   .     S
Cu645  Cu646   2.716   .     S
Cu645  O700    1.997   .     S
Cu645  O691    1.988   .     S
Cu645  O703    1.990   .     S
Cu646  O702    1.990   .     S
Cu646  N686    2.041   .     S
Cu646  O698    1.987   .     S
Cu646  O701    1.997   .     S
Cu646  O697    1.988   .     S
H649   N687    1.045   .     S
H650   N687    1.043   .     S
H651   N688    1.043   .     S
H652   N688    1.043   .     S
H656   C1423   1.107   .     S
H661   C2217   1.108   1_554 S
H662   C2217   1.108   1_554 S
H664   N689    1.044   .     S
H665   N689    1.033   .     S
H666   N690    1.036   .     S
H667   N690    1.045   .     S
O704   C713    1.398   .     S
O704   C728    1.397   .     S
C705   O779    1.299   .     A
C705   O786    1.315   .     A
C705   C708    1.473   .     S
C706   C708    1.406   .     A
C706   O782    1.387   .     S
C707   C732    1.407   .     A
C707   C716    1.479   .     S
C707   C731    1.405   .     A
C708   C730    1.407   .     A
C709   N774    1.388   .     A
C709   N777    1.419   .     S
C709   C2295   1.426   1_554 S
C710   N773    1.371   .     A
C710   N778    1.424   .     S
C710   C1504   1.444   .     S
C711   O783    1.382   .     S
C711   N773    1.357   .     A
C711   C1501   1.426   .     S
C712   N774    1.380   .     A
C712   O784    1.390   .     S
C712   C2294   1.444   1_554 S
C713   H746    1.109   .     S
C713   H735    1.107   .     S
C714   H767    1.105   .     S
C714   H757    1.109   .     S
C714   H768    1.110   .     S
C714   C537    1.508   1_655 S
C715   H769    1.115   .     S
C715   C541    1.512   1_655 S
C715   H594    1.116   1_655 S
C715   O604    1.418   1_655 S
C716   O787    1.308   .     A
C716   O785    1.309   .     A
C717   H736    1.111   .     S
C717   H771    1.109   .     S
C717   H772    1.108   .     S
C718   O781    1.411   .     S
C718   H742    1.111   .     S
C718   H741    1.110   .     S
C718   C719    1.513   .     S
C719   H745    1.109   .     S
C719   H743    1.107   .     S
C719   H2328   1.107   1_554 S
C720   C721    1.527   .     S
C720   H748    1.114   .     S
C720   H747    1.111   .     S
C720   O782    1.410   .     S
C721   H751    1.103   .     S
C721   H1541   1.108   .     S
C721   H1542   1.108   .     S
C722   H756    1.109   .     S
C722   C723    1.520   .     S
C722   O783    1.411   .     S
C722   H758    1.114   .     S
C723   H760    1.102   .     S
C723   H761    1.111   .     S
C723   H759    1.110   .     S
C724   O784    1.415   .     S
C724   H763    1.101   .     S
C724   H762    1.111   .     S
C724   C725    1.526   .     S
C725   H765    1.111   .     S
C725   H764    1.111   .     S
C725   H766    1.106   .     S
C726   O788    1.309   .     A
C726   C728    1.462   .     S
C726   O790    1.296   .     A
C727   C729    1.457   .     S
C727   O791    1.305   .     A
C727   O789    1.297   .     A
C729   C552    1.352   1_655 S
C729   O604    1.386   1_655 S
C730   N775    1.437   .     S
C731   N776    1.420   .     S
C731   C178    1.400   1_565 S
C732   O781    1.380   .     S
C732   C202    1.411   1_565 S
Cu733  O787    1.987   .     S
Cu733  N773    2.041   .     S
Cu733  Cu734   2.716   .     S
Cu733  O788    1.997   .     S
Cu733  O779    1.988   .     S
Cu733  O791    1.990   .     S
Cu734  O790    1.990   .     S
Cu734  N774    2.041   .     S
Cu734  O786    1.987   .     S
Cu734  O789    1.997   .     S
Cu734  O785    1.988   .     S
H737   N775    1.045   .     S
H738   N775    1.043   .     S
H739   N776    1.043   .     S
H740   N776    1.043   .     S
H744   C1511   1.107   .     S
H749   C2305   1.108   1_554 S
H750   C2305   1.108   1_554 S
H752   N777    1.044   .     S
H753   N777    1.033   .     S
H754   N778    1.036   .     S
H755   N778    1.045   .     S
O792   C537    1.398   1_655 S
O792   C552    1.397   1_655 S
C793   O867    1.299   .     A
C793   O874    1.315   .     A
C793   C796    1.473   .     S
C794   C796    1.406   .     A
C794   O870    1.387   .     S
C794   C1347   1.400   1_545 S
C795   C820    1.407   .     A
C795   C804    1.479   .     S
C795   C819    1.405   .     A
C796   C818    1.407   .     A
C797   N862    1.388   .     A
C797   N865    1.419   .     S
C798   N861    1.371   .     A
C798   N866    1.424   .     S
C798   C1592   1.444   .     S
C799   O871    1.382   .     S
C799   N861    1.357   .     A
C799   C1589   1.426   .     S
C800   N862    1.380   .     A
C800   O872    1.390   .     S
C801   H834    1.109   .     S
C801   H823    1.107   .     S
C801   C978    1.508   1_455 S
C801   O1056   1.398   1_455 S
C802   H855    1.105   .     S
C802   H845    1.109   .     S
C802   H856    1.110   .     S
C802   C889    1.508   .     S
C803   H857    1.115   .     S
C803   C893    1.512   .     S
C803   H946    1.116   .     S
C803   O956    1.418   .     S
C804   O875    1.308   .     A
C804   O873    1.309   .     A
C805   H824    1.111   .     S
C805   H859    1.109   .     S
C805   H860    1.108   .     S
C805   C979    1.512   1_455 S
C806   O869    1.411   .     S
C806   H830    1.111   .     S
C806   H829    1.110   .     S
C806   C807    1.513   .     S
C807   H833    1.109   .     S
C807   H831    1.107   .     S
C808   C809    1.527   .     S
C808   H836    1.114   .     S
C808   H835    1.111   .     S
C808   O870    1.410   .     S
C809   H839    1.103   .     S
C809   H1629   1.108   .     S
C809   H1630   1.108   .     S
C810   H844    1.109   .     S
C810   C811    1.520   .     S
C810   O871    1.411   .     S
C810   H846    1.114   .     S
C811   H848    1.102   .     S
C811   H849    1.111   .     S
C811   H847    1.110   .     S
C812   O872    1.415   .     S
C812   H851    1.101   .     S
C812   H850    1.111   .     S
C812   C813    1.526   .     S
C813   H853    1.111   .     S
C813   H852    1.111   .     S
C813   H854    1.106   .     S
C814   O876    1.309   .     A
C814   C816    1.462   .     S
C814   O878    1.296   .     A
C815   C817    1.457   .     S
C815   O879    1.305   .     A
C815   O877    1.297   .     A
C816   C993    1.352   1_455 S
C816   O1056   1.397   1_455 S
C817   C904    1.352   .     S
C817   O956    1.386   .     S
C818   N863    1.437   .     S
C818   C1348   1.411   1_545 S
C819   N864    1.420   .     S
C819   C1058   1.400   .     S
C820   O869    1.380   .     S
C820   C1082   1.411   .     S
Cu821  O875    1.987   .     S
Cu821  N861    2.041   .     S
Cu821  Cu822   2.716   .     S
Cu821  O876    1.997   .     S
Cu821  O867    1.988   .     S
Cu821  O879    1.990   .     S
Cu822  O878    1.990   .     S
Cu822  N862    2.041   .     S
Cu822  O874    1.987   .     S
Cu822  O877    1.997   .     S
Cu822  O873    1.988   .     S
H825   N863    1.045   .     S
H826   N863    1.043   .     S
H827   N864    1.043   .     S
H828   N864    1.043   .     S
H832   C1599   1.107   .     S
H840   N865    1.044   .     S
H841   N865    1.033   .     S
H842   N866    1.036   .     S
H843   N866    1.045   .     S
H858   C979    1.116   1_455 S
O868   C979    1.418   1_455 S
O868   C993    1.386   1_455 S
O880   C889    1.398   .     S
O880   C904    1.397   .     S
C881   O955    1.299   .     A
C881   O962    1.315   .     A
C881   C884    1.473   .     S
C882   C884    1.406   .     A
C882   O958    1.387   .     S
C882   C1435   1.400   1_545 S
C883   C908    1.407   .     A
C883   C892    1.479   .     S
C883   C907    1.405   .     A
C884   C906    1.407   .     A
C885   N950    1.388   .     A
C885   N953    1.419   .     S
C886   N949    1.371   .     A
C886   N954    1.424   .     S
C886   C1680   1.444   .     S
C887   O959    1.382   .     S
C887   N949    1.357   .     A
C887   C1677   1.426   .     S
C888   N950    1.380   .     A
C888   O960    1.390   .     S
C889   H922    1.109   .     S
C889   H911    1.107   .     S
C890   H943    1.105   .     S
C890   H933    1.109   .     S
C890   H944    1.110   .     S
C890   C977    1.508   .     S
C891   H945    1.115   .     S
C891   C981    1.512   .     S
C891   H1034   1.116   .     S
C891   O1044   1.418   .     S
C892   O963    1.308   .     A
C892   O961    1.309   .     A
C893   H912    1.111   .     S
C893   H947    1.109   .     S
C893   H948    1.108   .     S
C894   O957    1.411   .     S
C894   H918    1.111   .     S
C894   H917    1.110   .     S
C894   C895    1.513   .     S
C895   H921    1.109   .     S
C895   H919    1.107   .     S
C896   C897    1.527   .     S
C896   H924    1.114   .     S
C896   H923    1.111   .     S
C896   O958    1.410   .     S
C897   H927    1.103   .     S
C897   H1717   1.108   .     S
C897   H1718   1.108   .     S
C898   H932    1.109   .     S
C898   C899    1.520   .     S
C898   O959    1.411   .     S
C898   H934    1.114   .     S
C899   H936    1.102   .     S
C899   H937    1.111   .     S
C899   H935    1.110   .     S
C900   O960    1.415   .     S
C900   H939    1.101   .     S
C900   H938    1.111   .     S
C900   C901    1.526   .     S
C901   H941    1.111   .     S
C901   H940    1.111   .     S
C901   H942    1.106   .     S
C902   O964    1.309   .     A
C902   C904    1.462   .     S
C902   O966    1.296   .     A
C903   C905    1.457   .     S
C903   O967    1.305   .     A
C903   O965    1.297   .     A
C905   C992    1.352   .     S
C905   O1044   1.386   .     S
C906   N951    1.437   .     S
C906   C1436   1.411   1_545 S
C907   N952    1.420   .     S
C907   C1146   1.400   .     S
C908   O957    1.380   .     S
C908   C1170   1.411   .     S
Cu909  O963    1.987   .     S
Cu909  N949    2.041   .     S
Cu909  Cu910   2.716   .     S
Cu909  O964    1.997   .     S
Cu909  O955    1.988   .     S
Cu909  O967    1.990   .     S
Cu910  O966    1.990   .     S
Cu910  N950    2.041   .     S
Cu910  O962    1.987   .     S
Cu910  O965    1.997   .     S
Cu910  O961    1.988   .     S
H913   N951    1.045   .     S
H914   N951    1.043   .     S
H915   N952    1.043   .     S
H916   N952    1.043   .     S
H920   C1687   1.107   .     S
H928   N953    1.044   .     S
H929   N953    1.033   .     S
H930   N954    1.036   .     S
H931   N954    1.045   .     S
O968   C977    1.398   .     S
O968   C992    1.397   .     S
C969   O1043   1.299   .     A
C969   O1050   1.315   .     A
C969   C972    1.473   .     S
C970   C972    1.406   .     A
C970   O1046   1.387   .     S
C970   C1523   1.400   1_545 S
C971   C996    1.407   .     A
C971   C980    1.479   .     S
C971   C995    1.405   .     A
C972   C994    1.407   .     A
C973   N1038   1.388   .     A
C973   N1041   1.419   .     S
C974   N1037   1.371   .     A
C974   N1042   1.424   .     S
C974   C1768   1.444   .     S
C975   O1047   1.382   .     S
C975   N1037   1.357   .     A
C975   C1765   1.426   .     S
C976   N1038   1.380   .     A
C976   O1048   1.390   .     S
C977   H1010   1.109   .     S
C977   H999    1.107   .     S
C978   H1031   1.105   .     S
C978   H1021   1.109   .     S
C978   H1032   1.110   .     S
C978   C801    1.508   1_655 S
C979   H1033   1.115   .     S
C979   C805    1.512   1_655 S
C979   H858    1.116   1_655 S
C979   O868    1.418   1_655 S
C980   O1051   1.308   .     A
C980   O1049   1.309   .     A
C981   H1000   1.111   .     S
C981   H1035   1.109   .     S
C981   H1036   1.108   .     S
C982   O1045   1.411   .     S
C982   H1006   1.111   .     S
C982   H1005   1.110   .     S
C982   C983    1.513   .     S
C983   H1009   1.109   .     S
C983   H1007   1.107   .     S
C984   C985    1.527   .     S
C984   H1012   1.114   .     S
C984   H1011   1.111   .     S
C984   O1046   1.410   .     S
C985   H1015   1.103   .     S
C985   H1805   1.108   .     S
C985   H1806   1.108   .     S
C986   H1020   1.109   .     S
C986   C987    1.520   .     S
C986   O1047   1.411   .     S
C986   H1022   1.114   .     S
C987   H1024   1.102   .     S
C987   H1025   1.111   .     S
C987   H1023   1.110   .     S
C988   O1048   1.415   .     S
C988   H1027   1.101   .     S
C988   H1026   1.111   .     S
C988   C989    1.526   .     S
C989   H1029   1.111   .     S
C989   H1028   1.111   .     S
C989   H1030   1.106   .     S
C990   O1052   1.309   .     A
C990   C992    1.462   .     S
C990   O1054   1.296   .     A
C991   C993    1.457   .     S
C991   O1055   1.305   .     A
C991   O1053   1.297   .     A
C993   C816    1.352   1_655 S
C993   O868    1.386   1_655 S
C994   N1039   1.437   .     S
C994   C1524   1.411   1_545 S
C995   N1040   1.420   .     S
C995   C1234   1.400   .     S
C996   O1045   1.380   .     S
C996   C1258   1.411   .     S
Cu997  O1051   1.987   .     S
Cu997  N1037   2.041   .     S
Cu997  Cu998   2.716   .     S
Cu997  O1052   1.997   .     S
Cu997  O1043   1.988   .     S
Cu997  O1055   1.990   .     S
Cu998  O1054   1.990   .     S
Cu998  N1038   2.041   .     S
Cu998  O1050   1.987   .     S
Cu998  O1053   1.997   .     S
Cu998  O1049   1.988   .     S
H1001  N1039   1.045   .     S
H1002  N1039   1.043   .     S
H1003  N1040   1.043   .     S
H1004  N1040   1.043   .     S
H1008  C1775   1.107   .     S
H1016  N1041   1.044   .     S
H1017  N1041   1.033   .     S
H1018  N1042   1.036   .     S
H1019  N1042   1.045   .     S
O1056  C801    1.398   1_655 S
O1056  C816    1.397   1_655 S
C1057  O1131   1.299   .     A
C1057  O1138   1.315   .     A
C1057  C1060   1.473   .     S
C1058  C1060   1.406   .     A
C1058  O1134   1.387   .     S
C1059  C1084   1.407   .     A
C1059  C1068   1.479   .     S
C1059  C1083   1.405   .     A
C1060  C1082   1.407   .     A
C1061  N1126   1.388   .     A
C1061  N1129   1.419   .     S
C1062  N1125   1.371   .     A
C1062  N1130   1.424   .     S
C1062  C1856   1.444   .     S
C1063  O1135   1.382   .     S
C1063  N1125   1.357   .     A
C1063  C1853   1.426   .     S
C1064  N1126   1.380   .     A
C1064  O1136   1.390   .     S
C1065  H1098   1.109   .     S
C1065  H1087   1.107   .     S
C1065  C1242   1.508   1_455 S
C1065  O1320   1.398   1_455 S
C1066  H1119   1.105   .     S
C1066  H1109   1.109   .     S
C1066  H1120   1.110   .     S
C1066  C1153   1.508   .     S
C1067  H1121   1.115   .     S
C1067  C1157   1.512   .     S
C1067  H1210   1.116   .     S
C1067  O1220   1.418   .     S
C1068  O1139   1.308   .     A
C1068  O1137   1.309   .     A
C1069  H1088   1.111   .     S
C1069  H1123   1.109   .     S
C1069  H1124   1.108   .     S
C1069  C1243   1.512   1_455 S
C1070  O1133   1.411   .     S
C1070  H1094   1.111   .     S
C1070  H1093   1.110   .     S
C1070  C1071   1.513   .     S
C1071  H1097   1.109   .     S
C1071  H1095   1.107   .     S
C1072  C1073   1.527   .     S
C1072  H1100   1.114   .     S
C1072  H1099   1.111   .     S
C1072  O1134   1.410   .     S
C1073  H1103   1.103   .     S
C1073  H1893   1.108   .     S
C1073  H1894   1.108   .     S
C1074  H1108   1.109   .     S
C1074  C1075   1.520   .     S
C1074  O1135   1.411   .     S
C1074  H1110   1.114   .     S
C1075  H1112   1.102   .     S
C1075  H1113   1.111   .     S
C1075  H1111   1.110   .     S
C1076  O1136   1.415   .     S
C1076  H1115   1.101   .     S
C1076  H1114   1.111   .     S
C1076  C1077   1.526   .     S
C1077  H1117   1.111   .     S
C1077  H1116   1.111   .     S
C1077  H1118   1.106   .     S
C1078  O1140   1.309   .     A
C1078  C1080   1.462   .     S
C1078  O1142   1.296   .     A
C1079  C1081   1.457   .     S
C1079  O1143   1.305   .     A
C1079  O1141   1.297   .     A
C1080  C1257   1.352   1_455 S
C1080  O1320   1.397   1_455 S
C1081  C1168   1.352   .     S
C1081  O1220   1.386   .     S
C1082  N1127   1.437   .     S
C1083  N1128   1.420   .     S
C1083  C1322   1.400   .     S
C1084  O1133   1.380   .     S
C1084  C1346   1.411   .     S
Cu1085 O1139   1.987   .     S
Cu1085 N1125   2.041   .     S
Cu1085 Cu1086  2.716   .     S
Cu1085 O1140   1.997   .     S
Cu1085 O1131   1.988   .     S
Cu1085 O1143   1.990   .     S
Cu1086 O1142   1.990   .     S
Cu1086 N1126   2.041   .     S
Cu1086 O1138   1.987   .     S
Cu1086 O1141   1.997   .     S
Cu1086 O1137   1.988   .     S
H1089  N1127   1.045   .     S
H1090  N1127   1.043   .     S
H1091  N1128   1.043   .     S
H1092  N1128   1.043   .     S
H1096  C1863   1.107   .     S
H1104  N1129   1.044   .     S
H1105  N1129   1.033   .     S
H1106  N1130   1.036   .     S
H1107  N1130   1.045   .     S
H1122  C1243   1.116   1_455 S
O1132  C1243   1.418   1_455 S
O1132  C1257   1.386   1_455 S
O1144  C1153   1.398   .     S
O1144  C1168   1.397   .     S
C1145  O1219   1.299   .     A
C1145  O1226   1.315   .     A
C1145  C1148   1.473   .     S
C1146  C1148   1.406   .     A
C1146  O1222   1.387   .     S
C1147  C1172   1.407   .     A
C1147  C1156   1.479   .     S
C1147  C1171   1.405   .     A
C1148  C1170   1.407   .     A
C1149  N1214   1.388   .     A
C1149  N1217   1.419   .     S
C1150  N1213   1.371   .     A
C1150  N1218   1.424   .     S
C1150  C1944   1.444   .     S
C1151  O1223   1.382   .     S
C1151  N1213   1.357   .     A
C1151  C1941   1.426   .     S
C1152  N1214   1.380   .     A
C1152  O1224   1.390   .     S
C1153  H1186   1.109   .     S
C1153  H1175   1.107   .     S
C1154  H1207   1.105   .     S
C1154  H1197   1.109   .     S
C1154  H1208   1.110   .     S
C1154  C1241   1.508   .     S
C1155  H1209   1.115   .     S
C1155  C1245   1.512   .     S
C1155  H1298   1.116   .     S
C1155  O1308   1.418   .     S
C1156  O1227   1.308   .     A
C1156  O1225   1.309   .     A
C1157  H1176   1.111   .     S
C1157  H1211   1.109   .     S
C1157  H1212   1.108   .     S
C1158  O1221   1.411   .     S
C1158  H1182   1.111   .     S
C1158  H1181   1.110   .     S
C1158  C1159   1.513   .     S
C1159  H1185   1.109   .     S
C1159  H1183   1.107   .     S
C1160  C1161   1.527   .     S
C1160  H1188   1.114   .     S
C1160  H1187   1.111   .     S
C1160  O1222   1.410   .     S
C1161  H1191   1.103   .     S
C1161  H1981   1.108   .     S
C1161  H1982   1.108   .     S
C1162  H1196   1.109   .     S
C1162  C1163   1.520   .     S
C1162  O1223   1.411   .     S
C1162  H1198   1.114   .     S
C1163  H1200   1.102   .     S
C1163  H1201   1.111   .     S
C1163  H1199   1.110   .     S
C1164  O1224   1.415   .     S
C1164  H1203   1.101   .     S
C1164  H1202   1.111   .     S
C1164  C1165   1.526   .     S
C1165  H1205   1.111   .     S
C1165  H1204   1.111   .     S
C1165  H1206   1.106   .     S
C1166  O1228   1.309   .     A
C1166  C1168   1.462   .     S
C1166  O1230   1.296   .     A
C1167  C1169   1.457   .     S
C1167  O1231   1.305   .     A
C1167  O1229   1.297   .     A
C1169  C1256   1.352   .     S
C1169  O1308   1.386   .     S
C1170  N1215   1.437   .     S
C1171  N1216   1.420   .     S
C1171  C1410   1.400   .     S
C1172  O1221   1.380   .     S
C1172  C1434   1.411   .     S
Cu1173 O1227   1.987   .     S
Cu1173 N1213   2.041   .     S
Cu1173 Cu1174  2.716   .     S
Cu1173 O1228   1.997   .     S
Cu1173 O1219   1.988   .     S
Cu1173 O1231   1.990   .     S
Cu1174 O1230   1.990   .     S
Cu1174 N1214   2.041   .     S
Cu1174 O1226   1.987   .     S
Cu1174 O1229   1.997   .     S
Cu1174 O1225   1.988   .     S
H1177  N1215   1.045   .     S
H1178  N1215   1.043   .     S
H1179  N1216   1.043   .     S
H1180  N1216   1.043   .     S
H1184  C1951   1.107   .     S
H1192  N1217   1.044   .     S
H1193  N1217   1.033   .     S
H1194  N1218   1.036   .     S
H1195  N1218   1.045   .     S
O1232  C1241   1.398   .     S
O1232  C1256   1.397   .     S
C1233  O1307   1.299   .     A
C1233  O1314   1.315   .     A
C1233  C1236   1.473   .     S
C1234  C1236   1.406   .     A
C1234  O1310   1.387   .     S
C1235  C1260   1.407   .     A
C1235  C1244   1.479   .     S
C1235  C1259   1.405   .     A
C1236  C1258   1.407   .     A
C1237  N1302   1.388   .     A
C1237  N1305   1.419   .     S
C1238  N1301   1.371   .     A
C1238  N1306   1.424   .     S
C1238  C2032   1.444   .     S
C1239  O1311   1.382   .     S
C1239  N1301   1.357   .     A
C1239  C2029   1.426   .     S
C1240  N1302   1.380   .     A
C1240  O1312   1.390   .     S
C1241  H1274   1.109   .     S
C1241  H1263   1.107   .     S
C1242  H1295   1.105   .     S
C1242  H1285   1.109   .     S
C1242  H1296   1.110   .     S
C1242  C1065   1.508   1_655 S
C1243  H1297   1.115   .     S
C1243  C1069   1.512   1_655 S
C1243  H1122   1.116   1_655 S
C1243  O1132   1.418   1_655 S
C1244  O1315   1.308   .     A
C1244  O1313   1.309   .     A
C1245  H1264   1.111   .     S
C1245  H1299   1.109   .     S
C1245  H1300   1.108   .     S
C1246  O1309   1.411   .     S
C1246  H1270   1.111   .     S
C1246  H1269   1.110   .     S
C1246  C1247   1.513   .     S
C1247  H1273   1.109   .     S
C1247  H1271   1.107   .     S
C1248  C1249   1.527   .     S
C1248  H1276   1.114   .     S
C1248  H1275   1.111   .     S
C1248  O1310   1.410   .     S
C1249  H1279   1.103   .     S
C1249  H2069   1.108   .     S
C1249  H2070   1.108   .     S
C1250  H1284   1.109   .     S
C1250  C1251   1.520   .     S
C1250  O1311   1.411   .     S
C1250  H1286   1.114   .     S
C1251  H1288   1.102   .     S
C1251  H1289   1.111   .     S
C1251  H1287   1.110   .     S
C1252  O1312   1.415   .     S
C1252  H1291   1.101   .     S
C1252  H1290   1.111   .     S
C1252  C1253   1.526   .     S
C1253  H1293   1.111   .     S
C1253  H1292   1.111   .     S
C1253  H1294   1.106   .     S
C1254  O1316   1.309   .     A
C1254  C1256   1.462   .     S
C1254  O1318   1.296   .     A
C1255  C1257   1.457   .     S
C1255  O1319   1.305   .     A
C1255  O1317   1.297   .     A
C1257  C1080   1.352   1_655 S
C1257  O1132   1.386   1_655 S
C1258  N1303   1.437   .     S
C1259  N1304   1.420   .     S
C1259  C1498   1.400   .     S
C1260  O1309   1.380   .     S
C1260  C1522   1.411   .     S
Cu1261 O1315   1.987   .     S
Cu1261 N1301   2.041   .     S
Cu1261 Cu1262  2.716   .     S
Cu1261 O1316   1.997   .     S
Cu1261 O1307   1.988   .     S
Cu1261 O1319   1.990   .     S
Cu1262 O1318   1.990   .     S
Cu1262 N1302   2.041   .     S
Cu1262 O1314   1.987   .     S
Cu1262 O1317   1.997   .     S
Cu1262 O1313   1.988   .     S
H1265  N1303   1.045   .     S
H1266  N1303   1.043   .     S
H1267  N1304   1.043   .     S
H1268  N1304   1.043   .     S
H1272  C2039   1.107   .     S
H1280  N1305   1.044   .     S
H1281  N1305   1.033   .     S
H1282  N1306   1.036   .     S
H1283  N1306   1.045   .     S
O1320  C1065   1.398   1_655 S
O1320  C1080   1.397   1_655 S
C1321  O1395   1.299   .     A
C1321  O1402   1.315   .     A
C1321  C1324   1.473   .     S
C1322  C1324   1.406   .     A
C1322  O1398   1.387   .     S
C1323  C1348   1.407   .     A
C1323  C1332   1.479   .     S
C1323  C1347   1.405   .     A
C1324  C1346   1.407   .     A
C1325  N1390   1.388   .     A
C1325  N1393   1.419   .     S
C1326  N1389   1.371   .     A
C1326  N1394   1.424   .     S
C1326  C2120   1.444   .     S
C1327  O1399   1.382   .     S
C1327  N1389   1.357   .     A
C1327  C2117   1.426   .     S
C1328  N1390   1.380   .     A
C1328  O1400   1.390   .     S
C1329  H1362   1.109   .     S
C1329  H1351   1.107   .     S
C1329  C1506   1.508   1_455 S
C1329  O1584   1.398   1_455 S
C1330  H1383   1.105   .     S
C1330  H1373   1.109   .     S
C1330  H1384   1.110   .     S
C1330  C1417   1.508   .     S
C1331  H1385   1.115   .     S
C1331  C1421   1.512   .     S
C1331  H1474   1.116   .     S
C1331  O1484   1.418   .     S
C1332  O1403   1.308   .     A
C1332  O1401   1.309   .     A
C1333  H1352   1.111   .     S
C1333  H1387   1.109   .     S
C1333  H1388   1.108   .     S
C1333  C1507   1.512   1_455 S
C1334  O1397   1.411   .     S
C1334  H1358   1.111   .     S
C1334  H1357   1.110   .     S
C1334  C1335   1.513   .     S
C1335  H1361   1.109   .     S
C1335  H1359   1.107   .     S
C1336  C1337   1.527   .     S
C1336  H1364   1.114   .     S
C1336  H1363   1.111   .     S
C1336  O1398   1.410   .     S
C1337  H1367   1.103   .     S
C1337  H2157   1.108   .     S
C1337  H2158   1.108   .     S
C1338  H1372   1.109   .     S
C1338  C1339   1.520   .     S
C1338  O1399   1.411   .     S
C1338  H1374   1.114   .     S
C1339  H1376   1.102   .     S
C1339  H1377   1.111   .     S
C1339  H1375   1.110   .     S
C1340  O1400   1.415   .     S
C1340  H1379   1.101   .     S
C1340  H1378   1.111   .     S
C1340  C1341   1.526   .     S
C1341  H1381   1.111   .     S
C1341  H1380   1.111   .     S
C1341  H1382   1.106   .     S
C1342  O1404   1.309   .     A
C1342  C1344   1.462   .     S
C1342  O1406   1.296   .     A
C1343  C1345   1.457   .     S
C1343  O1407   1.305   .     A
C1343  O1405   1.297   .     A
C1344  C1521   1.352   1_455 S
C1344  O1584   1.397   1_455 S
C1345  C1432   1.352   .     S
C1345  O1484   1.386   .     S
C1346  N1391   1.437   .     S
C1347  N1392   1.420   .     S
C1347  C794    1.400   1_565 S
C1348  O1397   1.380   .     S
C1348  C818    1.411   1_565 S
Cu1349 O1403   1.987   .     S
Cu1349 N1389   2.041   .     S
Cu1349 Cu1350  2.716   .     S
Cu1349 O1404   1.997   .     S
Cu1349 O1395   1.988   .     S
Cu1349 O1407   1.990   .     S
Cu1350 O1406   1.990   .     S
Cu1350 N1390   2.041   .     S
Cu1350 O1402   1.987   .     S
Cu1350 O1405   1.997   .     S
Cu1350 O1401   1.988   .     S
H1353  N1391   1.045   .     S
H1354  N1391   1.043   .     S
H1355  N1392   1.043   .     S
H1356  N1392   1.043   .     S
H1360  C2127   1.107   .     S
H1368  N1393   1.044   .     S
H1369  N1393   1.033   .     S
H1370  N1394   1.036   .     S
H1371  N1394   1.045   .     S
H1386  C1507   1.116   1_455 S
O1396  C1507   1.418   1_455 S
O1396  C1521   1.386   1_455 S
O1408  C1417   1.398   .     S
O1408  C1432   1.397   .     S
C1409  O1483   1.299   .     A
C1409  O1490   1.315   .     A
C1409  C1412   1.473   .     S
C1410  C1412   1.406   .     A
C1410  O1486   1.387   .     S
C1411  C1436   1.407   .     A
C1411  C1420   1.479   .     S
C1411  C1435   1.405   .     A
C1412  C1434   1.407   .     A
C1413  N1478   1.388   .     A
C1413  N1481   1.419   .     S
C1414  N1477   1.371   .     A
C1414  N1482   1.424   .     S
C1414  C2208   1.444   .     S
C1415  O1487   1.382   .     S
C1415  N1477   1.357   .     A
C1415  C2205   1.426   .     S
C1416  N1478   1.380   .     A
C1416  O1488   1.390   .     S
C1417  H1450   1.109   .     S
C1417  H1439   1.107   .     S
C1418  H1471   1.105   .     S
C1418  H1461   1.109   .     S
C1418  H1472   1.110   .     S
C1418  C1505   1.508   .     S
C1419  H1473   1.115   .     S
C1419  C1509   1.512   .     S
C1419  H1562   1.116   .     S
C1419  O1572   1.418   .     S
C1420  O1491   1.308   .     A
C1420  O1489   1.309   .     A
C1421  H1440   1.111   .     S
C1421  H1475   1.109   .     S
C1421  H1476   1.108   .     S
C1422  O1485   1.411   .     S
C1422  H1446   1.111   .     S
C1422  H1445   1.110   .     S
C1422  C1423   1.513   .     S
C1423  H1449   1.109   .     S
C1423  H1447   1.107   .     S
C1424  C1425   1.527   .     S
C1424  H1452   1.114   .     S
C1424  H1451   1.111   .     S
C1424  O1486   1.410   .     S
C1425  H1455   1.103   .     S
C1425  H2245   1.108   .     S
C1425  H2246   1.108   .     S
C1426  H1460   1.109   .     S
C1426  C1427   1.520   .     S
C1426  O1487   1.411   .     S
C1426  H1462   1.114   .     S
C1427  H1464   1.102   .     S
C1427  H1465   1.111   .     S
C1427  H1463   1.110   .     S
C1428  O1488   1.415   .     S
C1428  H1467   1.101   .     S
C1428  H1466   1.111   .     S
C1428  C1429   1.526   .     S
C1429  H1469   1.111   .     S
C1429  H1468   1.111   .     S
C1429  H1470   1.106   .     S
C1430  O1492   1.309   .     A
C1430  C1432   1.462   .     S
C1430  O1494   1.296   .     A
C1431  C1433   1.457   .     S
C1431  O1495   1.305   .     A
C1431  O1493   1.297   .     A
C1433  C1520   1.352   .     S
C1433  O1572   1.386   .     S
C1434  N1479   1.437   .     S
C1435  N1480   1.420   .     S
C1435  C882    1.400   1_565 S
C1436  O1485   1.380   .     S
C1436  C906    1.411   1_565 S
Cu1437 O1491   1.987   .     S
Cu1437 N1477   2.041   .     S
Cu1437 Cu1438  2.716   .     S
Cu1437 O1492   1.997   .     S
Cu1437 O1483   1.988   .     S
Cu1437 O1495   1.990   .     S
Cu1438 O1494   1.990   .     S
Cu1438 N1478   2.041   .     S
Cu1438 O1490   1.987   .     S
Cu1438 O1493   1.997   .     S
Cu1438 O1489   1.988   .     S
H1441  N1479   1.045   .     S
H1442  N1479   1.043   .     S
H1443  N1480   1.043   .     S
H1444  N1480   1.043   .     S
H1448  C2215   1.107   .     S
H1456  N1481   1.044   .     S
H1457  N1481   1.033   .     S
H1458  N1482   1.036   .     S
H1459  N1482   1.045   .     S
O1496  C1505   1.398   .     S
O1496  C1520   1.397   .     S
C1497  O1571   1.299   .     A
C1497  O1578   1.315   .     A
C1497  C1500   1.473   .     S
C1498  C1500   1.406   .     A
C1498  O1574   1.387   .     S
C1499  C1524   1.407   .     A
C1499  C1508   1.479   .     S
C1499  C1523   1.405   .     A
C1500  C1522   1.407   .     A
C1501  N1566   1.388   .     A
C1501  N1569   1.419   .     S
C1502  N1565   1.371   .     A
C1502  N1570   1.424   .     S
C1502  C2296   1.444   .     S
C1503  O1575   1.382   .     S
C1503  N1565   1.357   .     A
C1503  C2293   1.426   .     S
C1504  N1566   1.380   .     A
C1504  O1576   1.390   .     S
C1505  H1538   1.109   .     S
C1505  H1527   1.107   .     S
C1506  H1559   1.105   .     S
C1506  H1549   1.109   .     S
C1506  H1560   1.110   .     S
C1506  C1329   1.508   1_655 S
C1507  H1561   1.115   .     S
C1507  C1333   1.512   1_655 S
C1507  H1386   1.116   1_655 S
C1507  O1396   1.418   1_655 S
C1508  O1579   1.308   .     A
C1508  O1577   1.309   .     A
C1509  H1528   1.111   .     S
C1509  H1563   1.109   .     S
C1509  H1564   1.108   .     S
C1510  O1573   1.411   .     S
C1510  H1534   1.111   .     S
C1510  H1533   1.110   .     S
C1510  C1511   1.513   .     S
C1511  H1537   1.109   .     S
C1511  H1535   1.107   .     S
C1512  C1513   1.527   .     S
C1512  H1540   1.114   .     S
C1512  H1539   1.111   .     S
C1512  O1574   1.410   .     S
C1513  H1543   1.103   .     S
C1513  H2333   1.108   .     S
C1513  H2334   1.108   .     S
C1514  H1548   1.109   .     S
C1514  C1515   1.520   .     S
C1514  O1575   1.411   .     S
C1514  H1550   1.114   .     S
C1515  H1552   1.102   .     S
C1515  H1553   1.111   .     S
C1515  H1551   1.110   .     S
C1516  O1576   1.415   .     S
C1516  H1555   1.101   .     S
C1516  H1554   1.111   .     S
C1516  C1517   1.526   .     S
C1517  H1557   1.111   .     S
C1517  H1556   1.111   .     S
C1517  H1558   1.106   .     S
C1518  O1580   1.309   .     A
C1518  C1520   1.462   .     S
C1518  O1582   1.296   .     A
C1519  C1521   1.457   .     S
C1519  O1583   1.305   .     A
C1519  O1581   1.297   .     A
C1521  C1344   1.352   1_655 S
C1521  O1396   1.386   1_655 S
C1522  N1567   1.437   .     S
C1523  N1568   1.420   .     S
C1523  C970    1.400   1_565 S
C1524  O1573   1.380   .     S
C1524  C994    1.411   1_565 S
Cu1525 O1579   1.987   .     S
Cu1525 N1565   2.041   .     S
Cu1525 Cu1526  2.716   .     S
Cu1525 O1580   1.997   .     S
Cu1525 O1571   1.988   .     S
Cu1525 O1583   1.990   .     S
Cu1526 O1582   1.990   .     S
Cu1526 N1566   2.041   .     S
Cu1526 O1578   1.987   .     S
Cu1526 O1581   1.997   .     S
Cu1526 O1577   1.988   .     S
H1529  N1567   1.045   .     S
H1530  N1567   1.043   .     S
H1531  N1568   1.043   .     S
H1532  N1568   1.043   .     S
H1536  C2303   1.107   .     S
H1544  N1569   1.044   .     S
H1545  N1569   1.033   .     S
H1546  N1570   1.036   .     S
H1547  N1570   1.045   .     S
O1584  C1329   1.398   1_655 S
O1584  C1344   1.397   1_655 S
C1585  O1659   1.299   .     A
C1585  O1666   1.315   .     A
C1585  C1588   1.473   .     S
C1586  C1588   1.406   .     A
C1586  O1662   1.387   .     S
C1586  C2139   1.400   1_545 S
C1587  C1612   1.407   .     A
C1587  C1596   1.479   .     S
C1587  C1611   1.405   .     A
C1588  C1610   1.407   .     A
C1589  N1654   1.388   .     A
C1589  N1657   1.419   .     S
C1590  N1653   1.371   .     A
C1590  N1658   1.424   .     S
C1590  C8      1.444   1_556 S
C1591  O1663   1.382   .     S
C1591  N1653   1.357   .     A
C1591  C5      1.426   1_556 S
C1592  N1654   1.380   .     A
C1592  O1664   1.390   .     S
C1593  H1626   1.109   .     S
C1593  H1615   1.107   .     S
C1593  C1770   1.508   1_455 S
C1593  O1848   1.398   1_455 S
C1594  H1647   1.105   .     S
C1594  H1637   1.109   .     S
C1594  H1648   1.110   .     S
C1594  C1681   1.508   .     S
C1595  H1649   1.115   .     S
C1595  C1685   1.512   .     S
C1595  H1738   1.116   .     S
C1595  O1748   1.418   .     S
C1596  O1667   1.308   .     A
C1596  O1665   1.309   .     A
C1597  H1616   1.111   .     S
C1597  H1651   1.109   .     S
C1597  H1652   1.108   .     S
C1597  C1771   1.512   1_455 S
C1598  O1661   1.411   .     S
C1598  H1622   1.111   .     S
C1598  H1621   1.110   .     S
C1598  C1599   1.513   .     S
C1599  H1625   1.109   .     S
C1599  H1623   1.107   .     S
C1600  C1601   1.527   .     S
C1600  H1628   1.114   .     S
C1600  H1627   1.111   .     S
C1600  O1662   1.410   .     S
C1601  H1631   1.103   .     S
C1601  H45     1.108   1_556 S
C1601  H46     1.108   1_556 S
C1602  H1636   1.109   .     S
C1602  C1603   1.520   .     S
C1602  O1663   1.411   .     S
C1602  H1638   1.114   .     S
C1603  H1640   1.102   .     S
C1603  H1641   1.111   .     S
C1603  H1639   1.110   .     S
C1604  O1664   1.415   .     S
C1604  H1643   1.101   .     S
C1604  H1642   1.111   .     S
C1604  C1605   1.526   .     S
C1605  H1645   1.111   .     S
C1605  H1644   1.111   .     S
C1605  H1646   1.106   .     S
C1606  O1668   1.309   .     A
C1606  C1608   1.462   .     S
C1606  O1670   1.296   .     A
C1607  C1609   1.457   .     S
C1607  O1671   1.305   .     A
C1607  O1669   1.297   .     A
C1608  C1785   1.352   1_455 S
C1608  O1848   1.397   1_455 S
C1609  C1696   1.352   .     S
C1609  O1748   1.386   .     S
C1610  N1655   1.437   .     S
C1610  C2140   1.411   1_545 S
C1611  N1656   1.420   .     S
C1611  C1850   1.400   .     S
C1612  O1661   1.380   .     S
C1612  C1874   1.411   .     S
Cu1613 O1667   1.987   .     S
Cu1613 N1653   2.041   .     S
Cu1613 Cu1614  2.716   .     S
Cu1613 O1668   1.997   .     S
Cu1613 O1659   1.988   .     S
Cu1613 O1671   1.990   .     S
Cu1614 O1670   1.990   .     S
Cu1614 N1654   2.041   .     S
Cu1614 O1666   1.987   .     S
Cu1614 O1669   1.997   .     S
Cu1614 O1665   1.988   .     S
H1617  N1655   1.045   .     S
H1618  N1655   1.043   .     S
H1619  N1656   1.043   .     S
H1620  N1656   1.043   .     S
H1624  C15     1.107   1_556 S
H1632  N1657   1.044   .     S
H1633  N1657   1.033   .     S
H1634  N1658   1.036   .     S
H1635  N1658   1.045   .     S
H1650  C1771   1.116   1_455 S
O1660  C1771   1.418   1_455 S
O1660  C1785   1.386   1_455 S
O1672  C1681   1.398   .     S
O1672  C1696   1.397   .     S
C1673  O1747   1.299   .     A
C1673  O1754   1.315   .     A
C1673  C1676   1.473   .     S
C1674  C1676   1.406   .     A
C1674  O1750   1.387   .     S
C1674  C2227   1.400   1_545 S
C1675  C1700   1.407   .     A
C1675  C1684   1.479   .     S
C1675  C1699   1.405   .     A
C1676  C1698   1.407   .     A
C1677  N1742   1.388   .     A
C1677  N1745   1.419   .     S
C1678  N1741   1.371   .     A
C1678  N1746   1.424   .     S
C1678  C96     1.444   1_556 S
C1679  O1751   1.382   .     S
C1679  N1741   1.357   .     A
C1679  C93     1.426   1_556 S
C1680  N1742   1.380   .     A
C1680  O1752   1.390   .     S
C1681  H1714   1.109   .     S
C1681  H1703   1.107   .     S
C1682  H1735   1.105   .     S
C1682  H1725   1.109   .     S
C1682  H1736   1.110   .     S
C1682  C1769   1.508   .     S
C1683  H1737   1.115   .     S
C1683  C1773   1.512   .     S
C1683  H1826   1.116   .     S
C1683  O1836   1.418   .     S
C1684  O1755   1.308   .     A
C1684  O1753   1.309   .     A
C1685  H1704   1.111   .     S
C1685  H1739   1.109   .     S
C1685  H1740   1.108   .     S
C1686  O1749   1.411   .     S
C1686  H1710   1.111   .     S
C1686  H1709   1.110   .     S
C1686  C1687   1.513   .     S
C1687  H1713   1.109   .     S
C1687  H1711   1.107   .     S
C1688  C1689   1.527   .     S
C1688  H1716   1.114   .     S
C1688  H1715   1.111   .     S
C1688  O1750   1.410   .     S
C1689  H1719   1.103   .     S
C1689  H133    1.108   1_556 S
C1689  H134    1.108   1_556 S
C1690  H1724   1.109   .     S
C1690  C1691   1.520   .     S
C1690  O1751   1.411   .     S
C1690  H1726   1.114   .     S
C1691  H1728   1.102   .     S
C1691  H1729   1.111   .     S
C1691  H1727   1.110   .     S
C1692  O1752   1.415   .     S
C1692  H1731   1.101   .     S
C1692  H1730   1.111   .     S
C1692  C1693   1.526   .     S
C1693  H1733   1.111   .     S
C1693  H1732   1.111   .     S
C1693  H1734   1.106   .     S
C1694  O1756   1.309   .     A
C1694  C1696   1.462   .     S
C1694  O1758   1.296   .     A
C1695  C1697   1.457   .     S
C1695  O1759   1.305   .     A
C1695  O1757   1.297   .     A
C1697  C1784   1.352   .     S
C1697  O1836   1.386   .     S
C1698  N1743   1.437   .     S
C1698  C2228   1.411   1_545 S
C1699  N1744   1.420   .     S
C1699  C1938   1.400   .     S
C1700  O1749   1.380   .     S
C1700  C1962   1.411   .     S
Cu1701 O1755   1.987   .     S
Cu1701 N1741   2.041   .     S
Cu1701 Cu1702  2.716   .     S
Cu1701 O1756   1.997   .     S
Cu1701 O1747   1.988   .     S
Cu1701 O1759   1.990   .     S
Cu1702 O1758   1.990   .     S
Cu1702 N1742   2.041   .     S
Cu1702 O1754   1.987   .     S
Cu1702 O1757   1.997   .     S
Cu1702 O1753   1.988   .     S
H1705  N1743   1.045   .     S
H1706  N1743   1.043   .     S
H1707  N1744   1.043   .     S
H1708  N1744   1.043   .     S
H1712  C103    1.107   1_556 S
H1720  N1745   1.044   .     S
H1721  N1745   1.033   .     S
H1722  N1746   1.036   .     S
H1723  N1746   1.045   .     S
O1760  C1769   1.398   .     S
O1760  C1784   1.397   .     S
C1761  O1835   1.299   .     A
C1761  O1842   1.315   .     A
C1761  C1764   1.473   .     S
C1762  C1764   1.406   .     A
C1762  O1838   1.387   .     S
C1762  C2315   1.400   1_545 S
C1763  C1788   1.407   .     A
C1763  C1772   1.479   .     S
C1763  C1787   1.405   .     A
C1764  C1786   1.407   .     A
C1765  N1830   1.388   .     A
C1765  N1833   1.419   .     S
C1766  N1829   1.371   .     A
C1766  N1834   1.424   .     S
C1766  C184    1.444   1_556 S
C1767  O1839   1.382   .     S
C1767  N1829   1.357   .     A
C1767  C181    1.426   1_556 S
C1768  N1830   1.380   .     A
C1768  O1840   1.390   .     S
C1769  H1802   1.109   .     S
C1769  H1791   1.107   .     S
C1770  H1823   1.105   .     S
C1770  H1813   1.109   .     S
C1770  H1824   1.110   .     S
C1770  C1593   1.508   1_655 S
C1771  H1825   1.115   .     S
C1771  C1597   1.512   1_655 S
C1771  H1650   1.116   1_655 S
C1771  O1660   1.418   1_655 S
C1772  O1843   1.308   .     A
C1772  O1841   1.309   .     A
C1773  H1792   1.111   .     S
C1773  H1827   1.109   .     S
C1773  H1828   1.108   .     S
C1774  O1837   1.411   .     S
C1774  H1798   1.111   .     S
C1774  H1797   1.110   .     S
C1774  C1775   1.513   .     S
C1775  H1801   1.109   .     S
C1775  H1799   1.107   .     S
C1776  C1777   1.527   .     S
C1776  H1804   1.114   .     S
C1776  H1803   1.111   .     S
C1776  O1838   1.410   .     S
C1777  H1807   1.103   .     S
C1777  H221    1.108   1_556 S
C1777  H222    1.108   1_556 S
C1778  H1812   1.109   .     S
C1778  C1779   1.520   .     S
C1778  O1839   1.411   .     S
C1778  H1814   1.114   .     S
C1779  H1816   1.102   .     S
C1779  H1817   1.111   .     S
C1779  H1815   1.110   .     S
C1780  O1840   1.415   .     S
C1780  H1819   1.101   .     S
C1780  H1818   1.111   .     S
C1780  C1781   1.526   .     S
C1781  H1821   1.111   .     S
C1781  H1820   1.111   .     S
C1781  H1822   1.106   .     S
C1782  O1844   1.309   .     A
C1782  C1784   1.462   .     S
C1782  O1846   1.296   .     A
C1783  C1785   1.457   .     S
C1783  O1847   1.305   .     A
C1783  O1845   1.297   .     A
C1785  C1608   1.352   1_655 S
C1785  O1660   1.386   1_655 S
C1786  N1831   1.437   .     S
C1786  C2316   1.411   1_545 S
C1787  N1832   1.420   .     S
C1787  C2026   1.400   .     S
C1788  O1837   1.380   .     S
C1788  C2050   1.411   .     S
Cu1789 O1843   1.987   .     S
Cu1789 N1829   2.041   .     S
Cu1789 Cu1790  2.716   .     S
Cu1789 O1844   1.997   .     S
Cu1789 O1835   1.988   .     S
Cu1789 O1847   1.990   .     S
Cu1790 O1846   1.990   .     S
Cu1790 N1830   2.041   .     S
Cu1790 O1842   1.987   .     S
Cu1790 O1845   1.997   .     S
Cu1790 O1841   1.988   .     S
H1793  N1831   1.045   .     S
H1794  N1831   1.043   .     S
H1795  N1832   1.043   .     S
H1796  N1832   1.043   .     S
H1800  C191    1.107   1_556 S
H1808  N1833   1.044   .     S
H1809  N1833   1.033   .     S
H1810  N1834   1.036   .     S
H1811  N1834   1.045   .     S
O1848  C1593   1.398   1_655 S
O1848  C1608   1.397   1_655 S
C1849  O1923   1.299   .     A
C1849  O1930   1.315   .     A
C1849  C1852   1.473   .     S
C1850  C1852   1.406   .     A
C1850  O1926   1.387   .     S
C1851  C1876   1.407   .     A
C1851  C1860   1.479   .     S
C1851  C1875   1.405   .     A
C1852  C1874   1.407   .     A
C1853  N1918   1.388   .     A
C1853  N1921   1.419   .     S
C1854  N1917   1.371   .     A
C1854  N1922   1.424   .     S
C1854  C272    1.444   1_556 S
C1855  O1927   1.382   .     S
C1855  N1917   1.357   .     A
C1855  C269    1.426   1_556 S
C1856  N1918   1.380   .     A
C1856  O1928   1.390   .     S
C1857  H1890   1.109   .     S
C1857  H1879   1.107   .     S
C1857  C2034   1.508   1_455 S
C1857  O2112   1.398   1_455 S
C1858  H1911   1.105   .     S
C1858  H1901   1.109   .     S
C1858  H1912   1.110   .     S
C1858  C1945   1.508   .     S
C1859  H1913   1.115   .     S
C1859  C1949   1.512   .     S
C1859  H2002   1.116   .     S
C1859  O2012   1.418   .     S
C1860  O1931   1.308   .     A
C1860  O1929   1.309   .     A
C1861  H1880   1.111   .     S
C1861  H1915   1.109   .     S
C1861  H1916   1.108   .     S
C1861  C2035   1.512   1_455 S
C1862  O1925   1.411   .     S
C1862  H1886   1.111   .     S
C1862  H1885   1.110   .     S
C1862  C1863   1.513   .     S
C1863  H1889   1.109   .     S
C1863  H1887   1.107   .     S
C1864  C1865   1.527   .     S
C1864  H1892   1.114   .     S
C1864  H1891   1.111   .     S
C1864  O1926   1.410   .     S
C1865  H1895   1.103   .     S
C1865  H309    1.108   1_556 S
C1865  H310    1.108   1_556 S
C1866  H1900   1.109   .     S
C1866  C1867   1.520   .     S
C1866  O1927   1.411   .     S
C1866  H1902   1.114   .     S
C1867  H1904   1.102   .     S
C1867  H1905   1.111   .     S
C1867  H1903   1.110   .     S
C1868  O1928   1.415   .     S
C1868  H1907   1.101   .     S
C1868  H1906   1.111   .     S
C1868  C1869   1.526   .     S
C1869  H1909   1.111   .     S
C1869  H1908   1.111   .     S
C1869  H1910   1.106   .     S
C1870  O1932   1.309   .     A
C1870  C1872   1.462   .     S
C1870  O1934   1.296   .     A
C1871  C1873   1.457   .     S
C1871  O1935   1.305   .     A
C1871  O1933   1.297   .     A
C1872  C2049   1.352   1_455 S
C1872  O2112   1.397   1_455 S
C1873  C1960   1.352   .     S
C1873  O2012   1.386   .     S
C1874  N1919   1.437   .     S
C1875  N1920   1.420   .     S
C1875  C2114   1.400   .     S
C1876  O1925   1.380   .     S
C1876  C2138   1.411   .     S
Cu1877 O1931   1.987   .     S
Cu1877 N1917   2.041   .     S
Cu1877 Cu1878  2.716   .     S
Cu1877 O1932   1.997   .     S
Cu1877 O1923   1.988   .     S
Cu1877 O1935   1.990   .     S
Cu1878 O1934   1.990   .     S
Cu1878 N1918   2.041   .     S
Cu1878 O1930   1.987   .     S
Cu1878 O1933   1.997   .     S
Cu1878 O1929   1.988   .     S
H1881  N1919   1.045   .     S
H1882  N1919   1.043   .     S
H1883  N1920   1.043   .     S
H1884  N1920   1.043   .     S
H1888  C279    1.107   1_556 S
H1896  N1921   1.044   .     S
H1897  N1921   1.033   .     S
H1898  N1922   1.036   .     S
H1899  N1922   1.045   .     S
H1914  C2035   1.116   1_455 S
O1924  C2035   1.418   1_455 S
O1924  C2049   1.386   1_455 S
O1936  C1945   1.398   .     S
O1936  C1960   1.397   .     S
C1937  O2011   1.299   .     A
C1937  O2018   1.315   .     A
C1937  C1940   1.473   .     S
C1938  C1940   1.406   .     A
C1938  O2014   1.387   .     S
C1939  C1964   1.407   .     A
C1939  C1948   1.479   .     S
C1939  C1963   1.405   .     A
C1940  C1962   1.407   .     A
C1941  N2006   1.388   .     A
C1941  N2009   1.419   .     S
C1942  N2005   1.371   .     A
C1942  N2010   1.424   .     S
C1942  C360    1.444   1_556 S
C1943  O2015   1.382   .     S
C1943  N2005   1.357   .     A
C1943  C357    1.426   1_556 S
C1944  N2006   1.380   .     A
C1944  O2016   1.390   .     S
C1945  H1978   1.109   .     S
C1945  H1967   1.107   .     S
C1946  H1999   1.105   .     S
C1946  H1989   1.109   .     S
C1946  H2000   1.110   .     S
C1946  C2033   1.508   .     S
C1947  H2001   1.115   .     S
C1947  C2037   1.512   .     S
C1947  H2090   1.116   .     S
C1947  O2100   1.418   .     S
C1948  O2019   1.308   .     A
C1948  O2017   1.309   .     A
C1949  H1968   1.111   .     S
C1949  H2003   1.109   .     S
C1949  H2004   1.108   .     S
C1950  O2013   1.411   .     S
C1950  H1974   1.111   .     S
C1950  H1973   1.110   .     S
C1950  C1951   1.513   .     S
C1951  H1977   1.109   .     S
C1951  H1975   1.107   .     S
C1952  C1953   1.527   .     S
C1952  H1980   1.114   .     S
C1952  H1979   1.111   .     S
C1952  O2014   1.410   .     S
C1953  H1983   1.103   .     S
C1953  H397    1.108   1_556 S
C1953  H398    1.108   1_556 S
C1954  H1988   1.109   .     S
C1954  C1955   1.520   .     S
C1954  O2015   1.411   .     S
C1954  H1990   1.114   .     S
C1955  H1992   1.102   .     S
C1955  H1993   1.111   .     S
C1955  H1991   1.110   .     S
C1956  O2016   1.415   .     S
C1956  H1995   1.101   .     S
C1956  H1994   1.111   .     S
C1956  C1957   1.526   .     S
C1957  H1997   1.111   .     S
C1957  H1996   1.111   .     S
C1957  H1998   1.106   .     S
C1958  O2020   1.309   .     A
C1958  C1960   1.462   .     S
C1958  O2022   1.296   .     A
C1959  C1961   1.457   .     S
C1959  O2023   1.305   .     A
C1959  O2021   1.297   .     A
C1961  C2048   1.352   .     S
C1961  O2100   1.386   .     S
C1962  N2007   1.437   .     S
C1963  N2008   1.420   .     S
C1963  C2202   1.400   .     S
C1964  O2013   1.380   .     S
C1964  C2226   1.411   .     S
Cu1965 O2019   1.987   .     S
Cu1965 N2005   2.041   .     S
Cu1965 Cu1966  2.716   .     S
Cu1965 O2020   1.997   .     S
Cu1965 O2011   1.988   .     S
Cu1965 O2023   1.990   .     S
Cu1966 O2022   1.990   .     S
Cu1966 N2006   2.041   .     S
Cu1966 O2018   1.987   .     S
Cu1966 O2021   1.997   .     S
Cu1966 O2017   1.988   .     S
H1969  N2007   1.045   .     S
H1970  N2007   1.043   .     S
H1971  N2008   1.043   .     S
H1972  N2008   1.043   .     S
H1976  C367    1.107   1_556 S
H1984  N2009   1.044   .     S
H1985  N2009   1.033   .     S
H1986  N2010   1.036   .     S
H1987  N2010   1.045   .     S
O2024  C2033   1.398   .     S
O2024  C2048   1.397   .     S
C2025  O2099   1.299   .     A
C2025  O2106   1.315   .     A
C2025  C2028   1.473   .     S
C2026  C2028   1.406   .     A
C2026  O2102   1.387   .     S
C2027  C2052   1.407   .     A
C2027  C2036   1.479   .     S
C2027  C2051   1.405   .     A
C2028  C2050   1.407   .     A
C2029  N2094   1.388   .     A
C2029  N2097   1.419   .     S
C2030  N2093   1.371   .     A
C2030  N2098   1.424   .     S
C2030  C448    1.444   1_556 S
C2031  O2103   1.382   .     S
C2031  N2093   1.357   .     A
C2031  C445    1.426   1_556 S
C2032  N2094   1.380   .     A
C2032  O2104   1.390   .     S
C2033  H2066   1.109   .     S
C2033  H2055   1.107   .     S
C2034  H2087   1.105   .     S
C2034  H2077   1.109   .     S
C2034  H2088   1.110   .     S
C2034  C1857   1.508   1_655 S
C2035  H2089   1.115   .     S
C2035  C1861   1.512   1_655 S
C2035  H1914   1.116   1_655 S
C2035  O1924   1.418   1_655 S
C2036  O2107   1.308   .     A
C2036  O2105   1.309   .     A
C2037  H2056   1.111   .     S
C2037  H2091   1.109   .     S
C2037  H2092   1.108   .     S
C2038  O2101   1.411   .     S
C2038  H2062   1.111   .     S
C2038  H2061   1.110   .     S
C2038  C2039   1.513   .     S
C2039  H2065   1.109   .     S
C2039  H2063   1.107   .     S
C2040  C2041   1.527   .     S
C2040  H2068   1.114   .     S
C2040  H2067   1.111   .     S
C2040  O2102   1.410   .     S
C2041  H2071   1.103   .     S
C2041  H485    1.108   1_556 S
C2041  H486    1.108   1_556 S
C2042  H2076   1.109   .     S
C2042  C2043   1.520   .     S
C2042  O2103   1.411   .     S
C2042  H2078   1.114   .     S
C2043  H2080   1.102   .     S
C2043  H2081   1.111   .     S
C2043  H2079   1.110   .     S
C2044  O2104   1.415   .     S
C2044  H2083   1.101   .     S
C2044  H2082   1.111   .     S
C2044  C2045   1.526   .     S
C2045  H2085   1.111   .     S
C2045  H2084   1.111   .     S
C2045  H2086   1.106   .     S
C2046  O2108   1.309   .     A
C2046  C2048   1.462   .     S
C2046  O2110   1.296   .     A
C2047  C2049   1.457   .     S
C2047  O2111   1.305   .     A
C2047  O2109   1.297   .     A
C2049  C1872   1.352   1_655 S
C2049  O1924   1.386   1_655 S
C2050  N2095   1.437   .     S
C2051  N2096   1.420   .     S
C2051  C2290   1.400   .     S
C2052  O2101   1.380   .     S
C2052  C2314   1.411   .     S
Cu2053 O2107   1.987   .     S
Cu2053 N2093   2.041   .     S
Cu2053 Cu2054  2.716   .     S
Cu2053 O2108   1.997   .     S
Cu2053 O2099   1.988   .     S
Cu2053 O2111   1.990   .     S
Cu2054 O2110   1.990   .     S
Cu2054 N2094   2.041   .     S
Cu2054 O2106   1.987   .     S
Cu2054 O2109   1.997   .     S
Cu2054 O2105   1.988   .     S
H2057  N2095   1.045   .     S
H2058  N2095   1.043   .     S
H2059  N2096   1.043   .     S
H2060  N2096   1.043   .     S
H2064  C455    1.107   1_556 S
H2072  N2097   1.044   .     S
H2073  N2097   1.033   .     S
H2074  N2098   1.036   .     S
H2075  N2098   1.045   .     S
O2112  C1857   1.398   1_655 S
O2112  C1872   1.397   1_655 S
C2113  O2187   1.299   .     A
C2113  O2194   1.315   .     A
C2113  C2116   1.473   .     S
C2114  C2116   1.406   .     A
C2114  O2190   1.387   .     S
C2115  C2140   1.407   .     A
C2115  C2124   1.479   .     S
C2115  C2139   1.405   .     A
C2116  C2138   1.407   .     A
C2117  N2182   1.388   .     A
C2117  N2185   1.419   .     S
C2118  N2181   1.371   .     A
C2118  N2186   1.424   .     S
C2118  C536    1.444   1_556 S
C2119  O2191   1.382   .     S
C2119  N2181   1.357   .     A
C2119  C533    1.426   1_556 S
C2120  N2182   1.380   .     A
C2120  O2192   1.390   .     S
C2121  H2154   1.109   .     S
C2121  H2143   1.107   .     S
C2121  C2298   1.508   1_455 S
C2121  O2376   1.398   1_455 S
C2122  H2175   1.105   .     S
C2122  H2165   1.109   .     S
C2122  H2176   1.110   .     S
C2122  C2209   1.508   .     S
C2123  H2177   1.115   .     S
C2123  C2213   1.512   .     S
C2123  H2266   1.116   .     S
C2123  O2276   1.418   .     S
C2124  O2195   1.308   .     A
C2124  O2193   1.309   .     A
C2125  H2144   1.111   .     S
C2125  H2179   1.109   .     S
C2125  H2180   1.108   .     S
C2125  C2299   1.512   1_455 S
C2126  O2189   1.411   .     S
C2126  H2150   1.111   .     S
C2126  H2149   1.110   .     S
C2126  C2127   1.513   .     S
C2127  H2153   1.109   .     S
C2127  H2151   1.107   .     S
C2128  C2129   1.527   .     S
C2128  H2156   1.114   .     S
C2128  H2155   1.111   .     S
C2128  O2190   1.410   .     S
C2129  H2159   1.103   .     S
C2129  H573    1.108   1_556 S
C2129  H574    1.108   1_556 S
C2130  H2164   1.109   .     S
C2130  C2131   1.520   .     S
C2130  O2191   1.411   .     S
C2130  H2166   1.114   .     S
C2131  H2168   1.102   .     S
C2131  H2169   1.111   .     S
C2131  H2167   1.110   .     S
C2132  O2192   1.415   .     S
C2132  H2171   1.101   .     S
C2132  H2170   1.111   .     S
C2132  C2133   1.526   .     S
C2133  H2173   1.111   .     S
C2133  H2172   1.111   .     S
C2133  H2174   1.106   .     S
C2134  O2196   1.309   .     A
C2134  C2136   1.462   .     S
C2134  O2198   1.296   .     A
C2135  C2137   1.457   .     S
C2135  O2199   1.305   .     A
C2135  O2197   1.297   .     A
C2136  C2313   1.352   1_455 S
C2136  O2376   1.397   1_455 S
C2137  C2224   1.352   .     S
C2137  O2276   1.386   .     S
C2138  N2183   1.437   .     S
C2139  N2184   1.420   .     S
C2139  C1586   1.400   1_565 S
C2140  O2189   1.380   .     S
C2140  C1610   1.411   1_565 S
Cu2141 O2195   1.987   .     S
Cu2141 N2181   2.041   .     S
Cu2141 Cu2142  2.716   .     S
Cu2141 O2196   1.997   .     S
Cu2141 O2187   1.988   .     S
Cu2141 O2199   1.990   .     S
Cu2142 O2198   1.990   .     S
Cu2142 N2182   2.041   .     S
Cu2142 O2194   1.987   .     S
Cu2142 O2197   1.997   .     S
Cu2142 O2193   1.988   .     S
H2145  N2183   1.045   .     S
H2146  N2183   1.043   .     S
H2147  N2184   1.043   .     S
H2148  N2184   1.043   .     S
H2152  C543    1.107   1_556 S
H2160  N2185   1.044   .     S
H2161  N2185   1.033   .     S
H2162  N2186   1.036   .     S
H2163  N2186   1.045   .     S
H2178  C2299   1.116   1_455 S
O2188  C2299   1.418   1_455 S
O2188  C2313   1.386   1_455 S
O2200  C2209   1.398   .     S
O2200  C2224   1.397   .     S
C2201  O2275   1.299   .     A
C2201  O2282   1.315   .     A
C2201  C2204   1.473   .     S
C2202  C2204   1.406   .     A
C2202  O2278   1.387   .     S
C2203  C2228   1.407   .     A
C2203  C2212   1.479   .     S
C2203  C2227   1.405   .     A
C2204  C2226   1.407   .     A
C2205  N2270   1.388   .     A
C2205  N2273   1.419   .     S
C2206  N2269   1.371   .     A
C2206  N2274   1.424   .     S
C2206  C624    1.444   1_556 S
C2207  O2279   1.382   .     S
C2207  N2269   1.357   .     A
C2207  C621    1.426   1_556 S
C2208  N2270   1.380   .     A
C2208  O2280   1.390   .     S
C2209  H2242   1.109   .     S
C2209  H2231   1.107   .     S
C2210  H2263   1.105   .     S
C2210  H2253   1.109   .     S
C2210  H2264   1.110   .     S
C2210  C2297   1.508   .     S
C2211  H2265   1.115   .     S
C2211  C2301   1.512   .     S
C2211  H2354   1.116   .     S
C2211  O2364   1.418   .     S
C2212  O2283   1.308   .     A
C2212  O2281   1.309   .     A
C2213  H2232   1.111   .     S
C2213  H2267   1.109   .     S
C2213  H2268   1.108   .     S
C2214  O2277   1.411   .     S
C2214  H2238   1.111   .     S
C2214  H2237   1.110   .     S
C2214  C2215   1.513   .     S
C2215  H2241   1.109   .     S
C2215  H2239   1.107   .     S
C2216  C2217   1.527   .     S
C2216  H2244   1.114   .     S
C2216  H2243   1.111   .     S
C2216  O2278   1.410   .     S
C2217  H2247   1.103   .     S
C2217  H661    1.108   1_556 S
C2217  H662    1.108   1_556 S
C2218  H2252   1.109   .     S
C2218  C2219   1.520   .     S
C2218  O2279   1.411   .     S
C2218  H2254   1.114   .     S
C2219  H2256   1.102   .     S
C2219  H2257   1.111   .     S
C2219  H2255   1.110   .     S
C2220  O2280   1.415   .     S
C2220  H2259   1.101   .     S
C2220  H2258   1.111   .     S
C2220  C2221   1.526   .     S
C2221  H2261   1.111   .     S
C2221  H2260   1.111   .     S
C2221  H2262   1.106   .     S
C2222  O2284   1.309   .     A
C2222  C2224   1.462   .     S
C2222  O2286   1.296   .     A
C2223  C2225   1.457   .     S
C2223  O2287   1.305   .     A
C2223  O2285   1.297   .     A
C2225  C2312   1.352   .     S
C2225  O2364   1.386   .     S
C2226  N2271   1.437   .     S
C2227  N2272   1.420   .     S
C2227  C1674   1.400   1_565 S
C2228  O2277   1.380   .     S
C2228  C1698   1.411   1_565 S
Cu2229 O2283   1.987   .     S
Cu2229 N2269   2.041   .     S
Cu2229 Cu2230  2.716   .     S
Cu2229 O2284   1.997   .     S
Cu2229 O2275   1.988   .     S
Cu2229 O2287   1.990   .     S
Cu2230 O2286   1.990   .     S
Cu2230 N2270   2.041   .     S
Cu2230 O2282   1.987   .     S
Cu2230 O2285   1.997   .     S
Cu2230 O2281   1.988   .     S
H2233  N2271   1.045   .     S
H2234  N2271   1.043   .     S
H2235  N2272   1.043   .     S
H2236  N2272   1.043   .     S
H2240  C631    1.107   1_556 S
H2248  N2273   1.044   .     S
H2249  N2273   1.033   .     S
H2250  N2274   1.036   .     S
H2251  N2274   1.045   .     S
O2288  C2297   1.398   .     S
O2288  C2312   1.397   .     S
C2289  O2363   1.299   .     A
C2289  O2370   1.315   .     A
C2289  C2292   1.473   .     S
C2290  C2292   1.406   .     A
C2290  O2366   1.387   .     S
C2291  C2316   1.407   .     A
C2291  C2300   1.479   .     S
C2291  C2315   1.405   .     A
C2292  C2314   1.407   .     A
C2293  N2358   1.388   .     A
C2293  N2361   1.419   .     S
C2294  N2357   1.371   .     A
C2294  N2362   1.424   .     S
C2294  C712    1.444   1_556 S
C2295  O2367   1.382   .     S
C2295  N2357   1.357   .     A
C2295  C709    1.426   1_556 S
C2296  N2358   1.380   .     A
C2296  O2368   1.390   .     S
C2297  H2330   1.109   .     S
C2297  H2319   1.107   .     S
C2298  H2351   1.105   .     S
C2298  H2341   1.109   .     S
C2298  H2352   1.110   .     S
C2298  C2121   1.508   1_655 S
C2299  H2353   1.115   .     S
C2299  C2125   1.512   1_655 S
C2299  H2178   1.116   1_655 S
C2299  O2188   1.418   1_655 S
C2300  O2371   1.308   .     A
C2300  O2369   1.309   .     A
C2301  H2320   1.111   .     S
C2301  H2355   1.109   .     S
C2301  H2356   1.108   .     S
C2302  O2365   1.411   .     S
C2302  H2326   1.111   .     S
C2302  H2325   1.110   .     S
C2302  C2303   1.513   .     S
C2303  H2329   1.109   .     S
C2303  H2327   1.107   .     S
C2304  C2305   1.527   .     S
C2304  H2332   1.114   .     S
C2304  H2331   1.111   .     S
C2304  O2366   1.410   .     S
C2305  H2335   1.103   .     S
C2305  H749    1.108   1_556 S
C2305  H750    1.108   1_556 S
C2306  H2340   1.109   .     S
C2306  C2307   1.520   .     S
C2306  O2367   1.411   .     S
C2306  H2342   1.114   .     S
C2307  H2344   1.102   .     S
C2307  H2345   1.111   .     S
C2307  H2343   1.110   .     S
C2308  O2368   1.415   .     S
C2308  H2347   1.101   .     S
C2308  H2346   1.111   .     S
C2308  C2309   1.526   .     S
C2309  H2349   1.111   .     S
C2309  H2348   1.111   .     S
C2309  H2350   1.106   .     S
C2310  O2372   1.309   .     A
C2310  C2312   1.462   .     S
C2310  O2374   1.296   .     A
C2311  C2313   1.457   .     S
C2311  O2375   1.305   .     A
C2311  O2373   1.297   .     A
C2313  C2136   1.352   1_655 S
C2313  O2188   1.386   1_655 S
C2314  N2359   1.437   .     S
C2315  N2360   1.420   .     S
C2315  C1762   1.400   1_565 S
C2316  O2365   1.380   .     S
C2316  C1786   1.411   1_565 S
Cu2317 O2371   1.987   .     S
Cu2317 N2357   2.041   .     S
Cu2317 Cu2318  2.716   .     S
Cu2317 O2372   1.997   .     S
Cu2317 O2363   1.988   .     S
Cu2317 O2375   1.990   .     S
Cu2318 O2374   1.990   .     S
Cu2318 N2358   2.041   .     S
Cu2318 O2370   1.987   .     S
Cu2318 O2373   1.997   .     S
Cu2318 O2369   1.988   .     S
H2321  N2359   1.045   .     S
H2322  N2359   1.043   .     S
H2323  N2360   1.043   .     S
H2324  N2360   1.043   .     S
H2328  C719    1.107   1_556 S
H2336  N2361   1.044   .     S
H2337  N2361   1.033   .     S
H2338  N2362   1.036   .     S
H2339  N2362   1.045   .     S
O2376  C2121   1.398   1_655 S
O2376  C2136   1.397   1_655 S
