data_str_m2_o2_o10_pcu_sym.113
_audit_creation_date              2020-01-03
_audit_creation_method            'Materials Studio'
_symmetry_space_group_name_H-M    'P1'
_symmetry_Int_Tables_number       1
_symmetry_cell_setting            triclinic
loop_
_symmetry_equiv_pos_as_xyz
  x,y,z
_cell_length_a                    26.1961
_cell_length_b                    30.2919
_cell_length_c                    27.7285
_cell_angle_alpha                 90.2244
_cell_angle_beta                  97.9519
_cell_angle_gamma                 90.0568
loop_
_atom_site_label
_atom_site_type_symbol
_atom_site_fract_x
_atom_site_fract_y
_atom_site_fract_z
_atom_site_U_iso_or_equiv
_atom_site_adp_type
_atom_site_occupancy
O1     O     0.16667   0.18573   0.29071   0.00000  Uiso   1.00
O2     O     0.16666   0.31428   0.20928   0.00000  Uiso   1.00
O3     O     0.16667   0.18573   0.20928   0.00000  Uiso   1.00
O4     O     0.16666   0.31427   0.29072   0.00000  Uiso   1.00
C5     C     0.16852   0.16486   0.25006   0.00000  Uiso   1.00
C6     C     0.16575   0.33487   0.24999   0.00000  Uiso   1.00
O7     O     0.09161   0.25000   0.28132   0.00000  Uiso   1.00
O8     O     0.24172   0.25001   0.21868   0.00000  Uiso   1.00
O9     O     0.09161   0.25000   0.19988   0.00000  Uiso   1.00
O10    O     0.24172   0.25000   0.30011   0.00000  Uiso   1.00
C11    C     0.06789   0.24982   0.23754   0.00000  Uiso   1.00
C12    C     0.26544   0.25001   0.26245   0.00000  Uiso   1.00
Cu13   Cu    0.16667   0.25000   0.29821   0.00000  Uiso   1.00
Cu14   Cu    0.16667   0.25001   0.20178   0.00000  Uiso   1.00
C15    C     0.01262   0.24978   0.23066   0.00000  Uiso   1.00
C16    C     0.32071   0.24997   0.26931   0.00000  Uiso   1.00
H17    H     0.32596   0.24966   0.19358   0.00000  Uiso   1.00
H18    H     0.00738   0.25011   0.30638   0.00000  Uiso   1.00
C19    C     0.16092   0.04780   0.29254   0.00000  Uiso   1.00
C20    C     0.20449   0.45078   0.22886   0.00000  Uiso   1.00
H21    H     0.15344   0.03125   0.32540   0.00000  Uiso   1.00
H22    H     0.23442   0.46706   0.21221   0.00000  Uiso   1.00
C23    C     0.16090   0.09362   0.29167   0.00000  Uiso   1.00
C24    C     0.20196   0.40504   0.22757   0.00000  Uiso   1.00
H25    H     0.15215   0.11123   0.32360   0.00000  Uiso   1.00
H26    H     0.22980   0.38682   0.20987   0.00000  Uiso   1.00
C27    C     0.17151   0.11638   0.25015   0.00000  Uiso   1.00
C28    C     0.16487   0.38284   0.25009   0.00000  Uiso   1.00
C29    C     0.18348   0.09216   0.20932   0.00000  Uiso   1.00
C30    C     0.12918   0.40678   0.27374   0.00000  Uiso   1.00
C31    C     0.18140   0.04614   0.21006   0.00000  Uiso   1.00
C32    C     0.13186   0.45288   0.27438   0.00000  Uiso   1.00
H33    H     0.18897   0.02790   0.17814   0.00000  Uiso   1.00
H34    H     0.10350   0.47145   0.29095   0.00000  Uiso   1.00
C35    C     0.17053   0.02369   0.25156   0.00000  Uiso   1.00
C36    C     0.16922   0.47511   0.25193   0.00000  Uiso   1.00
C37    C     0.20620   0.27076   0.05921   0.00000  Uiso   1.00
C38    C     0.14292   0.21583   0.44278   0.00000  Uiso   1.00
H39    H     0.23822   0.28665   0.04548   0.00000  Uiso   1.00
H40    H     0.12485   0.18815   0.45826   0.00000  Uiso   1.00
C41    C     0.20524   0.27071   0.10981   0.00000  Uiso   1.00
C42    C     0.14302   0.21667   0.39207   0.00000  Uiso   1.00
H43    H     0.23571   0.28722   0.13347   0.00000  Uiso   1.00
H44    H     0.12418   0.19035   0.36988   0.00000  Uiso   1.00
N45    N     0.16667   0.25001   0.12934   0.00000  Uiso   1.00
N46    N     0.16667   0.24999   0.37065   0.00000  Uiso   1.00
C47    C     0.12817   0.22919   0.09960   0.00000  Uiso   1.00
C48    C     0.19023   0.28333   0.39855   0.00000  Uiso   1.00
H49    H     0.09774   0.21268   0.11521   0.00000  Uiso   1.00
H50    H     0.20898   0.30971   0.38150   0.00000  Uiso   1.00
C51    C     0.12723   0.22904   0.04874   0.00000  Uiso   1.00
C52    C     0.19035   0.28412   0.44930   0.00000  Uiso   1.00
H53    H     0.09523   0.21310   0.02653   0.00000  Uiso   1.00
H54    H     0.20840   0.31179   0.46976   0.00000  Uiso   1.00
C55    C     0.16670   0.24991   0.02735   0.00000  Uiso   1.00
C56    C     0.16666   0.24995   0.47266   0.00000  Uiso   1.00
N57    N     0.19978   0.11328   0.16778   0.00000  Uiso   1.00
O58    O     0.23995   0.13907   0.17352   0.00000  Uiso   1.00
O59    O     0.18131   0.10015   0.12409   0.00000  Uiso   1.00
N60    N     0.08905   0.38518   0.29543   0.00000  Uiso   1.00
O61    O     0.06492   0.35126   0.27420   0.00000  Uiso   1.00
O62    O     0.07174   0.40289   0.33280   0.00000  Uiso   1.00
O63    O     0.50000   0.18573   0.29071   0.00000  Uiso   1.00
O64    O     0.50000   0.31428   0.20928   0.00000  Uiso   1.00
O65    O     0.50000   0.18573   0.20928   0.00000  Uiso   1.00
O66    O     0.50000   0.31427   0.29072   0.00000  Uiso   1.00
C67    C     0.50186   0.16486   0.25006   0.00000  Uiso   1.00
C68    C     0.49908   0.33487   0.24999   0.00000  Uiso   1.00
O69    O     0.42495   0.25000   0.28132   0.00000  Uiso   1.00
O70    O     0.57505   0.25001   0.21868   0.00000  Uiso   1.00
O71    O     0.42495   0.25000   0.19988   0.00000  Uiso   1.00
O72    O     0.57505   0.25000   0.30011   0.00000  Uiso   1.00
C73    C     0.40122   0.24982   0.23754   0.00000  Uiso   1.00
C74    C     0.59878   0.25001   0.26245   0.00000  Uiso   1.00
Cu75   Cu    0.50000   0.25000   0.29821   0.00000  Uiso   1.00
Cu76   Cu    0.50000   0.25001   0.20178   0.00000  Uiso   1.00
C77    C     0.34595   0.24978   0.23066   0.00000  Uiso   1.00
C78    C     0.65404   0.24997   0.26931   0.00000  Uiso   1.00
H79    H     0.65929   0.24966   0.19358   0.00000  Uiso   1.00
H80    H     0.34071   0.25011   0.30638   0.00000  Uiso   1.00
C81    C     0.49425   0.04780   0.29254   0.00000  Uiso   1.00
C82    C     0.53782   0.45078   0.22886   0.00000  Uiso   1.00
H83    H     0.48678   0.03125   0.32540   0.00000  Uiso   1.00
H84    H     0.56775   0.46706   0.21221   0.00000  Uiso   1.00
C85    C     0.49423   0.09362   0.29167   0.00000  Uiso   1.00
C86    C     0.53529   0.40504   0.22757   0.00000  Uiso   1.00
H87    H     0.48549   0.11123   0.32360   0.00000  Uiso   1.00
H88    H     0.56313   0.38682   0.20987   0.00000  Uiso   1.00
C89    C     0.50484   0.11638   0.25015   0.00000  Uiso   1.00
C90    C     0.49820   0.38284   0.25009   0.00000  Uiso   1.00
C91    C     0.51681   0.09216   0.20932   0.00000  Uiso   1.00
C92    C     0.46251   0.40678   0.27374   0.00000  Uiso   1.00
C93    C     0.51473   0.04614   0.21006   0.00000  Uiso   1.00
C94    C     0.46519   0.45288   0.27438   0.00000  Uiso   1.00
H95    H     0.52230   0.02790   0.17814   0.00000  Uiso   1.00
H96    H     0.43683   0.47145   0.29095   0.00000  Uiso   1.00
C97    C     0.50387   0.02369   0.25156   0.00000  Uiso   1.00
C98    C     0.50256   0.47511   0.25193   0.00000  Uiso   1.00
C99    C     0.53953   0.27076   0.05921   0.00000  Uiso   1.00
C100   C     0.47625   0.21583   0.44278   0.00000  Uiso   1.00
H101   H     0.57156   0.28665   0.04548   0.00000  Uiso   1.00
H102   H     0.45818   0.18815   0.45826   0.00000  Uiso   1.00
C103   C     0.53857   0.27071   0.10981   0.00000  Uiso   1.00
C104   C     0.47635   0.21667   0.39207   0.00000  Uiso   1.00
H105   H     0.56904   0.28722   0.13347   0.00000  Uiso   1.00
H106   H     0.45751   0.19035   0.36988   0.00000  Uiso   1.00
N107   N     0.50000   0.25001   0.12934   0.00000  Uiso   1.00
N108   N     0.50000   0.24999   0.37065   0.00000  Uiso   1.00
C109   C     0.46151   0.22919   0.09960   0.00000  Uiso   1.00
C110   C     0.52357   0.28333   0.39855   0.00000  Uiso   1.00
H111   H     0.43107   0.21268   0.11521   0.00000  Uiso   1.00
H112   H     0.54231   0.30971   0.38150   0.00000  Uiso   1.00
C113   C     0.46057   0.22904   0.04874   0.00000  Uiso   1.00
C114   C     0.52368   0.28412   0.44930   0.00000  Uiso   1.00
H115   H     0.42856   0.21310   0.02653   0.00000  Uiso   1.00
H116   H     0.54173   0.31179   0.46976   0.00000  Uiso   1.00
C117   C     0.50003   0.24991   0.02735   0.00000  Uiso   1.00
C118   C     0.50000   0.24995   0.47266   0.00000  Uiso   1.00
N119   N     0.53311   0.11328   0.16778   0.00000  Uiso   1.00
O120   O     0.57328   0.13907   0.17352   0.00000  Uiso   1.00
O121   O     0.51464   0.10015   0.12409   0.00000  Uiso   1.00
N122   N     0.42238   0.38518   0.29543   0.00000  Uiso   1.00
O123   O     0.39826   0.35126   0.27420   0.00000  Uiso   1.00
O124   O     0.40507   0.40289   0.33280   0.00000  Uiso   1.00
O125   O     0.83334   0.18573   0.29071   0.00000  Uiso   1.00
O126   O     0.83333   0.31428   0.20928   0.00000  Uiso   1.00
O127   O     0.83334   0.18573   0.20928   0.00000  Uiso   1.00
O128   O     0.83333   0.31427   0.29072   0.00000  Uiso   1.00
C129   C     0.83519   0.16486   0.25006   0.00000  Uiso   1.00
C130   C     0.83242   0.33487   0.24999   0.00000  Uiso   1.00
O131   O     0.75828   0.25000   0.28132   0.00000  Uiso   1.00
O132   O     0.90839   0.25001   0.21868   0.00000  Uiso   1.00
O133   O     0.75828   0.25000   0.19988   0.00000  Uiso   1.00
O134   O     0.90839   0.25000   0.30011   0.00000  Uiso   1.00
C135   C     0.73456   0.24982   0.23754   0.00000  Uiso   1.00
C136   C     0.93211   0.25001   0.26245   0.00000  Uiso   1.00
Cu137  Cu    0.83333   0.25000   0.29821   0.00000  Uiso   1.00
Cu138  Cu    0.83333   0.25001   0.20178   0.00000  Uiso   1.00
C139   C     0.67928   0.24978   0.23066   0.00000  Uiso   1.00
C140   C     0.98738   0.24997   0.26931   0.00000  Uiso   1.00
H141   H     0.99262   0.24966   0.19358   0.00000  Uiso   1.00
H142   H     0.67404   0.25011   0.30638   0.00000  Uiso   1.00
C143   C     0.82759   0.04780   0.29254   0.00000  Uiso   1.00
C144   C     0.87115   0.45078   0.22886   0.00000  Uiso   1.00
H145   H     0.82011   0.03125   0.32540   0.00000  Uiso   1.00
H146   H     0.90108   0.46706   0.21221   0.00000  Uiso   1.00
C147   C     0.82756   0.09362   0.29167   0.00000  Uiso   1.00
C148   C     0.86863   0.40504   0.22757   0.00000  Uiso   1.00
H149   H     0.81882   0.11123   0.32360   0.00000  Uiso   1.00
H150   H     0.89647   0.38682   0.20987   0.00000  Uiso   1.00
C151   C     0.83817   0.11638   0.25015   0.00000  Uiso   1.00
C152   C     0.83154   0.38284   0.25009   0.00000  Uiso   1.00
C153   C     0.85014   0.09216   0.20932   0.00000  Uiso   1.00
C154   C     0.79584   0.40678   0.27374   0.00000  Uiso   1.00
C155   C     0.84806   0.04614   0.21006   0.00000  Uiso   1.00
C156   C     0.79853   0.45288   0.27438   0.00000  Uiso   1.00
H157   H     0.85564   0.02790   0.17814   0.00000  Uiso   1.00
H158   H     0.77016   0.47145   0.29095   0.00000  Uiso   1.00
C159   C     0.83720   0.02369   0.25156   0.00000  Uiso   1.00
C160   C     0.83589   0.47511   0.25193   0.00000  Uiso   1.00
C161   C     0.87286   0.27076   0.05921   0.00000  Uiso   1.00
C162   C     0.80959   0.21583   0.44278   0.00000  Uiso   1.00
H163   H     0.90489   0.28665   0.04548   0.00000  Uiso   1.00
H164   H     0.79152   0.18815   0.45826   0.00000  Uiso   1.00
C165   C     0.87190   0.27071   0.10981   0.00000  Uiso   1.00
C166   C     0.80968   0.21667   0.39207   0.00000  Uiso   1.00
H167   H     0.90237   0.28722   0.13347   0.00000  Uiso   1.00
H168   H     0.79085   0.19035   0.36988   0.00000  Uiso   1.00
N169   N     0.83333   0.25001   0.12934   0.00000  Uiso   1.00
N170   N     0.83333   0.24999   0.37065   0.00000  Uiso   1.00
C171   C     0.79484   0.22919   0.09960   0.00000  Uiso   1.00
C172   C     0.85690   0.28333   0.39855   0.00000  Uiso   1.00
H173   H     0.76441   0.21268   0.11521   0.00000  Uiso   1.00
H174   H     0.87564   0.30971   0.38150   0.00000  Uiso   1.00
C175   C     0.79390   0.22904   0.04874   0.00000  Uiso   1.00
C176   C     0.85702   0.28412   0.44930   0.00000  Uiso   1.00
H177   H     0.76189   0.21310   0.02653   0.00000  Uiso   1.00
H178   H     0.87506   0.31179   0.46976   0.00000  Uiso   1.00
C179   C     0.83337   0.24991   0.02735   0.00000  Uiso   1.00
C180   C     0.83333   0.24995   0.47266   0.00000  Uiso   1.00
N181   N     0.86644   0.11328   0.16778   0.00000  Uiso   1.00
O182   O     0.90661   0.13907   0.17352   0.00000  Uiso   1.00
O183   O     0.84798   0.10015   0.12409   0.00000  Uiso   1.00
N184   N     0.75571   0.38518   0.29543   0.00000  Uiso   1.00
O185   O     0.73159   0.35126   0.27420   0.00000  Uiso   1.00
O186   O     0.73840   0.40289   0.33280   0.00000  Uiso   1.00
O187   O     0.16667   0.68573   0.29071   0.00000  Uiso   1.00
O188   O     0.16666   0.81428   0.20928   0.00000  Uiso   1.00
O189   O     0.16667   0.68573   0.20928   0.00000  Uiso   1.00
O190   O     0.16666   0.81427   0.29072   0.00000  Uiso   1.00
C191   C     0.16852   0.66486   0.25006   0.00000  Uiso   1.00
C192   C     0.16575   0.83487   0.24999   0.00000  Uiso   1.00
O193   O     0.09161   0.75000   0.28132   0.00000  Uiso   1.00
O194   O     0.24172   0.75001   0.21868   0.00000  Uiso   1.00
O195   O     0.09161   0.75000   0.19988   0.00000  Uiso   1.00
O196   O     0.24172   0.75000   0.30011   0.00000  Uiso   1.00
C197   C     0.06789   0.74982   0.23754   0.00000  Uiso   1.00
C198   C     0.26544   0.75001   0.26245   0.00000  Uiso   1.00
Cu199  Cu    0.16667   0.75000   0.29821   0.00000  Uiso   1.00
Cu200  Cu    0.16667   0.75001   0.20178   0.00000  Uiso   1.00
C201   C     0.01262   0.74978   0.23066   0.00000  Uiso   1.00
C202   C     0.32071   0.74997   0.26931   0.00000  Uiso   1.00
H203   H     0.32596   0.74966   0.19358   0.00000  Uiso   1.00
H204   H     0.00738   0.75011   0.30638   0.00000  Uiso   1.00
C205   C     0.16092   0.54780   0.29254   0.00000  Uiso   1.00
C206   C     0.20449   0.95078   0.22886   0.00000  Uiso   1.00
H207   H     0.15344   0.53125   0.32540   0.00000  Uiso   1.00
H208   H     0.23442   0.96706   0.21221   0.00000  Uiso   1.00
C209   C     0.16090   0.59362   0.29167   0.00000  Uiso   1.00
C210   C     0.20196   0.90504   0.22757   0.00000  Uiso   1.00
H211   H     0.15215   0.61123   0.32360   0.00000  Uiso   1.00
H212   H     0.22980   0.88682   0.20987   0.00000  Uiso   1.00
C213   C     0.17151   0.61638   0.25015   0.00000  Uiso   1.00
C214   C     0.16487   0.88284   0.25009   0.00000  Uiso   1.00
C215   C     0.18348   0.59216   0.20932   0.00000  Uiso   1.00
C216   C     0.12918   0.90678   0.27374   0.00000  Uiso   1.00
C217   C     0.18140   0.54614   0.21006   0.00000  Uiso   1.00
C218   C     0.13186   0.95288   0.27438   0.00000  Uiso   1.00
H219   H     0.18897   0.52790   0.17814   0.00000  Uiso   1.00
H220   H     0.10350   0.97145   0.29095   0.00000  Uiso   1.00
C221   C     0.17053   0.52369   0.25156   0.00000  Uiso   1.00
C222   C     0.16922   0.97511   0.25193   0.00000  Uiso   1.00
C223   C     0.20620   0.77076   0.05921   0.00000  Uiso   1.00
C224   C     0.14292   0.71583   0.44278   0.00000  Uiso   1.00
H225   H     0.23822   0.78665   0.04548   0.00000  Uiso   1.00
H226   H     0.12485   0.68815   0.45826   0.00000  Uiso   1.00
C227   C     0.20524   0.77071   0.10981   0.00000  Uiso   1.00
C228   C     0.14302   0.71667   0.39207   0.00000  Uiso   1.00
H229   H     0.23571   0.78722   0.13347   0.00000  Uiso   1.00
H230   H     0.12418   0.69035   0.36988   0.00000  Uiso   1.00
N231   N     0.16667   0.75001   0.12934   0.00000  Uiso   1.00
N232   N     0.16667   0.74999   0.37065   0.00000  Uiso   1.00
C233   C     0.12817   0.72919   0.09960   0.00000  Uiso   1.00
C234   C     0.19023   0.78333   0.39855   0.00000  Uiso   1.00
H235   H     0.09774   0.71268   0.11521   0.00000  Uiso   1.00
H236   H     0.20898   0.80971   0.38150   0.00000  Uiso   1.00
C237   C     0.12723   0.72904   0.04874   0.00000  Uiso   1.00
C238   C     0.19035   0.78412   0.44930   0.00000  Uiso   1.00
H239   H     0.09523   0.71310   0.02653   0.00000  Uiso   1.00
H240   H     0.20840   0.81179   0.46976   0.00000  Uiso   1.00
C241   C     0.16670   0.74991   0.02735   0.00000  Uiso   1.00
C242   C     0.16666   0.74995   0.47266   0.00000  Uiso   1.00
N243   N     0.19978   0.61328   0.16778   0.00000  Uiso   1.00
O244   O     0.23995   0.63907   0.17352   0.00000  Uiso   1.00
O245   O     0.18131   0.60015   0.12409   0.00000  Uiso   1.00
N246   N     0.08905   0.88518   0.29543   0.00000  Uiso   1.00
O247   O     0.06492   0.85126   0.27420   0.00000  Uiso   1.00
O248   O     0.07174   0.90289   0.33280   0.00000  Uiso   1.00
O249   O     0.50000   0.68573   0.29071   0.00000  Uiso   1.00
O250   O     0.50000   0.81428   0.20928   0.00000  Uiso   1.00
O251   O     0.50000   0.68573   0.20928   0.00000  Uiso   1.00
O252   O     0.50000   0.81427   0.29072   0.00000  Uiso   1.00
C253   C     0.50186   0.66486   0.25006   0.00000  Uiso   1.00
C254   C     0.49908   0.83487   0.24999   0.00000  Uiso   1.00
O255   O     0.42495   0.75000   0.28132   0.00000  Uiso   1.00
O256   O     0.57505   0.75001   0.21868   0.00000  Uiso   1.00
O257   O     0.42495   0.75000   0.19988   0.00000  Uiso   1.00
O258   O     0.57505   0.75000   0.30011   0.00000  Uiso   1.00
C259   C     0.40122   0.74982   0.23754   0.00000  Uiso   1.00
C260   C     0.59878   0.75001   0.26245   0.00000  Uiso   1.00
Cu261  Cu    0.50000   0.75000   0.29821   0.00000  Uiso   1.00
Cu262  Cu    0.50000   0.75001   0.20178   0.00000  Uiso   1.00
C263   C     0.34595   0.74978   0.23066   0.00000  Uiso   1.00
C264   C     0.65404   0.74997   0.26931   0.00000  Uiso   1.00
H265   H     0.65929   0.74966   0.19358   0.00000  Uiso   1.00
H266   H     0.34071   0.75011   0.30638   0.00000  Uiso   1.00
C267   C     0.49425   0.54780   0.29254   0.00000  Uiso   1.00
C268   C     0.53782   0.95078   0.22886   0.00000  Uiso   1.00
H269   H     0.48678   0.53125   0.32540   0.00000  Uiso   1.00
H270   H     0.56775   0.96706   0.21221   0.00000  Uiso   1.00
C271   C     0.49423   0.59362   0.29167   0.00000  Uiso   1.00
C272   C     0.53529   0.90504   0.22757   0.00000  Uiso   1.00
H273   H     0.48549   0.61123   0.32360   0.00000  Uiso   1.00
H274   H     0.56313   0.88682   0.20987   0.00000  Uiso   1.00
C275   C     0.50484   0.61638   0.25015   0.00000  Uiso   1.00
C276   C     0.49820   0.88284   0.25009   0.00000  Uiso   1.00
C277   C     0.51681   0.59216   0.20932   0.00000  Uiso   1.00
C278   C     0.46251   0.90678   0.27374   0.00000  Uiso   1.00
C279   C     0.51473   0.54614   0.21006   0.00000  Uiso   1.00
C280   C     0.46519   0.95288   0.27438   0.00000  Uiso   1.00
H281   H     0.52230   0.52790   0.17814   0.00000  Uiso   1.00
H282   H     0.43683   0.97145   0.29095   0.00000  Uiso   1.00
C283   C     0.50387   0.52369   0.25156   0.00000  Uiso   1.00
C284   C     0.50256   0.97511   0.25193   0.00000  Uiso   1.00
C285   C     0.53953   0.77076   0.05921   0.00000  Uiso   1.00
C286   C     0.47625   0.71583   0.44278   0.00000  Uiso   1.00
H287   H     0.57156   0.78665   0.04548   0.00000  Uiso   1.00
H288   H     0.45818   0.68815   0.45826   0.00000  Uiso   1.00
C289   C     0.53857   0.77071   0.10981   0.00000  Uiso   1.00
C290   C     0.47635   0.71667   0.39207   0.00000  Uiso   1.00
H291   H     0.56904   0.78722   0.13347   0.00000  Uiso   1.00
H292   H     0.45751   0.69035   0.36988   0.00000  Uiso   1.00
N293   N     0.50000   0.75001   0.12934   0.00000  Uiso   1.00
N294   N     0.50000   0.74999   0.37065   0.00000  Uiso   1.00
C295   C     0.46151   0.72919   0.09960   0.00000  Uiso   1.00
C296   C     0.52357   0.78333   0.39855   0.00000  Uiso   1.00
H297   H     0.43107   0.71268   0.11521   0.00000  Uiso   1.00
H298   H     0.54231   0.80971   0.38150   0.00000  Uiso   1.00
C299   C     0.46057   0.72904   0.04874   0.00000  Uiso   1.00
C300   C     0.52368   0.78412   0.44930   0.00000  Uiso   1.00
H301   H     0.42856   0.71310   0.02653   0.00000  Uiso   1.00
H302   H     0.54173   0.81179   0.46976   0.00000  Uiso   1.00
C303   C     0.50003   0.74991   0.02735   0.00000  Uiso   1.00
C304   C     0.50000   0.74995   0.47266   0.00000  Uiso   1.00
N305   N     0.53311   0.61328   0.16778   0.00000  Uiso   1.00
O306   O     0.57328   0.63907   0.17352   0.00000  Uiso   1.00
O307   O     0.51464   0.60015   0.12409   0.00000  Uiso   1.00
N308   N     0.42238   0.88518   0.29543   0.00000  Uiso   1.00
O309   O     0.39826   0.85126   0.27420   0.00000  Uiso   1.00
O310   O     0.40507   0.90289   0.33280   0.00000  Uiso   1.00
O311   O     0.83334   0.68573   0.29071   0.00000  Uiso   1.00
O312   O     0.83333   0.81428   0.20928   0.00000  Uiso   1.00
O313   O     0.83334   0.68573   0.20928   0.00000  Uiso   1.00
O314   O     0.83333   0.81427   0.29072   0.00000  Uiso   1.00
C315   C     0.83519   0.66486   0.25006   0.00000  Uiso   1.00
C316   C     0.83242   0.83487   0.24999   0.00000  Uiso   1.00
O317   O     0.75828   0.75000   0.28132   0.00000  Uiso   1.00
O318   O     0.90839   0.75001   0.21868   0.00000  Uiso   1.00
O319   O     0.75828   0.75000   0.19988   0.00000  Uiso   1.00
O320   O     0.90839   0.75000   0.30011   0.00000  Uiso   1.00
C321   C     0.73456   0.74982   0.23754   0.00000  Uiso   1.00
C322   C     0.93211   0.75001   0.26245   0.00000  Uiso   1.00
Cu323  Cu    0.83333   0.75000   0.29821   0.00000  Uiso   1.00
Cu324  Cu    0.83333   0.75001   0.20178   0.00000  Uiso   1.00
C325   C     0.67928   0.74978   0.23066   0.00000  Uiso   1.00
C326   C     0.98738   0.74997   0.26931   0.00000  Uiso   1.00
H327   H     0.99262   0.74966   0.19358   0.00000  Uiso   1.00
H328   H     0.67404   0.75011   0.30638   0.00000  Uiso   1.00
C329   C     0.82759   0.54780   0.29254   0.00000  Uiso   1.00
C330   C     0.87115   0.95078   0.22886   0.00000  Uiso   1.00
H331   H     0.82011   0.53125   0.32540   0.00000  Uiso   1.00
H332   H     0.90108   0.96706   0.21221   0.00000  Uiso   1.00
C333   C     0.82756   0.59362   0.29167   0.00000  Uiso   1.00
C334   C     0.86863   0.90504   0.22757   0.00000  Uiso   1.00
H335   H     0.81882   0.61123   0.32360   0.00000  Uiso   1.00
H336   H     0.89647   0.88682   0.20987   0.00000  Uiso   1.00
C337   C     0.83817   0.61638   0.25015   0.00000  Uiso   1.00
C338   C     0.83154   0.88284   0.25009   0.00000  Uiso   1.00
C339   C     0.85014   0.59216   0.20932   0.00000  Uiso   1.00
C340   C     0.79584   0.90678   0.27374   0.00000  Uiso   1.00
C341   C     0.84806   0.54614   0.21006   0.00000  Uiso   1.00
C342   C     0.79853   0.95288   0.27438   0.00000  Uiso   1.00
H343   H     0.85564   0.52790   0.17814   0.00000  Uiso   1.00
H344   H     0.77016   0.97145   0.29095   0.00000  Uiso   1.00
C345   C     0.83720   0.52369   0.25156   0.00000  Uiso   1.00
C346   C     0.83589   0.97511   0.25193   0.00000  Uiso   1.00
C347   C     0.87286   0.77076   0.05921   0.00000  Uiso   1.00
C348   C     0.80959   0.71583   0.44278   0.00000  Uiso   1.00
H349   H     0.90489   0.78665   0.04548   0.00000  Uiso   1.00
H350   H     0.79152   0.68815   0.45826   0.00000  Uiso   1.00
C351   C     0.87190   0.77071   0.10981   0.00000  Uiso   1.00
C352   C     0.80968   0.71667   0.39207   0.00000  Uiso   1.00
H353   H     0.90237   0.78722   0.13347   0.00000  Uiso   1.00
H354   H     0.79085   0.69035   0.36988   0.00000  Uiso   1.00
N355   N     0.83333   0.75001   0.12934   0.00000  Uiso   1.00
N356   N     0.83333   0.74999   0.37065   0.00000  Uiso   1.00
C357   C     0.79484   0.72919   0.09960   0.00000  Uiso   1.00
C358   C     0.85690   0.78333   0.39855   0.00000  Uiso   1.00
H359   H     0.76441   0.71268   0.11521   0.00000  Uiso   1.00
H360   H     0.87564   0.80971   0.38150   0.00000  Uiso   1.00
C361   C     0.79390   0.72904   0.04874   0.00000  Uiso   1.00
C362   C     0.85702   0.78412   0.44930   0.00000  Uiso   1.00
H363   H     0.76189   0.71310   0.02653   0.00000  Uiso   1.00
H364   H     0.87506   0.81179   0.46976   0.00000  Uiso   1.00
C365   C     0.83337   0.74991   0.02735   0.00000  Uiso   1.00
C366   C     0.83333   0.74995   0.47266   0.00000  Uiso   1.00
N367   N     0.86644   0.61328   0.16778   0.00000  Uiso   1.00
O368   O     0.90661   0.63907   0.17352   0.00000  Uiso   1.00
O369   O     0.84798   0.60015   0.12409   0.00000  Uiso   1.00
N370   N     0.75571   0.88518   0.29543   0.00000  Uiso   1.00
O371   O     0.73159   0.85126   0.27420   0.00000  Uiso   1.00
O372   O     0.73840   0.90289   0.33280   0.00000  Uiso   1.00
O373   O     0.16667   0.18573   0.79071   0.00000  Uiso   1.00
O374   O     0.16666   0.31428   0.70928   0.00000  Uiso   1.00
O375   O     0.16667   0.18573   0.70928   0.00000  Uiso   1.00
O376   O     0.16666   0.31427   0.79072   0.00000  Uiso   1.00
C377   C     0.16852   0.16486   0.75006   0.00000  Uiso   1.00
C378   C     0.16575   0.33487   0.74999   0.00000  Uiso   1.00
O379   O     0.09161   0.25000   0.78132   0.00000  Uiso   1.00
O380   O     0.24172   0.25001   0.71868   0.00000  Uiso   1.00
O381   O     0.09161   0.25000   0.69988   0.00000  Uiso   1.00
O382   O     0.24172   0.25000   0.80011   0.00000  Uiso   1.00
C383   C     0.06789   0.24982   0.73754   0.00000  Uiso   1.00
C384   C     0.26544   0.25001   0.76245   0.00000  Uiso   1.00
Cu385  Cu    0.16667   0.25000   0.79821   0.00000  Uiso   1.00
Cu386  Cu    0.16667   0.25001   0.70178   0.00000  Uiso   1.00
C387   C     0.01262   0.24978   0.73066   0.00000  Uiso   1.00
C388   C     0.32071   0.24997   0.76931   0.00000  Uiso   1.00
H389   H     0.32596   0.24966   0.69358   0.00000  Uiso   1.00
H390   H     0.00738   0.25011   0.80638   0.00000  Uiso   1.00
C391   C     0.16092   0.04780   0.79254   0.00000  Uiso   1.00
C392   C     0.20449   0.45078   0.72886   0.00000  Uiso   1.00
H393   H     0.15344   0.03125   0.82540   0.00000  Uiso   1.00
H394   H     0.23442   0.46706   0.71221   0.00000  Uiso   1.00
C395   C     0.16090   0.09362   0.79167   0.00000  Uiso   1.00
C396   C     0.20196   0.40504   0.72757   0.00000  Uiso   1.00
H397   H     0.15215   0.11123   0.82360   0.00000  Uiso   1.00
H398   H     0.22980   0.38682   0.70987   0.00000  Uiso   1.00
C399   C     0.17151   0.11638   0.75015   0.00000  Uiso   1.00
C400   C     0.16487   0.38284   0.75009   0.00000  Uiso   1.00
C401   C     0.18348   0.09216   0.70932   0.00000  Uiso   1.00
C402   C     0.12918   0.40678   0.77374   0.00000  Uiso   1.00
C403   C     0.18140   0.04614   0.71006   0.00000  Uiso   1.00
C404   C     0.13186   0.45288   0.77438   0.00000  Uiso   1.00
H405   H     0.18897   0.02790   0.67814   0.00000  Uiso   1.00
H406   H     0.10350   0.47145   0.79095   0.00000  Uiso   1.00
C407   C     0.17053   0.02369   0.75156   0.00000  Uiso   1.00
C408   C     0.16922   0.47511   0.75193   0.00000  Uiso   1.00
C409   C     0.20620   0.27076   0.55921   0.00000  Uiso   1.00
C410   C     0.14292   0.21583   0.94278   0.00000  Uiso   1.00
H411   H     0.23822   0.28665   0.54548   0.00000  Uiso   1.00
H412   H     0.12485   0.18815   0.95826   0.00000  Uiso   1.00
C413   C     0.20524   0.27071   0.60981   0.00000  Uiso   1.00
C414   C     0.14302   0.21667   0.89207   0.00000  Uiso   1.00
H415   H     0.23571   0.28722   0.63347   0.00000  Uiso   1.00
H416   H     0.12418   0.19035   0.86988   0.00000  Uiso   1.00
N417   N     0.16667   0.25001   0.62934   0.00000  Uiso   1.00
N418   N     0.16667   0.24999   0.87065   0.00000  Uiso   1.00
C419   C     0.12817   0.22919   0.59960   0.00000  Uiso   1.00
C420   C     0.19023   0.28333   0.89855   0.00000  Uiso   1.00
H421   H     0.09774   0.21268   0.61521   0.00000  Uiso   1.00
H422   H     0.20898   0.30971   0.88150   0.00000  Uiso   1.00
C423   C     0.12723   0.22904   0.54874   0.00000  Uiso   1.00
C424   C     0.19035   0.28412   0.94930   0.00000  Uiso   1.00
H425   H     0.09523   0.21310   0.52653   0.00000  Uiso   1.00
H426   H     0.20840   0.31179   0.96976   0.00000  Uiso   1.00
C427   C     0.16670   0.24991   0.52735   0.00000  Uiso   1.00
C428   C     0.16666   0.24995   0.97266   0.00000  Uiso   1.00
N429   N     0.19978   0.11328   0.66778   0.00000  Uiso   1.00
O430   O     0.23995   0.13907   0.67352   0.00000  Uiso   1.00
O431   O     0.18131   0.10015   0.62409   0.00000  Uiso   1.00
N432   N     0.08905   0.38518   0.79543   0.00000  Uiso   1.00
O433   O     0.06492   0.35126   0.77420   0.00000  Uiso   1.00
O434   O     0.07174   0.40289   0.83280   0.00000  Uiso   1.00
O435   O     0.50000   0.18573   0.79071   0.00000  Uiso   1.00
O436   O     0.50000   0.31428   0.70928   0.00000  Uiso   1.00
O437   O     0.50000   0.18573   0.70928   0.00000  Uiso   1.00
O438   O     0.50000   0.31427   0.79072   0.00000  Uiso   1.00
C439   C     0.50186   0.16486   0.75006   0.00000  Uiso   1.00
C440   C     0.49908   0.33487   0.74999   0.00000  Uiso   1.00
O441   O     0.42495   0.25000   0.78132   0.00000  Uiso   1.00
O442   O     0.57505   0.25001   0.71868   0.00000  Uiso   1.00
O443   O     0.42495   0.25000   0.69988   0.00000  Uiso   1.00
O444   O     0.57505   0.25000   0.80011   0.00000  Uiso   1.00
C445   C     0.40122   0.24982   0.73754   0.00000  Uiso   1.00
C446   C     0.59878   0.25001   0.76245   0.00000  Uiso   1.00
Cu447  Cu    0.50000   0.25000   0.79821   0.00000  Uiso   1.00
Cu448  Cu    0.50000   0.25001   0.70178   0.00000  Uiso   1.00
C449   C     0.34595   0.24978   0.73066   0.00000  Uiso   1.00
C450   C     0.65404   0.24997   0.76931   0.00000  Uiso   1.00
H451   H     0.65929   0.24966   0.69358   0.00000  Uiso   1.00
H452   H     0.34071   0.25011   0.80638   0.00000  Uiso   1.00
C453   C     0.49425   0.04780   0.79254   0.00000  Uiso   1.00
C454   C     0.53782   0.45078   0.72886   0.00000  Uiso   1.00
H455   H     0.48678   0.03125   0.82540   0.00000  Uiso   1.00
H456   H     0.56775   0.46706   0.71221   0.00000  Uiso   1.00
C457   C     0.49423   0.09362   0.79167   0.00000  Uiso   1.00
C458   C     0.53529   0.40504   0.72757   0.00000  Uiso   1.00
H459   H     0.48549   0.11123   0.82360   0.00000  Uiso   1.00
H460   H     0.56313   0.38682   0.70987   0.00000  Uiso   1.00
C461   C     0.50484   0.11638   0.75015   0.00000  Uiso   1.00
C462   C     0.49820   0.38284   0.75009   0.00000  Uiso   1.00
C463   C     0.51681   0.09216   0.70932   0.00000  Uiso   1.00
C464   C     0.46251   0.40678   0.77374   0.00000  Uiso   1.00
C465   C     0.51473   0.04614   0.71006   0.00000  Uiso   1.00
C466   C     0.46519   0.45288   0.77438   0.00000  Uiso   1.00
H467   H     0.52230   0.02790   0.67814   0.00000  Uiso   1.00
H468   H     0.43683   0.47145   0.79095   0.00000  Uiso   1.00
C469   C     0.50387   0.02369   0.75156   0.00000  Uiso   1.00
C470   C     0.50256   0.47511   0.75193   0.00000  Uiso   1.00
C471   C     0.53953   0.27076   0.55921   0.00000  Uiso   1.00
C472   C     0.47625   0.21583   0.94278   0.00000  Uiso   1.00
H473   H     0.57156   0.28665   0.54548   0.00000  Uiso   1.00
H474   H     0.45818   0.18815   0.95826   0.00000  Uiso   1.00
C475   C     0.53857   0.27071   0.60981   0.00000  Uiso   1.00
C476   C     0.47635   0.21667   0.89207   0.00000  Uiso   1.00
H477   H     0.56904   0.28722   0.63347   0.00000  Uiso   1.00
H478   H     0.45751   0.19035   0.86988   0.00000  Uiso   1.00
N479   N     0.50000   0.25001   0.62934   0.00000  Uiso   1.00
N480   N     0.50000   0.24999   0.87065   0.00000  Uiso   1.00
C481   C     0.46151   0.22919   0.59960   0.00000  Uiso   1.00
C482   C     0.52357   0.28333   0.89855   0.00000  Uiso   1.00
H483   H     0.43107   0.21268   0.61521   0.00000  Uiso   1.00
H484   H     0.54231   0.30971   0.88150   0.00000  Uiso   1.00
C485   C     0.46057   0.22904   0.54874   0.00000  Uiso   1.00
C486   C     0.52368   0.28412   0.94930   0.00000  Uiso   1.00
H487   H     0.42856   0.21310   0.52653   0.00000  Uiso   1.00
H488   H     0.54173   0.31179   0.96976   0.00000  Uiso   1.00
C489   C     0.50003   0.24991   0.52735   0.00000  Uiso   1.00
C490   C     0.50000   0.24995   0.97266   0.00000  Uiso   1.00
N491   N     0.53311   0.11328   0.66778   0.00000  Uiso   1.00
O492   O     0.57328   0.13907   0.67352   0.00000  Uiso   1.00
O493   O     0.51464   0.10015   0.62409   0.00000  Uiso   1.00
N494   N     0.42238   0.38518   0.79543   0.00000  Uiso   1.00
O495   O     0.39826   0.35126   0.77420   0.00000  Uiso   1.00
O496   O     0.40507   0.40289   0.83280   0.00000  Uiso   1.00
O497   O     0.83334   0.18573   0.79071   0.00000  Uiso   1.00
O498   O     0.83333   0.31428   0.70928   0.00000  Uiso   1.00
O499   O     0.83334   0.18573   0.70928   0.00000  Uiso   1.00
O500   O     0.83333   0.31427   0.79072   0.00000  Uiso   1.00
C501   C     0.83519   0.16486   0.75006   0.00000  Uiso   1.00
C502   C     0.83242   0.33487   0.74999   0.00000  Uiso   1.00
O503   O     0.75828   0.25000   0.78132   0.00000  Uiso   1.00
O504   O     0.90839   0.25001   0.71868   0.00000  Uiso   1.00
O505   O     0.75828   0.25000   0.69988   0.00000  Uiso   1.00
O506   O     0.90839   0.25000   0.80011   0.00000  Uiso   1.00
C507   C     0.73456   0.24982   0.73754   0.00000  Uiso   1.00
C508   C     0.93211   0.25001   0.76245   0.00000  Uiso   1.00
Cu509  Cu    0.83333   0.25000   0.79821   0.00000  Uiso   1.00
Cu510  Cu    0.83333   0.25001   0.70178   0.00000  Uiso   1.00
C511   C     0.67928   0.24978   0.73066   0.00000  Uiso   1.00
C512   C     0.98738   0.24997   0.76931   0.00000  Uiso   1.00
H513   H     0.99262   0.24966   0.69358   0.00000  Uiso   1.00
H514   H     0.67404   0.25011   0.80638   0.00000  Uiso   1.00
C515   C     0.82759   0.04780   0.79254   0.00000  Uiso   1.00
C516   C     0.87115   0.45078   0.72886   0.00000  Uiso   1.00
H517   H     0.82011   0.03125   0.82540   0.00000  Uiso   1.00
H518   H     0.90108   0.46706   0.71221   0.00000  Uiso   1.00
C519   C     0.82756   0.09362   0.79167   0.00000  Uiso   1.00
C520   C     0.86863   0.40504   0.72757   0.00000  Uiso   1.00
H521   H     0.81882   0.11123   0.82360   0.00000  Uiso   1.00
H522   H     0.89647   0.38682   0.70987   0.00000  Uiso   1.00
C523   C     0.83817   0.11638   0.75015   0.00000  Uiso   1.00
C524   C     0.83154   0.38284   0.75009   0.00000  Uiso   1.00
C525   C     0.85014   0.09216   0.70932   0.00000  Uiso   1.00
C526   C     0.79584   0.40678   0.77374   0.00000  Uiso   1.00
C527   C     0.84806   0.04614   0.71006   0.00000  Uiso   1.00
C528   C     0.79853   0.45288   0.77438   0.00000  Uiso   1.00
H529   H     0.85564   0.02790   0.67814   0.00000  Uiso   1.00
H530   H     0.77016   0.47145   0.79095   0.00000  Uiso   1.00
C531   C     0.83720   0.02369   0.75156   0.00000  Uiso   1.00
C532   C     0.83589   0.47511   0.75193   0.00000  Uiso   1.00
C533   C     0.87286   0.27076   0.55921   0.00000  Uiso   1.00
C534   C     0.80959   0.21583   0.94278   0.00000  Uiso   1.00
H535   H     0.90489   0.28665   0.54548   0.00000  Uiso   1.00
H536   H     0.79152   0.18815   0.95826   0.00000  Uiso   1.00
C537   C     0.87190   0.27071   0.60981   0.00000  Uiso   1.00
C538   C     0.80968   0.21667   0.89207   0.00000  Uiso   1.00
H539   H     0.90237   0.28722   0.63347   0.00000  Uiso   1.00
H540   H     0.79085   0.19035   0.86988   0.00000  Uiso   1.00
N541   N     0.83333   0.25001   0.62934   0.00000  Uiso   1.00
N542   N     0.83333   0.24999   0.87065   0.00000  Uiso   1.00
C543   C     0.79484   0.22919   0.59960   0.00000  Uiso   1.00
C544   C     0.85690   0.28333   0.89855   0.00000  Uiso   1.00
H545   H     0.76441   0.21268   0.61521   0.00000  Uiso   1.00
H546   H     0.87564   0.30971   0.88150   0.00000  Uiso   1.00
C547   C     0.79390   0.22904   0.54874   0.00000  Uiso   1.00
C548   C     0.85702   0.28412   0.94930   0.00000  Uiso   1.00
H549   H     0.76189   0.21310   0.52653   0.00000  Uiso   1.00
H550   H     0.87506   0.31179   0.96976   0.00000  Uiso   1.00
C551   C     0.83337   0.24991   0.52735   0.00000  Uiso   1.00
C552   C     0.83333   0.24995   0.97266   0.00000  Uiso   1.00
N553   N     0.86644   0.11328   0.66778   0.00000  Uiso   1.00
O554   O     0.90661   0.13907   0.67352   0.00000  Uiso   1.00
O555   O     0.84798   0.10015   0.62409   0.00000  Uiso   1.00
N556   N     0.75571   0.38518   0.79543   0.00000  Uiso   1.00
O557   O     0.73159   0.35126   0.77420   0.00000  Uiso   1.00
O558   O     0.73840   0.40289   0.83280   0.00000  Uiso   1.00
O559   O     0.16667   0.68573   0.79071   0.00000  Uiso   1.00
O560   O     0.16666   0.81428   0.70928   0.00000  Uiso   1.00
O561   O     0.16667   0.68573   0.70928   0.00000  Uiso   1.00
O562   O     0.16666   0.81427   0.79072   0.00000  Uiso   1.00
C563   C     0.16852   0.66486   0.75006   0.00000  Uiso   1.00
C564   C     0.16575   0.83487   0.74999   0.00000  Uiso   1.00
O565   O     0.09161   0.75000   0.78132   0.00000  Uiso   1.00
O566   O     0.24172   0.75001   0.71868   0.00000  Uiso   1.00
O567   O     0.09161   0.75000   0.69988   0.00000  Uiso   1.00
O568   O     0.24172   0.75000   0.80011   0.00000  Uiso   1.00
C569   C     0.06789   0.74982   0.73754   0.00000  Uiso   1.00
C570   C     0.26544   0.75001   0.76245   0.00000  Uiso   1.00
Cu571  Cu    0.16667   0.75000   0.79821   0.00000  Uiso   1.00
Cu572  Cu    0.16667   0.75001   0.70178   0.00000  Uiso   1.00
C573   C     0.01262   0.74978   0.73066   0.00000  Uiso   1.00
C574   C     0.32071   0.74997   0.76931   0.00000  Uiso   1.00
H575   H     0.32596   0.74966   0.69358   0.00000  Uiso   1.00
H576   H     0.00738   0.75011   0.80638   0.00000  Uiso   1.00
C577   C     0.16092   0.54780   0.79254   0.00000  Uiso   1.00
C578   C     0.20449   0.95078   0.72886   0.00000  Uiso   1.00
H579   H     0.15344   0.53125   0.82540   0.00000  Uiso   1.00
H580   H     0.23442   0.96706   0.71221   0.00000  Uiso   1.00
C581   C     0.16090   0.59362   0.79167   0.00000  Uiso   1.00
C582   C     0.20196   0.90504   0.72757   0.00000  Uiso   1.00
H583   H     0.15215   0.61123   0.82360   0.00000  Uiso   1.00
H584   H     0.22980   0.88682   0.70987   0.00000  Uiso   1.00
C585   C     0.17151   0.61638   0.75015   0.00000  Uiso   1.00
C586   C     0.16487   0.88284   0.75009   0.00000  Uiso   1.00
C587   C     0.18348   0.59216   0.70932   0.00000  Uiso   1.00
C588   C     0.12918   0.90678   0.77374   0.00000  Uiso   1.00
C589   C     0.18140   0.54614   0.71006   0.00000  Uiso   1.00
C590   C     0.13186   0.95288   0.77438   0.00000  Uiso   1.00
H591   H     0.18897   0.52790   0.67814   0.00000  Uiso   1.00
H592   H     0.10350   0.97145   0.79095   0.00000  Uiso   1.00
C593   C     0.17053   0.52369   0.75156   0.00000  Uiso   1.00
C594   C     0.16922   0.97511   0.75193   0.00000  Uiso   1.00
C595   C     0.20620   0.77076   0.55921   0.00000  Uiso   1.00
C596   C     0.14292   0.71583   0.94278   0.00000  Uiso   1.00
H597   H     0.23822   0.78665   0.54548   0.00000  Uiso   1.00
H598   H     0.12485   0.68815   0.95826   0.00000  Uiso   1.00
C599   C     0.20524   0.77071   0.60981   0.00000  Uiso   1.00
C600   C     0.14302   0.71667   0.89207   0.00000  Uiso   1.00
H601   H     0.23571   0.78722   0.63347   0.00000  Uiso   1.00
H602   H     0.12418   0.69035   0.86988   0.00000  Uiso   1.00
N603   N     0.16667   0.75001   0.62934   0.00000  Uiso   1.00
N604   N     0.16667   0.74999   0.87065   0.00000  Uiso   1.00
C605   C     0.12817   0.72919   0.59960   0.00000  Uiso   1.00
C606   C     0.19023   0.78333   0.89855   0.00000  Uiso   1.00
H607   H     0.09774   0.71268   0.61521   0.00000  Uiso   1.00
H608   H     0.20898   0.80971   0.88150   0.00000  Uiso   1.00
C609   C     0.12723   0.72904   0.54874   0.00000  Uiso   1.00
C610   C     0.19035   0.78412   0.94930   0.00000  Uiso   1.00
H611   H     0.09523   0.71310   0.52653   0.00000  Uiso   1.00
H612   H     0.20840   0.81179   0.96976   0.00000  Uiso   1.00
C613   C     0.16670   0.74991   0.52735   0.00000  Uiso   1.00
C614   C     0.16666   0.74995   0.97266   0.00000  Uiso   1.00
N615   N     0.19978   0.61328   0.66778   0.00000  Uiso   1.00
O616   O     0.23995   0.63907   0.67352   0.00000  Uiso   1.00
O617   O     0.18131   0.60015   0.62409   0.00000  Uiso   1.00
N618   N     0.08905   0.88518   0.79543   0.00000  Uiso   1.00
O619   O     0.06492   0.85126   0.77420   0.00000  Uiso   1.00
O620   O     0.07174   0.90289   0.83280   0.00000  Uiso   1.00
O621   O     0.50000   0.68573   0.79071   0.00000  Uiso   1.00
O622   O     0.50000   0.81428   0.70928   0.00000  Uiso   1.00
O623   O     0.50000   0.68573   0.70928   0.00000  Uiso   1.00
O624   O     0.50000   0.81427   0.79072   0.00000  Uiso   1.00
C625   C     0.50186   0.66486   0.75006   0.00000  Uiso   1.00
C626   C     0.49908   0.83487   0.74999   0.00000  Uiso   1.00
O627   O     0.42495   0.75000   0.78132   0.00000  Uiso   1.00
O628   O     0.57505   0.75001   0.71868   0.00000  Uiso   1.00
O629   O     0.42495   0.75000   0.69988   0.00000  Uiso   1.00
O630   O     0.57505   0.75000   0.80011   0.00000  Uiso   1.00
C631   C     0.40122   0.74982   0.73754   0.00000  Uiso   1.00
C632   C     0.59878   0.75001   0.76245   0.00000  Uiso   1.00
Cu633  Cu    0.50000   0.75000   0.79821   0.00000  Uiso   1.00
Cu634  Cu    0.50000   0.75001   0.70178   0.00000  Uiso   1.00
C635   C     0.34595   0.74978   0.73066   0.00000  Uiso   1.00
C636   C     0.65404   0.74997   0.76931   0.00000  Uiso   1.00
H637   H     0.65929   0.74966   0.69358   0.00000  Uiso   1.00
H638   H     0.34071   0.75011   0.80638   0.00000  Uiso   1.00
C639   C     0.49425   0.54780   0.79254   0.00000  Uiso   1.00
C640   C     0.53782   0.95078   0.72886   0.00000  Uiso   1.00
H641   H     0.48678   0.53125   0.82540   0.00000  Uiso   1.00
H642   H     0.56775   0.96706   0.71221   0.00000  Uiso   1.00
C643   C     0.49423   0.59362   0.79167   0.00000  Uiso   1.00
C644   C     0.53529   0.90504   0.72757   0.00000  Uiso   1.00
H645   H     0.48549   0.61123   0.82360   0.00000  Uiso   1.00
H646   H     0.56313   0.88682   0.70987   0.00000  Uiso   1.00
C647   C     0.50484   0.61638   0.75015   0.00000  Uiso   1.00
C648   C     0.49820   0.88284   0.75009   0.00000  Uiso   1.00
C649   C     0.51681   0.59216   0.70932   0.00000  Uiso   1.00
C650   C     0.46251   0.90678   0.77374   0.00000  Uiso   1.00
C651   C     0.51473   0.54614   0.71006   0.00000  Uiso   1.00
C652   C     0.46519   0.95288   0.77438   0.00000  Uiso   1.00
H653   H     0.52230   0.52790   0.67814   0.00000  Uiso   1.00
H654   H     0.43683   0.97145   0.79095   0.00000  Uiso   1.00
C655   C     0.50387   0.52369   0.75156   0.00000  Uiso   1.00
C656   C     0.50256   0.97511   0.75193   0.00000  Uiso   1.00
C657   C     0.53953   0.77076   0.55921   0.00000  Uiso   1.00
C658   C     0.47625   0.71583   0.94278   0.00000  Uiso   1.00
H659   H     0.57156   0.78665   0.54548   0.00000  Uiso   1.00
H660   H     0.45818   0.68815   0.95826   0.00000  Uiso   1.00
C661   C     0.53857   0.77071   0.60981   0.00000  Uiso   1.00
C662   C     0.47635   0.71667   0.89207   0.00000  Uiso   1.00
H663   H     0.56904   0.78722   0.63347   0.00000  Uiso   1.00
H664   H     0.45751   0.69035   0.86988   0.00000  Uiso   1.00
N665   N     0.50000   0.75001   0.62934   0.00000  Uiso   1.00
N666   N     0.50000   0.74999   0.87065   0.00000  Uiso   1.00
C667   C     0.46151   0.72919   0.59960   0.00000  Uiso   1.00
C668   C     0.52357   0.78333   0.89855   0.00000  Uiso   1.00
H669   H     0.43107   0.71268   0.61521   0.00000  Uiso   1.00
H670   H     0.54231   0.80971   0.88150   0.00000  Uiso   1.00
C671   C     0.46057   0.72904   0.54874   0.00000  Uiso   1.00
C672   C     0.52368   0.78412   0.94930   0.00000  Uiso   1.00
H673   H     0.42856   0.71310   0.52653   0.00000  Uiso   1.00
H674   H     0.54173   0.81179   0.96976   0.00000  Uiso   1.00
C675   C     0.50003   0.74991   0.52735   0.00000  Uiso   1.00
C676   C     0.50000   0.74995   0.97266   0.00000  Uiso   1.00
N677   N     0.53311   0.61328   0.66778   0.00000  Uiso   1.00
O678   O     0.57328   0.63907   0.67352   0.00000  Uiso   1.00
O679   O     0.51464   0.60015   0.62409   0.00000  Uiso   1.00
N680   N     0.42238   0.88518   0.79543   0.00000  Uiso   1.00
O681   O     0.39826   0.85126   0.77420   0.00000  Uiso   1.00
O682   O     0.40507   0.90289   0.83280   0.00000  Uiso   1.00
O683   O     0.83334   0.68573   0.79071   0.00000  Uiso   1.00
O684   O     0.83333   0.81428   0.70928   0.00000  Uiso   1.00
O685   O     0.83334   0.68573   0.70928   0.00000  Uiso   1.00
O686   O     0.83333   0.81427   0.79072   0.00000  Uiso   1.00
C687   C     0.83519   0.66486   0.75006   0.00000  Uiso   1.00
C688   C     0.83242   0.83487   0.74999   0.00000  Uiso   1.00
O689   O     0.75828   0.75000   0.78132   0.00000  Uiso   1.00
O690   O     0.90839   0.75001   0.71868   0.00000  Uiso   1.00
O691   O     0.75828   0.75000   0.69988   0.00000  Uiso   1.00
O692   O     0.90839   0.75000   0.80011   0.00000  Uiso   1.00
C693   C     0.73456   0.74982   0.73754   0.00000  Uiso   1.00
C694   C     0.93211   0.75001   0.76245   0.00000  Uiso   1.00
Cu695  Cu    0.83333   0.75000   0.79821   0.00000  Uiso   1.00
Cu696  Cu    0.83333   0.75001   0.70178   0.00000  Uiso   1.00
C697   C     0.67928   0.74978   0.73066   0.00000  Uiso   1.00
C698   C     0.98738   0.74997   0.76931   0.00000  Uiso   1.00
H699   H     0.99262   0.74966   0.69358   0.00000  Uiso   1.00
H700   H     0.67404   0.75011   0.80638   0.00000  Uiso   1.00
C701   C     0.82759   0.54780   0.79254   0.00000  Uiso   1.00
C702   C     0.87115   0.95078   0.72886   0.00000  Uiso   1.00
H703   H     0.82011   0.53125   0.82540   0.00000  Uiso   1.00
H704   H     0.90108   0.96706   0.71221   0.00000  Uiso   1.00
C705   C     0.82756   0.59362   0.79167   0.00000  Uiso   1.00
C706   C     0.86863   0.90504   0.72757   0.00000  Uiso   1.00
H707   H     0.81882   0.61123   0.82360   0.00000  Uiso   1.00
H708   H     0.89647   0.88682   0.70987   0.00000  Uiso   1.00
C709   C     0.83817   0.61638   0.75015   0.00000  Uiso   1.00
C710   C     0.83154   0.88284   0.75009   0.00000  Uiso   1.00
C711   C     0.85014   0.59216   0.70932   0.00000  Uiso   1.00
C712   C     0.79584   0.90678   0.77374   0.00000  Uiso   1.00
C713   C     0.84806   0.54614   0.71006   0.00000  Uiso   1.00
C714   C     0.79853   0.95288   0.77438   0.00000  Uiso   1.00
H715   H     0.85564   0.52790   0.67814   0.00000  Uiso   1.00
H716   H     0.77016   0.97145   0.79095   0.00000  Uiso   1.00
C717   C     0.83720   0.52369   0.75156   0.00000  Uiso   1.00
C718   C     0.83589   0.97511   0.75193   0.00000  Uiso   1.00
C719   C     0.87286   0.77076   0.55921   0.00000  Uiso   1.00
C720   C     0.80959   0.71583   0.94278   0.00000  Uiso   1.00
H721   H     0.90489   0.78665   0.54548   0.00000  Uiso   1.00
H722   H     0.79152   0.68815   0.95826   0.00000  Uiso   1.00
C723   C     0.87190   0.77071   0.60981   0.00000  Uiso   1.00
C724   C     0.80968   0.71667   0.89207   0.00000  Uiso   1.00
H725   H     0.90237   0.78722   0.63347   0.00000  Uiso   1.00
H726   H     0.79085   0.69035   0.86988   0.00000  Uiso   1.00
N727   N     0.83333   0.75001   0.62934   0.00000  Uiso   1.00
N728   N     0.83333   0.74999   0.87065   0.00000  Uiso   1.00
C729   C     0.79484   0.72919   0.59960   0.00000  Uiso   1.00
C730   C     0.85690   0.78333   0.89855   0.00000  Uiso   1.00
H731   H     0.76441   0.71268   0.61521   0.00000  Uiso   1.00
H732   H     0.87564   0.80971   0.88150   0.00000  Uiso   1.00
C733   C     0.79390   0.72904   0.54874   0.00000  Uiso   1.00
C734   C     0.85702   0.78412   0.94930   0.00000  Uiso   1.00
H735   H     0.76189   0.71310   0.52653   0.00000  Uiso   1.00
H736   H     0.87506   0.81179   0.96976   0.00000  Uiso   1.00
C737   C     0.83337   0.74991   0.52735   0.00000  Uiso   1.00
C738   C     0.83333   0.74995   0.97266   0.00000  Uiso   1.00
N739   N     0.86644   0.61328   0.66778   0.00000  Uiso   1.00
O740   O     0.90661   0.63907   0.67352   0.00000  Uiso   1.00
O741   O     0.84798   0.60015   0.62409   0.00000  Uiso   1.00
N742   N     0.75571   0.88518   0.79543   0.00000  Uiso   1.00
O743   O     0.73159   0.85126   0.77420   0.00000  Uiso   1.00
O744   O     0.73840   0.90289   0.83280   0.00000  Uiso   1.00
loop_
_geom_bond_atom_site_label_1
_geom_bond_atom_site_label_2
_geom_bond_distance
_geom_bond_site_symmetry_2
_ccdc_geom_bond_type
O1     C5      1.297   .     A
O1     Cu13    1.957   .     S
O2     C6      1.291   .     A
O2     Cu14    1.957   .     S
O3     Cu14    1.959   .     S
O3     C5      1.293   .     A
O4     C6      1.290   .     A
O4     Cu13    1.959   .     S
C5     C27     1.471   .     S
C6     C28     1.453   .     S
O7     C11     1.285   .     A
O7     Cu13    1.957   .     S
O8     C12     1.285   .     A
O8     Cu14    1.957   .     S
O9     Cu14    1.960   .     S
O9     C11     1.287   .     A
O10    C12     1.287   .     A
O10    Cu13    1.960   .     S
C11    C15     1.434   .     S
C12    C16     1.434   .     S
Cu13   Cu14    2.674   .     S
Cu13   N46     2.009   .     S
Cu14   N45     2.009   .     S
C15    C140    1.335   1_455 S
C15    H141    1.087   1_455 S
C16    C77     1.335   .     S
C16    H80     1.087   .     S
H17    C77     1.087   .     S
H18    C140    1.087   1_455 S
C19    C23     1.388   .     A
C19    C35     1.401   .     A
C19    H21     1.083   .     S
C20    H22     1.083   .     S
C20    C24     1.387   .     A
C20    C36     1.402   .     A
C23    C27     1.404   .     A
C23    H25     1.083   .     S
C24    C28     1.399   .     A
C24    H26     1.084   .     S
C27    C29     1.418   .     A
C28    C30     1.413   .     A
C29    C31     1.395   .     A
C29    N57     1.435   .     S
C30    C32     1.398   .     A
C30    N60     1.439   .     S
C31    H33     1.083   .     S
C31    C35     1.401   .     A
C32    C36     1.403   .     A
C32    H34     1.083   .     S
C35    C222    1.472   1_545 S
C36    C221    1.472   .     S
C37    H39     1.081   .     S
C37    C41     1.407   .     A
C37    C55     1.411   .     A
C38    H40     1.081   .     S
C38    C42     1.407   .     A
C38    C56     1.411   .     A
C41    H43     1.081   .     S
C41    N45     1.364   .     A
C42    H44     1.081   .     S
C42    N46     1.364   .     A
N45    C47     1.364   .     A
N46    C48     1.364   .     A
C47    H49     1.081   .     S
C47    C51     1.407   .     A
C48    C52     1.407   .     A
C48    H50     1.081   .     S
C51    C55     1.411   .     A
C51    H53     1.081   .     S
C52    H54     1.081   .     S
C52    C56     1.411   .     A
C55    C428    1.516   1_554 S
C56    C427    1.516   .     S
N57    O58     1.302   .     A
N57    O59     1.301   .     A
N60    O62     1.301   .     A
N60    O61     1.301   .     A
O63    C67     1.297   .     A
O63    Cu75    1.957   .     S
O64    C68     1.291   .     A
O64    Cu76    1.957   .     S
O65    Cu76    1.959   .     S
O65    C67     1.293   .     A
O66    C68     1.290   .     A
O66    Cu75    1.959   .     S
C67    C89     1.471   .     S
C68    C90     1.453   .     S
O69    C73     1.285   .     A
O69    Cu75    1.957   .     S
O70    C74     1.285   .     A
O70    Cu76    1.957   .     S
O71    Cu76    1.960   .     S
O71    C73     1.287   .     A
O72    C74     1.287   .     A
O72    Cu75    1.960   .     S
C73    C77     1.434   .     S
C74    C78     1.434   .     S
Cu75   Cu76    2.674   .     S
Cu75   N108    2.009   .     S
Cu76   N107    2.009   .     S
C78    C139    1.335   .     S
C78    H142    1.087   .     S
H79    C139    1.087   .     S
C81    C85     1.388   .     A
C81    C97     1.401   .     A
C81    H83     1.083   .     S
C82    H84     1.083   .     S
C82    C86     1.387   .     A
C82    C98     1.402   .     A
C85    C89     1.404   .     A
C85    H87     1.083   .     S
C86    C90     1.399   .     A
C86    H88     1.084   .     S
C89    C91     1.418   .     A
C90    C92     1.413   .     A
C91    C93     1.395   .     A
C91    N119    1.435   .     S
C92    C94     1.398   .     A
C92    N122    1.439   .     S
C93    H95     1.083   .     S
C93    C97     1.401   .     A
C94    C98     1.403   .     A
C94    H96     1.083   .     S
C97    C284    1.472   1_545 S
C98    C283    1.472   .     S
C99    H101    1.081   .     S
C99    C103    1.407   .     A
C99    C117    1.411   .     A
C100   H102    1.081   .     S
C100   C104    1.407   .     A
C100   C118    1.411   .     A
C103   H105    1.081   .     S
C103   N107    1.364   .     A
C104   H106    1.081   .     S
C104   N108    1.364   .     A
N107   C109    1.364   .     A
N108   C110    1.364   .     A
C109   H111    1.081   .     S
C109   C113    1.407   .     A
C110   C114    1.407   .     A
C110   H112    1.081   .     S
C113   C117    1.411   .     A
C113   H115    1.081   .     S
C114   H116    1.081   .     S
C114   C118    1.411   .     A
C117   C490    1.516   1_554 S
C118   C489    1.516   .     S
N119   O120    1.302   .     A
N119   O121    1.301   .     A
N122   O124    1.301   .     A
N122   O123    1.301   .     A
O125   C129    1.297   .     A
O125   Cu137   1.957   .     S
O126   C130    1.291   .     A
O126   Cu138   1.957   .     S
O127   Cu138   1.959   .     S
O127   C129    1.293   .     A
O128   C130    1.290   .     A
O128   Cu137   1.959   .     S
C129   C151    1.471   .     S
C130   C152    1.453   .     S
O131   C135    1.285   .     A
O131   Cu137   1.957   .     S
O132   C136    1.285   .     A
O132   Cu138   1.957   .     S
O133   Cu138   1.960   .     S
O133   C135    1.287   .     A
O134   C136    1.287   .     A
O134   Cu137   1.960   .     S
C135   C139    1.434   .     S
C136   C140    1.434   .     S
Cu137  Cu138   2.674   .     S
Cu137  N170    2.009   .     S
Cu138  N169    2.009   .     S
C140   C15     1.335   1_655 S
C140   H18     1.087   1_655 S
H141   C15     1.087   1_655 S
C143   C147    1.388   .     A
C143   C159    1.401   .     A
C143   H145    1.083   .     S
C144   H146    1.083   .     S
C144   C148    1.387   .     A
C144   C160    1.402   .     A
C147   C151    1.404   .     A
C147   H149    1.083   .     S
C148   C152    1.399   .     A
C148   H150    1.084   .     S
C151   C153    1.418   .     A
C152   C154    1.413   .     A
C153   C155    1.395   .     A
C153   N181    1.435   .     S
C154   C156    1.398   .     A
C154   N184    1.439   .     S
C155   H157    1.083   .     S
C155   C159    1.401   .     A
C156   C160    1.403   .     A
C156   H158    1.083   .     S
C159   C346    1.472   1_545 S
C160   C345    1.472   .     S
C161   H163    1.081   .     S
C161   C165    1.407   .     A
C161   C179    1.411   .     A
C162   H164    1.081   .     S
C162   C166    1.407   .     A
C162   C180    1.411   .     A
C165   H167    1.081   .     S
C165   N169    1.364   .     A
C166   H168    1.081   .     S
C166   N170    1.364   .     A
N169   C171    1.364   .     A
N170   C172    1.364   .     A
C171   H173    1.081   .     S
C171   C175    1.407   .     A
C172   C176    1.407   .     A
C172   H174    1.081   .     S
C175   C179    1.411   .     A
C175   H177    1.081   .     S
C176   H178    1.081   .     S
C176   C180    1.411   .     A
C179   C552    1.516   1_554 S
C180   C551    1.516   .     S
N181   O182    1.302   .     A
N181   O183    1.301   .     A
N184   O186    1.301   .     A
N184   O185    1.301   .     A
O187   C191    1.297   .     A
O187   Cu199   1.957   .     S
O188   C192    1.291   .     A
O188   Cu200   1.957   .     S
O189   Cu200   1.959   .     S
O189   C191    1.293   .     A
O190   C192    1.290   .     A
O190   Cu199   1.959   .     S
C191   C213    1.471   .     S
C192   C214    1.453   .     S
O193   C197    1.285   .     A
O193   Cu199   1.957   .     S
O194   C198    1.285   .     A
O194   Cu200   1.957   .     S
O195   Cu200   1.960   .     S
O195   C197    1.287   .     A
O196   C198    1.287   .     A
O196   Cu199   1.960   .     S
C197   C201    1.434   .     S
C198   C202    1.434   .     S
Cu199  Cu200   2.674   .     S
Cu199  N232    2.009   .     S
Cu200  N231    2.009   .     S
C201   C326    1.335   1_455 S
C201   H327    1.087   1_455 S
C202   C263    1.335   .     S
C202   H266    1.087   .     S
H203   C263    1.087   .     S
H204   C326    1.087   1_455 S
C205   C209    1.388   .     A
C205   C221    1.401   .     A
C205   H207    1.083   .     S
C206   H208    1.083   .     S
C206   C210    1.387   .     A
C206   C222    1.402   .     A
C209   C213    1.404   .     A
C209   H211    1.083   .     S
C210   C214    1.399   .     A
C210   H212    1.084   .     S
C213   C215    1.418   .     A
C214   C216    1.413   .     A
C215   C217    1.395   .     A
C215   N243    1.435   .     S
C216   C218    1.398   .     A
C216   N246    1.439   .     S
C217   H219    1.083   .     S
C217   C221    1.401   .     A
C218   C222    1.403   .     A
C218   H220    1.083   .     S
C222   C35     1.472   1_565 S
C223   H225    1.081   .     S
C223   C227    1.407   .     A
C223   C241    1.411   .     A
C224   H226    1.081   .     S
C224   C228    1.407   .     A
C224   C242    1.411   .     A
C227   H229    1.081   .     S
C227   N231    1.364   .     A
C228   H230    1.081   .     S
C228   N232    1.364   .     A
N231   C233    1.364   .     A
N232   C234    1.364   .     A
C233   H235    1.081   .     S
C233   C237    1.407   .     A
C234   C238    1.407   .     A
C234   H236    1.081   .     S
C237   C241    1.411   .     A
C237   H239    1.081   .     S
C238   H240    1.081   .     S
C238   C242    1.411   .     A
C241   C614    1.516   1_554 S
C242   C613    1.516   .     S
N243   O244    1.302   .     A
N243   O245    1.301   .     A
N246   O248    1.301   .     A
N246   O247    1.301   .     A
O249   C253    1.297   .     A
O249   Cu261   1.957   .     S
O250   C254    1.291   .     A
O250   Cu262   1.957   .     S
O251   Cu262   1.959   .     S
O251   C253    1.293   .     A
O252   C254    1.290   .     A
O252   Cu261   1.959   .     S
C253   C275    1.471   .     S
C254   C276    1.453   .     S
O255   C259    1.285   .     A
O255   Cu261   1.957   .     S
O256   C260    1.285   .     A
O256   Cu262   1.957   .     S
O257   Cu262   1.960   .     S
O257   C259    1.287   .     A
O258   C260    1.287   .     A
O258   Cu261   1.960   .     S
C259   C263    1.434   .     S
C260   C264    1.434   .     S
Cu261  Cu262   2.674   .     S
Cu261  N294    2.009   .     S
Cu262  N293    2.009   .     S
C264   C325    1.335   .     S
C264   H328    1.087   .     S
H265   C325    1.087   .     S
C267   C271    1.388   .     A
C267   C283    1.401   .     A
C267   H269    1.083   .     S
C268   H270    1.083   .     S
C268   C272    1.387   .     A
C268   C284    1.402   .     A
C271   C275    1.404   .     A
C271   H273    1.083   .     S
C272   C276    1.399   .     A
C272   H274    1.084   .     S
C275   C277    1.418   .     A
C276   C278    1.413   .     A
C277   C279    1.395   .     A
C277   N305    1.435   .     S
C278   C280    1.398   .     A
C278   N308    1.439   .     S
C279   H281    1.083   .     S
C279   C283    1.401   .     A
C280   C284    1.403   .     A
C280   H282    1.083   .     S
C284   C97     1.472   1_565 S
C285   H287    1.081   .     S
C285   C289    1.407   .     A
C285   C303    1.411   .     A
C286   H288    1.081   .     S
C286   C290    1.407   .     A
C286   C304    1.411   .     A
C289   H291    1.081   .     S
C289   N293    1.364   .     A
C290   H292    1.081   .     S
C290   N294    1.364   .     A
N293   C295    1.364   .     A
N294   C296    1.364   .     A
C295   H297    1.081   .     S
C295   C299    1.407   .     A
C296   C300    1.407   .     A
C296   H298    1.081   .     S
C299   C303    1.411   .     A
C299   H301    1.081   .     S
C300   H302    1.081   .     S
C300   C304    1.411   .     A
C303   C676    1.516   1_554 S
C304   C675    1.516   .     S
N305   O306    1.302   .     A
N305   O307    1.301   .     A
N308   O310    1.301   .     A
N308   O309    1.301   .     A
O311   C315    1.297   .     A
O311   Cu323   1.957   .     S
O312   C316    1.291   .     A
O312   Cu324   1.957   .     S
O313   Cu324   1.959   .     S
O313   C315    1.293   .     A
O314   C316    1.290   .     A
O314   Cu323   1.959   .     S
C315   C337    1.471   .     S
C316   C338    1.453   .     S
O317   C321    1.285   .     A
O317   Cu323   1.957   .     S
O318   C322    1.285   .     A
O318   Cu324   1.957   .     S
O319   Cu324   1.960   .     S
O319   C321    1.287   .     A
O320   C322    1.287   .     A
O320   Cu323   1.960   .     S
C321   C325    1.434   .     S
C322   C326    1.434   .     S
Cu323  Cu324   2.674   .     S
Cu323  N356    2.009   .     S
Cu324  N355    2.009   .     S
C326   C201    1.335   1_655 S
C326   H204    1.087   1_655 S
H327   C201    1.087   1_655 S
C329   C333    1.388   .     A
C329   C345    1.401   .     A
C329   H331    1.083   .     S
C330   H332    1.083   .     S
C330   C334    1.387   .     A
C330   C346    1.402   .     A
C333   C337    1.404   .     A
C333   H335    1.083   .     S
C334   C338    1.399   .     A
C334   H336    1.084   .     S
C337   C339    1.418   .     A
C338   C340    1.413   .     A
C339   C341    1.395   .     A
C339   N367    1.435   .     S
C340   C342    1.398   .     A
C340   N370    1.439   .     S
C341   H343    1.083   .     S
C341   C345    1.401   .     A
C342   C346    1.403   .     A
C342   H344    1.083   .     S
C346   C159    1.472   1_565 S
C347   H349    1.081   .     S
C347   C351    1.407   .     A
C347   C365    1.411   .     A
C348   H350    1.081   .     S
C348   C352    1.407   .     A
C348   C366    1.411   .     A
C351   H353    1.081   .     S
C351   N355    1.364   .     A
C352   H354    1.081   .     S
C352   N356    1.364   .     A
N355   C357    1.364   .     A
N356   C358    1.364   .     A
C357   H359    1.081   .     S
C357   C361    1.407   .     A
C358   C362    1.407   .     A
C358   H360    1.081   .     S
C361   C365    1.411   .     A
C361   H363    1.081   .     S
C362   H364    1.081   .     S
C362   C366    1.411   .     A
C365   C738    1.516   1_554 S
C366   C737    1.516   .     S
N367   O368    1.302   .     A
N367   O369    1.301   .     A
N370   O372    1.301   .     A
N370   O371    1.301   .     A
O373   C377    1.297   .     A
O373   Cu385   1.957   .     S
O374   C378    1.291   .     A
O374   Cu386   1.957   .     S
O375   Cu386   1.959   .     S
O375   C377    1.293   .     A
O376   C378    1.290   .     A
O376   Cu385   1.959   .     S
C377   C399    1.471   .     S
C378   C400    1.453   .     S
O379   C383    1.285   .     A
O379   Cu385   1.957   .     S
O380   C384    1.285   .     A
O380   Cu386   1.957   .     S
O381   Cu386   1.960   .     S
O381   C383    1.287   .     A
O382   C384    1.287   .     A
O382   Cu385   1.960   .     S
C383   C387    1.434   .     S
C384   C388    1.434   .     S
Cu385  Cu386   2.674   .     S
Cu385  N418    2.009   .     S
Cu386  N417    2.009   .     S
C387   C512    1.335   1_455 S
C387   H513    1.087   1_455 S
C388   C449    1.335   .     S
C388   H452    1.087   .     S
H389   C449    1.087   .     S
H390   C512    1.087   1_455 S
C391   C395    1.388   .     A
C391   C407    1.401   .     A
C391   H393    1.083   .     S
C392   H394    1.083   .     S
C392   C396    1.387   .     A
C392   C408    1.402   .     A
C395   C399    1.404   .     A
C395   H397    1.083   .     S
C396   C400    1.399   .     A
C396   H398    1.084   .     S
C399   C401    1.418   .     A
C400   C402    1.413   .     A
C401   C403    1.395   .     A
C401   N429    1.435   .     S
C402   C404    1.398   .     A
C402   N432    1.439   .     S
C403   H405    1.083   .     S
C403   C407    1.401   .     A
C404   C408    1.403   .     A
C404   H406    1.083   .     S
C407   C594    1.472   1_545 S
C408   C593    1.472   .     S
C409   H411    1.081   .     S
C409   C413    1.407   .     A
C409   C427    1.411   .     A
C410   H412    1.081   .     S
C410   C414    1.407   .     A
C410   C428    1.411   .     A
C413   H415    1.081   .     S
C413   N417    1.364   .     A
C414   H416    1.081   .     S
C414   N418    1.364   .     A
N417   C419    1.364   .     A
N418   C420    1.364   .     A
C419   H421    1.081   .     S
C419   C423    1.407   .     A
C420   C424    1.407   .     A
C420   H422    1.081   .     S
C423   C427    1.411   .     A
C423   H425    1.081   .     S
C424   H426    1.081   .     S
C424   C428    1.411   .     A
C428   C55     1.516   1_556 S
N429   O430    1.302   .     A
N429   O431    1.301   .     A
N432   O434    1.301   .     A
N432   O433    1.301   .     A
O435   C439    1.297   .     A
O435   Cu447   1.957   .     S
O436   C440    1.291   .     A
O436   Cu448   1.957   .     S
O437   Cu448   1.959   .     S
O437   C439    1.293   .     A
O438   C440    1.290   .     A
O438   Cu447   1.959   .     S
C439   C461    1.471   .     S
C440   C462    1.453   .     S
O441   C445    1.285   .     A
O441   Cu447   1.957   .     S
O442   C446    1.285   .     A
O442   Cu448   1.957   .     S
O443   Cu448   1.960   .     S
O443   C445    1.287   .     A
O444   C446    1.287   .     A
O444   Cu447   1.960   .     S
C445   C449    1.434   .     S
C446   C450    1.434   .     S
Cu447  Cu448   2.674   .     S
Cu447  N480    2.009   .     S
Cu448  N479    2.009   .     S
C450   C511    1.335   .     S
C450   H514    1.087   .     S
H451   C511    1.087   .     S
C453   C457    1.388   .     A
C453   C469    1.401   .     A
C453   H455    1.083   .     S
C454   H456    1.083   .     S
C454   C458    1.387   .     A
C454   C470    1.402   .     A
C457   C461    1.404   .     A
C457   H459    1.083   .     S
C458   C462    1.399   .     A
C458   H460    1.084   .     S
C461   C463    1.418   .     A
C462   C464    1.413   .     A
C463   C465    1.395   .     A
C463   N491    1.435   .     S
C464   C466    1.398   .     A
C464   N494    1.439   .     S
C465   H467    1.083   .     S
C465   C469    1.401   .     A
C466   C470    1.403   .     A
C466   H468    1.083   .     S
C469   C656    1.472   1_545 S
C470   C655    1.472   .     S
C471   H473    1.081   .     S
C471   C475    1.407   .     A
C471   C489    1.411   .     A
C472   H474    1.081   .     S
C472   C476    1.407   .     A
C472   C490    1.411   .     A
C475   H477    1.081   .     S
C475   N479    1.364   .     A
C476   H478    1.081   .     S
C476   N480    1.364   .     A
N479   C481    1.364   .     A
N480   C482    1.364   .     A
C481   H483    1.081   .     S
C481   C485    1.407   .     A
C482   C486    1.407   .     A
C482   H484    1.081   .     S
C485   C489    1.411   .     A
C485   H487    1.081   .     S
C486   H488    1.081   .     S
C486   C490    1.411   .     A
C490   C117    1.516   1_556 S
N491   O492    1.302   .     A
N491   O493    1.301   .     A
N494   O496    1.301   .     A
N494   O495    1.301   .     A
O497   C501    1.297   .     A
O497   Cu509   1.957   .     S
O498   C502    1.291   .     A
O498   Cu510   1.957   .     S
O499   Cu510   1.959   .     S
O499   C501    1.293   .     A
O500   C502    1.290   .     A
O500   Cu509   1.959   .     S
C501   C523    1.471   .     S
C502   C524    1.453   .     S
O503   C507    1.285   .     A
O503   Cu509   1.957   .     S
O504   C508    1.285   .     A
O504   Cu510   1.957   .     S
O505   Cu510   1.960   .     S
O505   C507    1.287   .     A
O506   C508    1.287   .     A
O506   Cu509   1.960   .     S
C507   C511    1.434   .     S
C508   C512    1.434   .     S
Cu509  Cu510   2.674   .     S
Cu509  N542    2.009   .     S
Cu510  N541    2.009   .     S
C512   C387    1.335   1_655 S
C512   H390    1.087   1_655 S
H513   C387    1.087   1_655 S
C515   C519    1.388   .     A
C515   C531    1.401   .     A
C515   H517    1.083   .     S
C516   H518    1.083   .     S
C516   C520    1.387   .     A
C516   C532    1.402   .     A
C519   C523    1.404   .     A
C519   H521    1.083   .     S
C520   C524    1.399   .     A
C520   H522    1.084   .     S
C523   C525    1.418   .     A
C524   C526    1.413   .     A
C525   C527    1.395   .     A
C525   N553    1.435   .     S
C526   C528    1.398   .     A
C526   N556    1.439   .     S
C527   H529    1.083   .     S
C527   C531    1.401   .     A
C528   C532    1.403   .     A
C528   H530    1.083   .     S
C531   C718    1.472   1_545 S
C532   C717    1.472   .     S
C533   H535    1.081   .     S
C533   C537    1.407   .     A
C533   C551    1.411   .     A
C534   H536    1.081   .     S
C534   C538    1.407   .     A
C534   C552    1.411   .     A
C537   H539    1.081   .     S
C537   N541    1.364   .     A
C538   H540    1.081   .     S
C538   N542    1.364   .     A
N541   C543    1.364   .     A
N542   C544    1.364   .     A
C543   H545    1.081   .     S
C543   C547    1.407   .     A
C544   C548    1.407   .     A
C544   H546    1.081   .     S
C547   C551    1.411   .     A
C547   H549    1.081   .     S
C548   H550    1.081   .     S
C548   C552    1.411   .     A
C552   C179    1.516   1_556 S
N553   O554    1.302   .     A
N553   O555    1.301   .     A
N556   O558    1.301   .     A
N556   O557    1.301   .     A
O559   C563    1.297   .     A
O559   Cu571   1.957   .     S
O560   C564    1.291   .     A
O560   Cu572   1.957   .     S
O561   Cu572   1.959   .     S
O561   C563    1.293   .     A
O562   C564    1.290   .     A
O562   Cu571   1.959   .     S
C563   C585    1.471   .     S
C564   C586    1.453   .     S
O565   C569    1.285   .     A
O565   Cu571   1.957   .     S
O566   C570    1.285   .     A
O566   Cu572   1.957   .     S
O567   Cu572   1.960   .     S
O567   C569    1.287   .     A
O568   C570    1.287   .     A
O568   Cu571   1.960   .     S
C569   C573    1.434   .     S
C570   C574    1.434   .     S
Cu571  Cu572   2.674   .     S
Cu571  N604    2.009   .     S
Cu572  N603    2.009   .     S
C573   C698    1.335   1_455 S
C573   H699    1.087   1_455 S
C574   C635    1.335   .     S
C574   H638    1.087   .     S
H575   C635    1.087   .     S
H576   C698    1.087   1_455 S
C577   C581    1.388   .     A
C577   C593    1.401   .     A
C577   H579    1.083   .     S
C578   H580    1.083   .     S
C578   C582    1.387   .     A
C578   C594    1.402   .     A
C581   C585    1.404   .     A
C581   H583    1.083   .     S
C582   C586    1.399   .     A
C582   H584    1.084   .     S
C585   C587    1.418   .     A
C586   C588    1.413   .     A
C587   C589    1.395   .     A
C587   N615    1.435   .     S
C588   C590    1.398   .     A
C588   N618    1.439   .     S
C589   H591    1.083   .     S
C589   C593    1.401   .     A
C590   C594    1.403   .     A
C590   H592    1.083   .     S
C594   C407    1.472   1_565 S
C595   H597    1.081   .     S
C595   C599    1.407   .     A
C595   C613    1.411   .     A
C596   H598    1.081   .     S
C596   C600    1.407   .     A
C596   C614    1.411   .     A
C599   H601    1.081   .     S
C599   N603    1.364   .     A
C600   H602    1.081   .     S
C600   N604    1.364   .     A
N603   C605    1.364   .     A
N604   C606    1.364   .     A
C605   H607    1.081   .     S
C605   C609    1.407   .     A
C606   C610    1.407   .     A
C606   H608    1.081   .     S
C609   C613    1.411   .     A
C609   H611    1.081   .     S
C610   H612    1.081   .     S
C610   C614    1.411   .     A
C614   C241    1.516   1_556 S
N615   O616    1.302   .     A
N615   O617    1.301   .     A
N618   O620    1.301   .     A
N618   O619    1.301   .     A
O621   C625    1.297   .     A
O621   Cu633   1.957   .     S
O622   C626    1.291   .     A
O622   Cu634   1.957   .     S
O623   Cu634   1.959   .     S
O623   C625    1.293   .     A
O624   C626    1.290   .     A
O624   Cu633   1.959   .     S
C625   C647    1.471   .     S
C626   C648    1.453   .     S
O627   C631    1.285   .     A
O627   Cu633   1.957   .     S
O628   C632    1.285   .     A
O628   Cu634   1.957   .     S
O629   Cu634   1.960   .     S
O629   C631    1.287   .     A
O630   C632    1.287   .     A
O630   Cu633   1.960   .     S
C631   C635    1.434   .     S
C632   C636    1.434   .     S
Cu633  Cu634   2.674   .     S
Cu633  N666    2.009   .     S
Cu634  N665    2.009   .     S
C636   C697    1.335   .     S
C636   H700    1.087   .     S
H637   C697    1.087   .     S
C639   C643    1.388   .     A
C639   C655    1.401   .     A
C639   H641    1.083   .     S
C640   H642    1.083   .     S
C640   C644    1.387   .     A
C640   C656    1.402   .     A
C643   C647    1.404   .     A
C643   H645    1.083   .     S
C644   C648    1.399   .     A
C644   H646    1.084   .     S
C647   C649    1.418   .     A
C648   C650    1.413   .     A
C649   C651    1.395   .     A
C649   N677    1.435   .     S
C650   C652    1.398   .     A
C650   N680    1.439   .     S
C651   H653    1.083   .     S
C651   C655    1.401   .     A
C652   C656    1.403   .     A
C652   H654    1.083   .     S
C656   C469    1.472   1_565 S
C657   H659    1.081   .     S
C657   C661    1.407   .     A
C657   C675    1.411   .     A
C658   H660    1.081   .     S
C658   C662    1.407   .     A
C658   C676    1.411   .     A
C661   H663    1.081   .     S
C661   N665    1.364   .     A
C662   H664    1.081   .     S
C662   N666    1.364   .     A
N665   C667    1.364   .     A
N666   C668    1.364   .     A
C667   H669    1.081   .     S
C667   C671    1.407   .     A
C668   C672    1.407   .     A
C668   H670    1.081   .     S
C671   C675    1.411   .     A
C671   H673    1.081   .     S
C672   H674    1.081   .     S
C672   C676    1.411   .     A
C676   C303    1.516   1_556 S
N677   O678    1.302   .     A
N677   O679    1.301   .     A
N680   O682    1.301   .     A
N680   O681    1.301   .     A
O683   C687    1.297   .     A
O683   Cu695   1.957   .     S
O684   C688    1.291   .     A
O684   Cu696   1.957   .     S
O685   Cu696   1.959   .     S
O685   C687    1.293   .     A
O686   C688    1.290   .     A
O686   Cu695   1.959   .     S
C687   C709    1.471   .     S
C688   C710    1.453   .     S
O689   C693    1.285   .     A
O689   Cu695   1.957   .     S
O690   C694    1.285   .     A
O690   Cu696   1.957   .     S
O691   Cu696   1.960   .     S
O691   C693    1.287   .     A
O692   C694    1.287   .     A
O692   Cu695   1.960   .     S
C693   C697    1.434   .     S
C694   C698    1.434   .     S
Cu695  Cu696   2.674   .     S
Cu695  N728    2.009   .     S
Cu696  N727    2.009   .     S
C698   C573    1.335   1_655 S
C698   H576    1.087   1_655 S
H699   C573    1.087   1_655 S
C701   C705    1.388   .     A
C701   C717    1.401   .     A
C701   H703    1.083   .     S
C702   H704    1.083   .     S
C702   C706    1.387   .     A
C702   C718    1.402   .     A
C705   C709    1.404   .     A
C705   H707    1.083   .     S
C706   C710    1.399   .     A
C706   H708    1.084   .     S
C709   C711    1.418   .     A
C710   C712    1.413   .     A
C711   C713    1.395   .     A
C711   N739    1.435   .     S
C712   C714    1.398   .     A
C712   N742    1.439   .     S
C713   H715    1.083   .     S
C713   C717    1.401   .     A
C714   C718    1.403   .     A
C714   H716    1.083   .     S
C718   C531    1.472   1_565 S
C719   H721    1.081   .     S
C719   C723    1.407   .     A
C719   C737    1.411   .     A
C720   H722    1.081   .     S
C720   C724    1.407   .     A
C720   C738    1.411   .     A
C723   H725    1.081   .     S
C723   N727    1.364   .     A
C724   H726    1.081   .     S
C724   N728    1.364   .     A
N727   C729    1.364   .     A
N728   C730    1.364   .     A
C729   H731    1.081   .     S
C729   C733    1.407   .     A
C730   C734    1.407   .     A
C730   H732    1.081   .     S
C733   C737    1.411   .     A
C733   H735    1.081   .     S
C734   H736    1.081   .     S
C734   C738    1.411   .     A
C738   C365    1.516   1_556 S
N739   O740    1.302   .     A
N739   O741    1.301   .     A
N742   O744    1.301   .     A
N742   O743    1.301   .     A
