data_str_m2_o1_o18_pcu_sym.111
_audit_creation_date              2020-01-03
_audit_creation_method            'Materials Studio'
_symmetry_space_group_name_H-M    'P1'
_symmetry_Int_Tables_number       1
_symmetry_cell_setting            triclinic
loop_
_symmetry_equiv_pos_as_xyz
  x,y,z
_cell_length_a                    28.7695
_cell_length_b                    32.5163
_cell_length_c                    30.4518
_cell_angle_alpha                 88.2660
_cell_angle_beta                  75.3573
_cell_angle_gamma                 91.3722
loop_
_atom_site_label
_atom_site_type_symbol
_atom_site_fract_x
_atom_site_fract_y
_atom_site_fract_z
_atom_site_U_iso_or_equiv
_atom_site_adp_type
_atom_site_occupancy
C1     C     0.33246   0.08768   0.25091   0.00000  Uiso   1.00
C2     C     0.00042   0.24598   0.25038   0.00000  Uiso   1.00
C3     C     0.19401   0.17474   0.04923   0.00000  Uiso   1.00
C4     C     0.14634   0.12809   0.45880   0.00000  Uiso   1.00
C5     C     0.24197   0.18338   0.02684   0.00000  Uiso   1.00
C6     C     0.09794   0.12102   0.48068   0.00000  Uiso   1.00
C7     C     0.29900   0.02034   0.28668   0.00000  Uiso   1.00
C8     C     0.03532   0.31482   0.21927   0.00000  Uiso   1.00
C9     C     0.29852   0.31023   0.28566   0.00000  Uiso   1.00
C10    C     0.02991   0.02409   0.21531   0.00000  Uiso   1.00
C11    C     0.00070   0.29098   0.25219   0.00000  Uiso   1.00
C12    C     0.33095   0.04327   0.25077   0.00000  Uiso   1.00
C13    C     0.18335   0.14282   0.28053   0.00000  Uiso   1.00
C14    C     0.15028   0.18962   0.21859   0.00000  Uiso   1.00
C15    C     0.13416   0.14156   0.28019   0.00000  Uiso   1.00
C16    C     0.19972   0.19054   0.21845   0.00000  Uiso   1.00
C17    C     0.30646   0.16611   0.33652   0.00000  Uiso   1.00
C18    C     0.02694   0.16579   0.16362   0.00000  Uiso   1.00
C19    C     0.29253   0.16595   0.38682   0.00000  Uiso   1.00
C20    C     0.04192   0.15961   0.11422   0.00000  Uiso   1.00
C21    C     0.30779   0.18147   0.45923   0.00000  Uiso   1.00
C22    C     0.02988   0.13048   0.04549   0.00000  Uiso   1.00
C23    C     0.32559   0.17745   0.41193   0.00000  Uiso   1.00
C24    C     0.01120   0.14149   0.09047   0.00000  Uiso   1.00
C25    C     0.24453   0.15558   0.40936   0.00000  Uiso   1.00
C26    C     0.09050   0.16713   0.09205   0.00000  Uiso   1.00
C27    C     0.22710   0.15838   0.45674   0.00000  Uiso   1.00
C28    C     0.11068   0.15372   0.04793   0.00000  Uiso   1.00
C29    C     0.25903   0.17405   0.48106   0.00000  Uiso   1.00
C30    C     0.07938   0.13506   0.02455   0.00000  Uiso   1.00
C31    C     0.17824   0.14841   0.48009   0.00000  Uiso   1.00
C32    C     0.16080   0.15902   0.02626   0.00000  Uiso   1.00
Cu33   Cu    0.04689   0.16667   0.25000   0.00000  Uiso   1.00
Cu34   Cu    0.28645   0.16666   0.25000   0.00000  Uiso   1.00
H35    H     0.11188   0.18349   0.11054   0.00000  Uiso   1.00
H36    H     0.22069   0.14712   0.38874   0.00000  Uiso   1.00
H37    H     0.33128   0.19100   0.47977   0.00000  Uiso   1.00
H38    H     0.00538   0.11715   0.02764   0.00000  Uiso   1.00
H39    H     0.18443   0.18029   0.08500   0.00000  Uiso   1.00
H40    H     0.15795   0.11660   0.42507   0.00000  Uiso   1.00
H41    H     0.19572   0.12369   0.30471   0.00000  Uiso   1.00
H42    H     0.13811   0.20708   0.19310   0.00000  Uiso   1.00
N43    N     0.11736   0.16668   0.24999   0.00000  Uiso   1.00
N44    N     0.21597   0.16666   0.25001   0.00000  Uiso   1.00
O45    O     0.03958   0.10655   0.25000   0.00000  Uiso   1.00
O46    O     0.29375   0.22678   0.25000   0.00000  Uiso   1.00
O47    O     0.29372   0.10654   0.25001   0.00000  Uiso   1.00
O48    O     0.03961   0.22679   0.25000   0.00000  Uiso   1.00
O49    O     0.01852   0.16668   0.31492   0.00000  Uiso   1.00
O50    O     0.31481   0.16666   0.18509   0.00000  Uiso   1.00
O51    O     0.27267   0.16667   0.31492   0.00000  Uiso   1.00
O52    O     0.06067   0.16667   0.18508   0.00000  Uiso   1.00
O53    O     0.27298   0.20052   0.05004   0.00000  Uiso   1.00
C54    C     0.26307   0.24257   0.05778   0.00000  Uiso   1.00
H55    H     0.28348   0.25279   0.08213   0.00000  Uiso   1.00
H56    H     0.22439   0.24720   0.07408   0.00000  Uiso   1.00
C57    C     0.27995   0.26983   0.01418   0.00000  Uiso   1.00
H58    H     0.31842   0.26450   0.49815   0.00000  Uiso   1.00
H59    H     0.25852   0.26192   0.48977   0.00000  Uiso   1.00
C60    C     0.27408   0.31538   0.02426   0.00000  Uiso   1.00
H61    H     0.23638   0.32119   0.04260   0.00000  Uiso   1.00
H62    H     0.28302   0.00076   0.49196   0.00000  Uiso   1.00
H63    H     0.29869   0.32520   0.04507   0.00000  Uiso   1.00
O64    O     0.06799   0.10365   0.45675   0.00000  Uiso   1.00
C65    C     0.06500   0.06036   0.46405   0.00000  Uiso   1.00
H66    H     0.02803   0.05161   0.48429   0.00000  Uiso   1.00
H67    H     0.09072   0.04788   0.48280   0.00000  Uiso   1.00
C68    C     0.07423   0.04035   0.41806   0.00000  Uiso   1.00
H69    H     0.05061   0.05400   0.39815   0.00000  Uiso   1.00
H70    H     0.11230   0.04666   0.39918   0.00000  Uiso   1.00
C71    C     0.06439   0.32728   0.42319   0.00000  Uiso   1.00
H72    H     0.08438   0.31324   0.44630   0.00000  Uiso   1.00
H73    H     0.07599   0.31340   0.38942   0.00000  Uiso   1.00
H74    H     0.02539   0.32042   0.43705   0.00000  Uiso   1.00
O75    O     0.29601   0.13507   0.11046   0.00000  Uiso   1.00
C76    C     0.28655   0.09329   0.12512   0.00000  Uiso   1.00
H77    H     0.28373   0.09077   0.16218   0.00000  Uiso   1.00
H78    H     0.31476   0.07198   0.10772   0.00000  Uiso   1.00
C79    C     0.23878   0.07890   0.11667   0.00000  Uiso   1.00
H80    H     0.20978   0.09920   0.13405   0.00000  Uiso   1.00
H81    H     0.24149   0.08090   0.07959   0.00000  Uiso   1.00
C82    C     0.22618   0.03452   0.13426   0.00000  Uiso   1.00
H83    H     0.25635   0.01432   0.11984   0.00000  Uiso   1.00
H84    H     0.19399   0.02312   0.12396   0.00000  Uiso   1.00
H85    H     0.21867   0.03269   0.17190   0.00000  Uiso   1.00
O86    O     0.04077   0.18330   0.38871   0.00000  Uiso   1.00
C87    C     0.06877   0.20567   0.41241   0.00000  Uiso   1.00
H88    H     0.07081   0.18836   0.44368   0.00000  Uiso   1.00
H89    H     0.05370   0.23652   0.42071   0.00000  Uiso   1.00
C90    C     0.12030   0.21088   0.38319   0.00000  Uiso   1.00
H91    H     0.13466   0.18007   0.37374   0.00000  Uiso   1.00
H92    H     0.12084   0.22898   0.35151   0.00000  Uiso   1.00
C93    C     0.15253   0.23236   0.40900   0.00000  Uiso   1.00
H94    H     0.14334   0.26514   0.41328   0.00000  Uiso   1.00
H95    H     0.19072   0.23053   0.38994   0.00000  Uiso   1.00
H96    H     0.14821   0.21759   0.44312   0.00000  Uiso   1.00
C97    C     0.26732   0.04207   0.32701   0.00000  Uiso   1.00
C98    C     0.29411   0.04906   0.36360   0.00000  Uiso   1.00
H99    H     0.30603   0.01940   0.37539   0.00000  Uiso   1.00
H100   H     0.32597   0.06986   0.35005   0.00000  Uiso   1.00
H101   H     0.27009   0.06357   0.39307   0.00000  Uiso   1.00
H102   H     0.25483   0.07192   0.31718   0.00000  Uiso   1.00
H103   H     0.23300   0.02498   0.34213   0.00000  Uiso   1.00
C104   C     0.08345   0.29727   0.19646   0.00000  Uiso   1.00
C105   C     0.11580   0.29898   0.22966   0.00000  Uiso   1.00
H106   H     0.09872   0.31433   0.26161   0.00000  Uiso   1.00
H107   H     0.12436   0.26761   0.23952   0.00000  Uiso   1.00
H108   H     0.14945   0.31684   0.21391   0.00000  Uiso   1.00
H109   H     0.07974   0.26571   0.18480   0.00000  Uiso   1.00
H110   H     0.10169   0.31429   0.16451   0.00000  Uiso   1.00
C111   C     0.26050   0.28493   0.32082   0.00000  Uiso   1.00
C112   C     0.21211   0.28489   0.30813   0.00000  Uiso   1.00
H113   H     0.21072   0.30998   0.28292   0.00000  Uiso   1.00
H114   H     0.20540   0.25499   0.29377   0.00000  Uiso   1.00
H115   H     0.18254   0.28986   0.33853   0.00000  Uiso   1.00
H116   H     0.27096   0.25286   0.32542   0.00000  Uiso   1.00
H117   H     0.25661   0.29685   0.35525   0.00000  Uiso   1.00
C118   C     0.05354   0.04786   0.17072   0.00000  Uiso   1.00
C119   C     0.10422   0.06538   0.16760   0.00000  Uiso   1.00
H120   H     0.10330   0.09549   0.18361   0.00000  Uiso   1.00
H121   H     0.12503   0.04447   0.18394   0.00000  Uiso   1.00
H122   H     0.12355   0.07052   0.13130   0.00000  Uiso   1.00
H123   H     0.05461   0.02755   0.14179   0.00000  Uiso   1.00
H124   H     0.03100   0.07357   0.16488   0.00000  Uiso   1.00
C125   C     0.10325   0.10965   0.31261   0.00000  Uiso   1.00
C126   C     0.11629   0.06600   0.29756   0.00000  Uiso   1.00
H127   H     0.08961   0.04333   0.31830   0.00000  Uiso   1.00
H128   H     0.11604   0.06286   0.26149   0.00000  Uiso   1.00
H129   H     0.15241   0.05849   0.30174   0.00000  Uiso   1.00
H130   H     0.10855   0.11335   0.34720   0.00000  Uiso   1.00
H131   H     0.06489   0.11248   0.31627   0.00000  Uiso   1.00
C132   C     0.23318   0.21637   0.18049   0.00000  Uiso   1.00
C133   C     0.21885   0.26092   0.17770   0.00000  Uiso   1.00
H134   H     0.18677   0.26322   0.16398   0.00000  Uiso   1.00
H135   H     0.21278   0.27436   0.21159   0.00000  Uiso   1.00
H136   H     0.24853   0.27915   0.15436   0.00000  Uiso   1.00
H137   H     0.26947   0.21925   0.18435   0.00000  Uiso   1.00
H138   H     0.23468   0.20186   0.14765   0.00000  Uiso   1.00
C139   C     0.66580   0.08768   0.25091   0.00000  Uiso   1.00
C140   C     0.33375   0.24598   0.25038   0.00000  Uiso   1.00
C141   C     0.52735   0.17474   0.04923   0.00000  Uiso   1.00
C142   C     0.47968   0.12809   0.45880   0.00000  Uiso   1.00
C143   C     0.57530   0.18338   0.02684   0.00000  Uiso   1.00
C144   C     0.43127   0.12102   0.48068   0.00000  Uiso   1.00
C145   C     0.63233   0.02034   0.28668   0.00000  Uiso   1.00
C146   C     0.36866   0.31482   0.21927   0.00000  Uiso   1.00
C147   C     0.63185   0.31023   0.28566   0.00000  Uiso   1.00
C148   C     0.36325   0.02409   0.21531   0.00000  Uiso   1.00
C149   C     0.33403   0.29098   0.25219   0.00000  Uiso   1.00
C150   C     0.66428   0.04327   0.25077   0.00000  Uiso   1.00
C151   C     0.51669   0.14282   0.28053   0.00000  Uiso   1.00
C152   C     0.48362   0.18962   0.21859   0.00000  Uiso   1.00
C153   C     0.46750   0.14156   0.28019   0.00000  Uiso   1.00
C154   C     0.53305   0.19054   0.21845   0.00000  Uiso   1.00
C155   C     0.63980   0.16611   0.33652   0.00000  Uiso   1.00
C156   C     0.36028   0.16579   0.16362   0.00000  Uiso   1.00
C157   C     0.62586   0.16595   0.38682   0.00000  Uiso   1.00
C158   C     0.37526   0.15961   0.11422   0.00000  Uiso   1.00
C159   C     0.64112   0.18147   0.45923   0.00000  Uiso   1.00
C160   C     0.36321   0.13048   0.04549   0.00000  Uiso   1.00
C161   C     0.65892   0.17745   0.41193   0.00000  Uiso   1.00
C162   C     0.34454   0.14149   0.09047   0.00000  Uiso   1.00
C163   C     0.57786   0.15558   0.40936   0.00000  Uiso   1.00
C164   C     0.42383   0.16713   0.09205   0.00000  Uiso   1.00
C165   C     0.56043   0.15838   0.45674   0.00000  Uiso   1.00
C166   C     0.44401   0.15372   0.04793   0.00000  Uiso   1.00
C167   C     0.59237   0.17405   0.48106   0.00000  Uiso   1.00
C168   C     0.41271   0.13506   0.02455   0.00000  Uiso   1.00
C169   C     0.51158   0.14841   0.48009   0.00000  Uiso   1.00
C170   C     0.49414   0.15902   0.02626   0.00000  Uiso   1.00
Cu171  Cu    0.38022   0.16667   0.25000   0.00000  Uiso   1.00
Cu172  Cu    0.61978   0.16666   0.25000   0.00000  Uiso   1.00
H173   H     0.44521   0.18349   0.11054   0.00000  Uiso   1.00
H174   H     0.55402   0.14712   0.38874   0.00000  Uiso   1.00
H175   H     0.66462   0.19100   0.47977   0.00000  Uiso   1.00
H176   H     0.33871   0.11715   0.02764   0.00000  Uiso   1.00
H177   H     0.51776   0.18029   0.08500   0.00000  Uiso   1.00
H178   H     0.49128   0.11660   0.42507   0.00000  Uiso   1.00
H179   H     0.52905   0.12369   0.30471   0.00000  Uiso   1.00
H180   H     0.47144   0.20708   0.19310   0.00000  Uiso   1.00
N181   N     0.45069   0.16668   0.24999   0.00000  Uiso   1.00
N182   N     0.54931   0.16666   0.25001   0.00000  Uiso   1.00
O183   O     0.37291   0.10655   0.25000   0.00000  Uiso   1.00
O184   O     0.62709   0.22678   0.25000   0.00000  Uiso   1.00
O185   O     0.62706   0.10654   0.25001   0.00000  Uiso   1.00
O186   O     0.37294   0.22679   0.25000   0.00000  Uiso   1.00
O187   O     0.35186   0.16668   0.31492   0.00000  Uiso   1.00
O188   O     0.64814   0.16666   0.18509   0.00000  Uiso   1.00
O189   O     0.60600   0.16667   0.31492   0.00000  Uiso   1.00
O190   O     0.39400   0.16667   0.18508   0.00000  Uiso   1.00
O191   O     0.60631   0.20052   0.05004   0.00000  Uiso   1.00
C192   C     0.59641   0.24257   0.05778   0.00000  Uiso   1.00
H193   H     0.61682   0.25279   0.08213   0.00000  Uiso   1.00
H194   H     0.55772   0.24720   0.07408   0.00000  Uiso   1.00
C195   C     0.61328   0.26983   0.01418   0.00000  Uiso   1.00
H196   H     0.65176   0.26450   0.49815   0.00000  Uiso   1.00
H197   H     0.59185   0.26192   0.48977   0.00000  Uiso   1.00
C198   C     0.60741   0.31538   0.02426   0.00000  Uiso   1.00
H199   H     0.56971   0.32119   0.04260   0.00000  Uiso   1.00
H200   H     0.61636   0.00076   0.49196   0.00000  Uiso   1.00
H201   H     0.63202   0.32520   0.04507   0.00000  Uiso   1.00
O202   O     0.40132   0.10365   0.45675   0.00000  Uiso   1.00
C203   C     0.39833   0.06036   0.46405   0.00000  Uiso   1.00
H204   H     0.36136   0.05161   0.48429   0.00000  Uiso   1.00
H205   H     0.42405   0.04788   0.48280   0.00000  Uiso   1.00
C206   C     0.40757   0.04035   0.41806   0.00000  Uiso   1.00
H207   H     0.38395   0.05400   0.39815   0.00000  Uiso   1.00
H208   H     0.44564   0.04666   0.39918   0.00000  Uiso   1.00
C209   C     0.39773   0.32728   0.42319   0.00000  Uiso   1.00
H210   H     0.41771   0.31324   0.44630   0.00000  Uiso   1.00
H211   H     0.40932   0.31340   0.38942   0.00000  Uiso   1.00
H212   H     0.35872   0.32042   0.43705   0.00000  Uiso   1.00
O213   O     0.62934   0.13507   0.11046   0.00000  Uiso   1.00
C214   C     0.61988   0.09329   0.12512   0.00000  Uiso   1.00
H215   H     0.61706   0.09077   0.16218   0.00000  Uiso   1.00
H216   H     0.64809   0.07198   0.10772   0.00000  Uiso   1.00
C217   C     0.57211   0.07890   0.11667   0.00000  Uiso   1.00
H218   H     0.54312   0.09920   0.13405   0.00000  Uiso   1.00
H219   H     0.57482   0.08090   0.07959   0.00000  Uiso   1.00
C220   C     0.55951   0.03452   0.13426   0.00000  Uiso   1.00
H221   H     0.58968   0.01432   0.11984   0.00000  Uiso   1.00
H222   H     0.52732   0.02312   0.12396   0.00000  Uiso   1.00
H223   H     0.55200   0.03269   0.17190   0.00000  Uiso   1.00
O224   O     0.37411   0.18330   0.38871   0.00000  Uiso   1.00
C225   C     0.40211   0.20567   0.41241   0.00000  Uiso   1.00
H226   H     0.40415   0.18836   0.44368   0.00000  Uiso   1.00
H227   H     0.38704   0.23652   0.42071   0.00000  Uiso   1.00
C228   C     0.45363   0.21088   0.38319   0.00000  Uiso   1.00
H229   H     0.46800   0.18007   0.37374   0.00000  Uiso   1.00
H230   H     0.45417   0.22898   0.35151   0.00000  Uiso   1.00
C231   C     0.48586   0.23236   0.40900   0.00000  Uiso   1.00
H232   H     0.47667   0.26514   0.41328   0.00000  Uiso   1.00
H233   H     0.52405   0.23053   0.38994   0.00000  Uiso   1.00
H234   H     0.48155   0.21759   0.44312   0.00000  Uiso   1.00
C235   C     0.60065   0.04207   0.32701   0.00000  Uiso   1.00
C236   C     0.62744   0.04906   0.36360   0.00000  Uiso   1.00
H237   H     0.63936   0.01940   0.37539   0.00000  Uiso   1.00
H238   H     0.65931   0.06986   0.35005   0.00000  Uiso   1.00
H239   H     0.60342   0.06357   0.39307   0.00000  Uiso   1.00
H240   H     0.58816   0.07192   0.31718   0.00000  Uiso   1.00
H241   H     0.56634   0.02498   0.34213   0.00000  Uiso   1.00
C242   C     0.41679   0.29727   0.19646   0.00000  Uiso   1.00
C243   C     0.44913   0.29898   0.22966   0.00000  Uiso   1.00
H244   H     0.43205   0.31433   0.26161   0.00000  Uiso   1.00
H245   H     0.45769   0.26761   0.23952   0.00000  Uiso   1.00
H246   H     0.48279   0.31684   0.21391   0.00000  Uiso   1.00
H247   H     0.41307   0.26571   0.18480   0.00000  Uiso   1.00
H248   H     0.43503   0.31429   0.16451   0.00000  Uiso   1.00
C249   C     0.59383   0.28493   0.32082   0.00000  Uiso   1.00
C250   C     0.54544   0.28489   0.30813   0.00000  Uiso   1.00
H251   H     0.54406   0.30998   0.28292   0.00000  Uiso   1.00
H252   H     0.53873   0.25499   0.29377   0.00000  Uiso   1.00
H253   H     0.51587   0.28986   0.33853   0.00000  Uiso   1.00
H254   H     0.60429   0.25286   0.32542   0.00000  Uiso   1.00
H255   H     0.58995   0.29685   0.35525   0.00000  Uiso   1.00
C256   C     0.38688   0.04786   0.17072   0.00000  Uiso   1.00
C257   C     0.43755   0.06538   0.16760   0.00000  Uiso   1.00
H258   H     0.43664   0.09549   0.18361   0.00000  Uiso   1.00
H259   H     0.45836   0.04447   0.18394   0.00000  Uiso   1.00
H260   H     0.45688   0.07052   0.13130   0.00000  Uiso   1.00
H261   H     0.38794   0.02755   0.14179   0.00000  Uiso   1.00
H262   H     0.36434   0.07357   0.16488   0.00000  Uiso   1.00
C263   C     0.43658   0.10965   0.31261   0.00000  Uiso   1.00
C264   C     0.44962   0.06600   0.29756   0.00000  Uiso   1.00
H265   H     0.42294   0.04333   0.31830   0.00000  Uiso   1.00
H266   H     0.44937   0.06286   0.26149   0.00000  Uiso   1.00
H267   H     0.48575   0.05849   0.30174   0.00000  Uiso   1.00
H268   H     0.44188   0.11335   0.34720   0.00000  Uiso   1.00
H269   H     0.39822   0.11248   0.31627   0.00000  Uiso   1.00
C270   C     0.56652   0.21637   0.18049   0.00000  Uiso   1.00
C271   C     0.55218   0.26092   0.17770   0.00000  Uiso   1.00
H272   H     0.52010   0.26322   0.16398   0.00000  Uiso   1.00
H273   H     0.54611   0.27436   0.21159   0.00000  Uiso   1.00
H274   H     0.58187   0.27915   0.15436   0.00000  Uiso   1.00
H275   H     0.60280   0.21925   0.18435   0.00000  Uiso   1.00
H276   H     0.56801   0.20186   0.14765   0.00000  Uiso   1.00
C277   C     0.99913   0.08768   0.25091   0.00000  Uiso   1.00
C278   C     0.66708   0.24598   0.25038   0.00000  Uiso   1.00
C279   C     0.86068   0.17474   0.04923   0.00000  Uiso   1.00
C280   C     0.81301   0.12809   0.45880   0.00000  Uiso   1.00
C281   C     0.90863   0.18338   0.02684   0.00000  Uiso   1.00
C282   C     0.76460   0.12102   0.48068   0.00000  Uiso   1.00
C283   C     0.96567   0.02034   0.28668   0.00000  Uiso   1.00
C284   C     0.70199   0.31482   0.21927   0.00000  Uiso   1.00
C285   C     0.96519   0.31023   0.28566   0.00000  Uiso   1.00
C286   C     0.69658   0.02409   0.21531   0.00000  Uiso   1.00
C287   C     0.66736   0.29098   0.25219   0.00000  Uiso   1.00
C288   C     0.99762   0.04327   0.25077   0.00000  Uiso   1.00
C289   C     0.85002   0.14282   0.28053   0.00000  Uiso   1.00
C290   C     0.81695   0.18962   0.21859   0.00000  Uiso   1.00
C291   C     0.80083   0.14156   0.28019   0.00000  Uiso   1.00
C292   C     0.86638   0.19054   0.21845   0.00000  Uiso   1.00
C293   C     0.97313   0.16611   0.33652   0.00000  Uiso   1.00
C294   C     0.69361   0.16579   0.16362   0.00000  Uiso   1.00
C295   C     0.95919   0.16595   0.38682   0.00000  Uiso   1.00
C296   C     0.70859   0.15961   0.11422   0.00000  Uiso   1.00
C297   C     0.97445   0.18147   0.45923   0.00000  Uiso   1.00
C298   C     0.69654   0.13048   0.04549   0.00000  Uiso   1.00
C299   C     0.99225   0.17745   0.41193   0.00000  Uiso   1.00
C300   C     0.67787   0.14149   0.09047   0.00000  Uiso   1.00
C301   C     0.91119   0.15558   0.40936   0.00000  Uiso   1.00
C302   C     0.75716   0.16713   0.09205   0.00000  Uiso   1.00
C303   C     0.89376   0.15838   0.45674   0.00000  Uiso   1.00
C304   C     0.77735   0.15372   0.04793   0.00000  Uiso   1.00
C305   C     0.92570   0.17405   0.48106   0.00000  Uiso   1.00
C306   C     0.74605   0.13506   0.02455   0.00000  Uiso   1.00
C307   C     0.84491   0.14841   0.48009   0.00000  Uiso   1.00
C308   C     0.82747   0.15902   0.02626   0.00000  Uiso   1.00
Cu309  Cu    0.71355   0.16667   0.25000   0.00000  Uiso   1.00
Cu310  Cu    0.95311   0.16666   0.25000   0.00000  Uiso   1.00
H311   H     0.77855   0.18349   0.11054   0.00000  Uiso   1.00
H312   H     0.88736   0.14712   0.38874   0.00000  Uiso   1.00
H313   H     0.99795   0.19100   0.47977   0.00000  Uiso   1.00
H314   H     0.67205   0.11715   0.02764   0.00000  Uiso   1.00
H315   H     0.85110   0.18029   0.08500   0.00000  Uiso   1.00
H316   H     0.82461   0.11660   0.42507   0.00000  Uiso   1.00
H317   H     0.86239   0.12369   0.30471   0.00000  Uiso   1.00
H318   H     0.80478   0.20708   0.19310   0.00000  Uiso   1.00
N319   N     0.78403   0.16668   0.24999   0.00000  Uiso   1.00
N320   N     0.88264   0.16666   0.25001   0.00000  Uiso   1.00
O321   O     0.70625   0.10655   0.25000   0.00000  Uiso   1.00
O322   O     0.96042   0.22678   0.25000   0.00000  Uiso   1.00
O323   O     0.96039   0.10654   0.25001   0.00000  Uiso   1.00
O324   O     0.70628   0.22679   0.25000   0.00000  Uiso   1.00
O325   O     0.68519   0.16668   0.31492   0.00000  Uiso   1.00
O326   O     0.98148   0.16666   0.18509   0.00000  Uiso   1.00
O327   O     0.93933   0.16667   0.31492   0.00000  Uiso   1.00
O328   O     0.72733   0.16667   0.18508   0.00000  Uiso   1.00
O329   O     0.93964   0.20052   0.05004   0.00000  Uiso   1.00
C330   C     0.92974   0.24257   0.05778   0.00000  Uiso   1.00
H331   H     0.95015   0.25279   0.08213   0.00000  Uiso   1.00
H332   H     0.89105   0.24720   0.07408   0.00000  Uiso   1.00
C333   C     0.94662   0.26983   0.01418   0.00000  Uiso   1.00
H334   H     0.98509   0.26450   0.49815   0.00000  Uiso   1.00
H335   H     0.92519   0.26192   0.48977   0.00000  Uiso   1.00
C336   C     0.94075   0.31538   0.02426   0.00000  Uiso   1.00
H337   H     0.90305   0.32119   0.04260   0.00000  Uiso   1.00
H338   H     0.94969   0.00076   0.49196   0.00000  Uiso   1.00
H339   H     0.96536   0.32520   0.04507   0.00000  Uiso   1.00
O340   O     0.73465   0.10365   0.45675   0.00000  Uiso   1.00
C341   C     0.73167   0.06036   0.46405   0.00000  Uiso   1.00
H342   H     0.69470   0.05161   0.48429   0.00000  Uiso   1.00
H343   H     0.75738   0.04788   0.48280   0.00000  Uiso   1.00
C344   C     0.74090   0.04035   0.41806   0.00000  Uiso   1.00
H345   H     0.71728   0.05400   0.39815   0.00000  Uiso   1.00
H346   H     0.77897   0.04666   0.39918   0.00000  Uiso   1.00
C347   C     0.73106   0.32728   0.42319   0.00000  Uiso   1.00
H348   H     0.75105   0.31324   0.44630   0.00000  Uiso   1.00
H349   H     0.74266   0.31340   0.38942   0.00000  Uiso   1.00
H350   H     0.69205   0.32042   0.43705   0.00000  Uiso   1.00
O351   O     0.96267   0.13507   0.11046   0.00000  Uiso   1.00
C352   C     0.95321   0.09329   0.12512   0.00000  Uiso   1.00
H353   H     0.95039   0.09077   0.16218   0.00000  Uiso   1.00
H354   H     0.98142   0.07198   0.10772   0.00000  Uiso   1.00
C355   C     0.90545   0.07890   0.11667   0.00000  Uiso   1.00
H356   H     0.87645   0.09920   0.13405   0.00000  Uiso   1.00
H357   H     0.90815   0.08090   0.07959   0.00000  Uiso   1.00
C358   C     0.89284   0.03452   0.13426   0.00000  Uiso   1.00
H359   H     0.92302   0.01432   0.11984   0.00000  Uiso   1.00
H360   H     0.86065   0.02312   0.12396   0.00000  Uiso   1.00
H361   H     0.88534   0.03269   0.17190   0.00000  Uiso   1.00
O362   O     0.70744   0.18330   0.38871   0.00000  Uiso   1.00
C363   C     0.73544   0.20567   0.41241   0.00000  Uiso   1.00
H364   H     0.73748   0.18836   0.44368   0.00000  Uiso   1.00
H365   H     0.72037   0.23652   0.42071   0.00000  Uiso   1.00
C366   C     0.78696   0.21088   0.38319   0.00000  Uiso   1.00
H367   H     0.80133   0.18007   0.37374   0.00000  Uiso   1.00
H368   H     0.78750   0.22898   0.35151   0.00000  Uiso   1.00
C369   C     0.81919   0.23236   0.40900   0.00000  Uiso   1.00
H370   H     0.81000   0.26514   0.41328   0.00000  Uiso   1.00
H371   H     0.85739   0.23053   0.38994   0.00000  Uiso   1.00
H372   H     0.81488   0.21759   0.44312   0.00000  Uiso   1.00
C373   C     0.93399   0.04207   0.32701   0.00000  Uiso   1.00
C374   C     0.96077   0.04906   0.36360   0.00000  Uiso   1.00
H375   H     0.97269   0.01940   0.37539   0.00000  Uiso   1.00
H376   H     0.99264   0.06986   0.35005   0.00000  Uiso   1.00
H377   H     0.93675   0.06357   0.39307   0.00000  Uiso   1.00
H378   H     0.92149   0.07192   0.31718   0.00000  Uiso   1.00
H379   H     0.89967   0.02498   0.34213   0.00000  Uiso   1.00
C380   C     0.75012   0.29727   0.19646   0.00000  Uiso   1.00
C381   C     0.78247   0.29898   0.22966   0.00000  Uiso   1.00
H382   H     0.76539   0.31433   0.26161   0.00000  Uiso   1.00
H383   H     0.79103   0.26761   0.23952   0.00000  Uiso   1.00
H384   H     0.81612   0.31684   0.21391   0.00000  Uiso   1.00
H385   H     0.74641   0.26571   0.18480   0.00000  Uiso   1.00
H386   H     0.76836   0.31429   0.16451   0.00000  Uiso   1.00
C387   C     0.92717   0.28493   0.32082   0.00000  Uiso   1.00
C388   C     0.87878   0.28489   0.30813   0.00000  Uiso   1.00
H389   H     0.87739   0.30998   0.28292   0.00000  Uiso   1.00
H390   H     0.87207   0.25499   0.29377   0.00000  Uiso   1.00
H391   H     0.84920   0.28986   0.33853   0.00000  Uiso   1.00
H392   H     0.93762   0.25286   0.32542   0.00000  Uiso   1.00
H393   H     0.92328   0.29685   0.35525   0.00000  Uiso   1.00
C394   C     0.72021   0.04786   0.17072   0.00000  Uiso   1.00
C395   C     0.77088   0.06538   0.16760   0.00000  Uiso   1.00
H396   H     0.76997   0.09549   0.18361   0.00000  Uiso   1.00
H397   H     0.79169   0.04447   0.18394   0.00000  Uiso   1.00
H398   H     0.79022   0.07052   0.13130   0.00000  Uiso   1.00
H399   H     0.72127   0.02755   0.14179   0.00000  Uiso   1.00
H400   H     0.69767   0.07357   0.16488   0.00000  Uiso   1.00
C401   C     0.76992   0.10965   0.31261   0.00000  Uiso   1.00
C402   C     0.78295   0.06600   0.29756   0.00000  Uiso   1.00
H403   H     0.75627   0.04333   0.31830   0.00000  Uiso   1.00
H404   H     0.78270   0.06286   0.26149   0.00000  Uiso   1.00
H405   H     0.81908   0.05849   0.30174   0.00000  Uiso   1.00
H406   H     0.77521   0.11335   0.34720   0.00000  Uiso   1.00
H407   H     0.73156   0.11248   0.31627   0.00000  Uiso   1.00
C408   C     0.89985   0.21637   0.18049   0.00000  Uiso   1.00
C409   C     0.88551   0.26092   0.17770   0.00000  Uiso   1.00
H410   H     0.85344   0.26322   0.16398   0.00000  Uiso   1.00
H411   H     0.87944   0.27436   0.21159   0.00000  Uiso   1.00
H412   H     0.91520   0.27915   0.15436   0.00000  Uiso   1.00
H413   H     0.93614   0.21925   0.18435   0.00000  Uiso   1.00
H414   H     0.90134   0.20186   0.14765   0.00000  Uiso   1.00
C415   C     0.33246   0.42101   0.25091   0.00000  Uiso   1.00
C416   C     0.00042   0.57932   0.25038   0.00000  Uiso   1.00
C417   C     0.19401   0.50808   0.04923   0.00000  Uiso   1.00
C418   C     0.14634   0.46142   0.45880   0.00000  Uiso   1.00
C419   C     0.24197   0.51671   0.02684   0.00000  Uiso   1.00
C420   C     0.09794   0.45435   0.48068   0.00000  Uiso   1.00
C421   C     0.29900   0.35368   0.28668   0.00000  Uiso   1.00
C422   C     0.03532   0.64815   0.21927   0.00000  Uiso   1.00
C423   C     0.29852   0.64356   0.28566   0.00000  Uiso   1.00
C424   C     0.02991   0.35742   0.21531   0.00000  Uiso   1.00
C425   C     0.00070   0.62431   0.25219   0.00000  Uiso   1.00
C426   C     0.33095   0.37661   0.25077   0.00000  Uiso   1.00
C427   C     0.18335   0.47615   0.28053   0.00000  Uiso   1.00
C428   C     0.15028   0.52296   0.21859   0.00000  Uiso   1.00
C429   C     0.13416   0.47489   0.28019   0.00000  Uiso   1.00
C430   C     0.19972   0.52387   0.21845   0.00000  Uiso   1.00
C431   C     0.30646   0.49945   0.33652   0.00000  Uiso   1.00
C432   C     0.02694   0.49912   0.16362   0.00000  Uiso   1.00
C433   C     0.29253   0.49928   0.38682   0.00000  Uiso   1.00
C434   C     0.04192   0.49294   0.11422   0.00000  Uiso   1.00
C435   C     0.30779   0.51480   0.45923   0.00000  Uiso   1.00
C436   C     0.02988   0.46381   0.04549   0.00000  Uiso   1.00
C437   C     0.32559   0.51079   0.41193   0.00000  Uiso   1.00
C438   C     0.01120   0.47482   0.09047   0.00000  Uiso   1.00
C439   C     0.24453   0.48891   0.40936   0.00000  Uiso   1.00
C440   C     0.09050   0.50046   0.09205   0.00000  Uiso   1.00
C441   C     0.22710   0.49171   0.45674   0.00000  Uiso   1.00
C442   C     0.11068   0.48705   0.04793   0.00000  Uiso   1.00
C443   C     0.25903   0.50739   0.48106   0.00000  Uiso   1.00
C444   C     0.07938   0.46840   0.02455   0.00000  Uiso   1.00
C445   C     0.17824   0.48175   0.48009   0.00000  Uiso   1.00
C446   C     0.16080   0.49235   0.02626   0.00000  Uiso   1.00
Cu447  Cu    0.04689   0.50001   0.25000   0.00000  Uiso   1.00
Cu448  Cu    0.28645   0.49999   0.25000   0.00000  Uiso   1.00
H449   H     0.11188   0.51682   0.11054   0.00000  Uiso   1.00
H450   H     0.22069   0.48045   0.38874   0.00000  Uiso   1.00
H451   H     0.33128   0.52433   0.47977   0.00000  Uiso   1.00
H452   H     0.00538   0.45049   0.02764   0.00000  Uiso   1.00
H453   H     0.18443   0.51363   0.08500   0.00000  Uiso   1.00
H454   H     0.15795   0.44994   0.42507   0.00000  Uiso   1.00
H455   H     0.19572   0.45703   0.30471   0.00000  Uiso   1.00
H456   H     0.13811   0.54042   0.19310   0.00000  Uiso   1.00
N457   N     0.11736   0.50001   0.24999   0.00000  Uiso   1.00
N458   N     0.21597   0.49999   0.25001   0.00000  Uiso   1.00
O459   O     0.03958   0.43989   0.25000   0.00000  Uiso   1.00
O460   O     0.29375   0.56011   0.25000   0.00000  Uiso   1.00
O461   O     0.29372   0.43988   0.25001   0.00000  Uiso   1.00
O462   O     0.03961   0.56012   0.25000   0.00000  Uiso   1.00
O463   O     0.01852   0.50001   0.31492   0.00000  Uiso   1.00
O464   O     0.31481   0.49999   0.18509   0.00000  Uiso   1.00
O465   O     0.27267   0.50000   0.31492   0.00000  Uiso   1.00
O466   O     0.06067   0.50000   0.18508   0.00000  Uiso   1.00
O467   O     0.27298   0.53386   0.05004   0.00000  Uiso   1.00
C468   C     0.26307   0.57591   0.05778   0.00000  Uiso   1.00
H469   H     0.28348   0.58613   0.08213   0.00000  Uiso   1.00
H470   H     0.22439   0.58053   0.07408   0.00000  Uiso   1.00
C471   C     0.27995   0.60316   0.01418   0.00000  Uiso   1.00
H472   H     0.31842   0.59784   0.49815   0.00000  Uiso   1.00
H473   H     0.25852   0.59526   0.48977   0.00000  Uiso   1.00
C474   C     0.27408   0.64871   0.02426   0.00000  Uiso   1.00
H475   H     0.23638   0.65452   0.04260   0.00000  Uiso   1.00
H476   H     0.28302   0.33409   0.49196   0.00000  Uiso   1.00
H477   H     0.29869   0.65853   0.04507   0.00000  Uiso   1.00
O478   O     0.06799   0.43698   0.45675   0.00000  Uiso   1.00
C479   C     0.06500   0.39369   0.46405   0.00000  Uiso   1.00
H480   H     0.02803   0.38495   0.48429   0.00000  Uiso   1.00
H481   H     0.09072   0.38121   0.48280   0.00000  Uiso   1.00
C482   C     0.07423   0.37368   0.41806   0.00000  Uiso   1.00
H483   H     0.05061   0.38734   0.39815   0.00000  Uiso   1.00
H484   H     0.11230   0.38000   0.39918   0.00000  Uiso   1.00
C485   C     0.06439   0.66061   0.42319   0.00000  Uiso   1.00
H486   H     0.08438   0.64657   0.44630   0.00000  Uiso   1.00
H487   H     0.07599   0.64674   0.38942   0.00000  Uiso   1.00
H488   H     0.02539   0.65376   0.43705   0.00000  Uiso   1.00
O489   O     0.29601   0.46840   0.11046   0.00000  Uiso   1.00
C490   C     0.28655   0.42662   0.12512   0.00000  Uiso   1.00
H491   H     0.28373   0.42410   0.16218   0.00000  Uiso   1.00
H492   H     0.31476   0.40531   0.10772   0.00000  Uiso   1.00
C493   C     0.23878   0.41223   0.11667   0.00000  Uiso   1.00
H494   H     0.20978   0.43254   0.13405   0.00000  Uiso   1.00
H495   H     0.24149   0.41423   0.07959   0.00000  Uiso   1.00
C496   C     0.22618   0.36786   0.13426   0.00000  Uiso   1.00
H497   H     0.25635   0.34766   0.11984   0.00000  Uiso   1.00
H498   H     0.19399   0.35645   0.12396   0.00000  Uiso   1.00
H499   H     0.21867   0.36603   0.17190   0.00000  Uiso   1.00
O500   O     0.04077   0.51664   0.38871   0.00000  Uiso   1.00
C501   C     0.06877   0.53900   0.41241   0.00000  Uiso   1.00
H502   H     0.07081   0.52169   0.44368   0.00000  Uiso   1.00
H503   H     0.05370   0.56985   0.42071   0.00000  Uiso   1.00
C504   C     0.12030   0.54421   0.38319   0.00000  Uiso   1.00
H505   H     0.13466   0.51341   0.37374   0.00000  Uiso   1.00
H506   H     0.12084   0.56232   0.35151   0.00000  Uiso   1.00
C507   C     0.15253   0.56569   0.40900   0.00000  Uiso   1.00
H508   H     0.14334   0.59847   0.41328   0.00000  Uiso   1.00
H509   H     0.19072   0.56387   0.38994   0.00000  Uiso   1.00
H510   H     0.14821   0.55093   0.44312   0.00000  Uiso   1.00
C511   C     0.26732   0.37540   0.32701   0.00000  Uiso   1.00
C512   C     0.29411   0.38239   0.36360   0.00000  Uiso   1.00
H513   H     0.30603   0.35274   0.37539   0.00000  Uiso   1.00
H514   H     0.32597   0.40320   0.35005   0.00000  Uiso   1.00
H515   H     0.27009   0.39691   0.39307   0.00000  Uiso   1.00
H516   H     0.25483   0.40526   0.31718   0.00000  Uiso   1.00
H517   H     0.23300   0.35831   0.34213   0.00000  Uiso   1.00
C518   C     0.08345   0.63060   0.19646   0.00000  Uiso   1.00
C519   C     0.11580   0.63231   0.22966   0.00000  Uiso   1.00
H520   H     0.09872   0.64766   0.26161   0.00000  Uiso   1.00
H521   H     0.12436   0.60094   0.23952   0.00000  Uiso   1.00
H522   H     0.14945   0.65018   0.21391   0.00000  Uiso   1.00
H523   H     0.07974   0.59904   0.18480   0.00000  Uiso   1.00
H524   H     0.10169   0.64763   0.16451   0.00000  Uiso   1.00
C525   C     0.26050   0.61827   0.32082   0.00000  Uiso   1.00
C526   C     0.21211   0.61822   0.30813   0.00000  Uiso   1.00
H527   H     0.21072   0.64331   0.28292   0.00000  Uiso   1.00
H528   H     0.20540   0.58832   0.29377   0.00000  Uiso   1.00
H529   H     0.18254   0.62319   0.33853   0.00000  Uiso   1.00
H530   H     0.27096   0.58619   0.32542   0.00000  Uiso   1.00
H531   H     0.25661   0.63019   0.35525   0.00000  Uiso   1.00
C532   C     0.05354   0.38119   0.17072   0.00000  Uiso   1.00
C533   C     0.10422   0.39871   0.16760   0.00000  Uiso   1.00
H534   H     0.10330   0.42882   0.18361   0.00000  Uiso   1.00
H535   H     0.12503   0.37780   0.18394   0.00000  Uiso   1.00
H536   H     0.12355   0.40385   0.13130   0.00000  Uiso   1.00
H537   H     0.05461   0.36088   0.14179   0.00000  Uiso   1.00
H538   H     0.03100   0.40691   0.16488   0.00000  Uiso   1.00
C539   C     0.10325   0.44298   0.31261   0.00000  Uiso   1.00
C540   C     0.11629   0.39933   0.29756   0.00000  Uiso   1.00
H541   H     0.08961   0.37667   0.31830   0.00000  Uiso   1.00
H542   H     0.11604   0.39619   0.26149   0.00000  Uiso   1.00
H543   H     0.15241   0.39183   0.30174   0.00000  Uiso   1.00
H544   H     0.10855   0.44668   0.34720   0.00000  Uiso   1.00
H545   H     0.06489   0.44581   0.31627   0.00000  Uiso   1.00
C546   C     0.23318   0.54971   0.18049   0.00000  Uiso   1.00
C547   C     0.21885   0.59426   0.17770   0.00000  Uiso   1.00
H548   H     0.18677   0.59655   0.16398   0.00000  Uiso   1.00
H549   H     0.21278   0.60770   0.21159   0.00000  Uiso   1.00
H550   H     0.24853   0.61248   0.15436   0.00000  Uiso   1.00
H551   H     0.26947   0.55258   0.18435   0.00000  Uiso   1.00
H552   H     0.23468   0.53520   0.14765   0.00000  Uiso   1.00
C553   C     0.66580   0.42101   0.25091   0.00000  Uiso   1.00
C554   C     0.33375   0.57932   0.25038   0.00000  Uiso   1.00
C555   C     0.52735   0.50808   0.04923   0.00000  Uiso   1.00
C556   C     0.47968   0.46142   0.45880   0.00000  Uiso   1.00
C557   C     0.57530   0.51671   0.02684   0.00000  Uiso   1.00
C558   C     0.43127   0.45435   0.48068   0.00000  Uiso   1.00
C559   C     0.63233   0.35368   0.28668   0.00000  Uiso   1.00
C560   C     0.36866   0.64815   0.21927   0.00000  Uiso   1.00
C561   C     0.63185   0.64356   0.28566   0.00000  Uiso   1.00
C562   C     0.36325   0.35742   0.21531   0.00000  Uiso   1.00
C563   C     0.33403   0.62431   0.25219   0.00000  Uiso   1.00
C564   C     0.66428   0.37661   0.25077   0.00000  Uiso   1.00
C565   C     0.51669   0.47615   0.28053   0.00000  Uiso   1.00
C566   C     0.48362   0.52296   0.21859   0.00000  Uiso   1.00
C567   C     0.46750   0.47489   0.28019   0.00000  Uiso   1.00
C568   C     0.53305   0.52387   0.21845   0.00000  Uiso   1.00
C569   C     0.63980   0.49945   0.33652   0.00000  Uiso   1.00
C570   C     0.36028   0.49912   0.16362   0.00000  Uiso   1.00
C571   C     0.62586   0.49928   0.38682   0.00000  Uiso   1.00
C572   C     0.37526   0.49294   0.11422   0.00000  Uiso   1.00
C573   C     0.64112   0.51480   0.45923   0.00000  Uiso   1.00
C574   C     0.36321   0.46381   0.04549   0.00000  Uiso   1.00
C575   C     0.65892   0.51079   0.41193   0.00000  Uiso   1.00
C576   C     0.34454   0.47482   0.09047   0.00000  Uiso   1.00
C577   C     0.57786   0.48891   0.40936   0.00000  Uiso   1.00
C578   C     0.42383   0.50046   0.09205   0.00000  Uiso   1.00
C579   C     0.56043   0.49171   0.45674   0.00000  Uiso   1.00
C580   C     0.44401   0.48705   0.04793   0.00000  Uiso   1.00
C581   C     0.59237   0.50739   0.48106   0.00000  Uiso   1.00
C582   C     0.41271   0.46840   0.02455   0.00000  Uiso   1.00
C583   C     0.51158   0.48175   0.48009   0.00000  Uiso   1.00
C584   C     0.49414   0.49235   0.02626   0.00000  Uiso   1.00
Cu585  Cu    0.38022   0.50001   0.25000   0.00000  Uiso   1.00
Cu586  Cu    0.61978   0.49999   0.25000   0.00000  Uiso   1.00
H587   H     0.44521   0.51682   0.11054   0.00000  Uiso   1.00
H588   H     0.55402   0.48045   0.38874   0.00000  Uiso   1.00
H589   H     0.66462   0.52433   0.47977   0.00000  Uiso   1.00
H590   H     0.33871   0.45049   0.02764   0.00000  Uiso   1.00
H591   H     0.51776   0.51363   0.08500   0.00000  Uiso   1.00
H592   H     0.49128   0.44994   0.42507   0.00000  Uiso   1.00
H593   H     0.52905   0.45703   0.30471   0.00000  Uiso   1.00
H594   H     0.47144   0.54042   0.19310   0.00000  Uiso   1.00
N595   N     0.45069   0.50001   0.24999   0.00000  Uiso   1.00
N596   N     0.54931   0.49999   0.25001   0.00000  Uiso   1.00
O597   O     0.37291   0.43989   0.25000   0.00000  Uiso   1.00
O598   O     0.62709   0.56011   0.25000   0.00000  Uiso   1.00
O599   O     0.62706   0.43988   0.25001   0.00000  Uiso   1.00
O600   O     0.37294   0.56012   0.25000   0.00000  Uiso   1.00
O601   O     0.35186   0.50001   0.31492   0.00000  Uiso   1.00
O602   O     0.64814   0.49999   0.18509   0.00000  Uiso   1.00
O603   O     0.60600   0.50000   0.31492   0.00000  Uiso   1.00
O604   O     0.39400   0.50000   0.18508   0.00000  Uiso   1.00
O605   O     0.60631   0.53386   0.05004   0.00000  Uiso   1.00
C606   C     0.59641   0.57591   0.05778   0.00000  Uiso   1.00
H607   H     0.61682   0.58613   0.08213   0.00000  Uiso   1.00
H608   H     0.55772   0.58053   0.07408   0.00000  Uiso   1.00
C609   C     0.61328   0.60316   0.01418   0.00000  Uiso   1.00
H610   H     0.65176   0.59784   0.49815   0.00000  Uiso   1.00
H611   H     0.59185   0.59526   0.48977   0.00000  Uiso   1.00
C612   C     0.60741   0.64871   0.02426   0.00000  Uiso   1.00
H613   H     0.56971   0.65452   0.04260   0.00000  Uiso   1.00
H614   H     0.61636   0.33409   0.49196   0.00000  Uiso   1.00
H615   H     0.63202   0.65853   0.04507   0.00000  Uiso   1.00
O616   O     0.40132   0.43698   0.45675   0.00000  Uiso   1.00
C617   C     0.39833   0.39369   0.46405   0.00000  Uiso   1.00
H618   H     0.36136   0.38495   0.48429   0.00000  Uiso   1.00
H619   H     0.42405   0.38121   0.48280   0.00000  Uiso   1.00
C620   C     0.40757   0.37368   0.41806   0.00000  Uiso   1.00
H621   H     0.38395   0.38734   0.39815   0.00000  Uiso   1.00
H622   H     0.44564   0.38000   0.39918   0.00000  Uiso   1.00
C623   C     0.39773   0.66061   0.42319   0.00000  Uiso   1.00
H624   H     0.41771   0.64657   0.44630   0.00000  Uiso   1.00
H625   H     0.40932   0.64674   0.38942   0.00000  Uiso   1.00
H626   H     0.35872   0.65376   0.43705   0.00000  Uiso   1.00
O627   O     0.62934   0.46840   0.11046   0.00000  Uiso   1.00
C628   C     0.61988   0.42662   0.12512   0.00000  Uiso   1.00
H629   H     0.61706   0.42410   0.16218   0.00000  Uiso   1.00
H630   H     0.64809   0.40531   0.10772   0.00000  Uiso   1.00
C631   C     0.57211   0.41223   0.11667   0.00000  Uiso   1.00
H632   H     0.54312   0.43254   0.13405   0.00000  Uiso   1.00
H633   H     0.57482   0.41423   0.07959   0.00000  Uiso   1.00
C634   C     0.55951   0.36786   0.13426   0.00000  Uiso   1.00
H635   H     0.58968   0.34766   0.11984   0.00000  Uiso   1.00
H636   H     0.52732   0.35645   0.12396   0.00000  Uiso   1.00
H637   H     0.55200   0.36603   0.17190   0.00000  Uiso   1.00
O638   O     0.37411   0.51664   0.38871   0.00000  Uiso   1.00
C639   C     0.40211   0.53900   0.41241   0.00000  Uiso   1.00
H640   H     0.40415   0.52169   0.44368   0.00000  Uiso   1.00
H641   H     0.38704   0.56985   0.42071   0.00000  Uiso   1.00
C642   C     0.45363   0.54421   0.38319   0.00000  Uiso   1.00
H643   H     0.46800   0.51341   0.37374   0.00000  Uiso   1.00
H644   H     0.45417   0.56232   0.35151   0.00000  Uiso   1.00
C645   C     0.48586   0.56569   0.40900   0.00000  Uiso   1.00
H646   H     0.47667   0.59847   0.41328   0.00000  Uiso   1.00
H647   H     0.52405   0.56387   0.38994   0.00000  Uiso   1.00
H648   H     0.48155   0.55093   0.44312   0.00000  Uiso   1.00
C649   C     0.60065   0.37540   0.32701   0.00000  Uiso   1.00
C650   C     0.62744   0.38239   0.36360   0.00000  Uiso   1.00
H651   H     0.63936   0.35274   0.37539   0.00000  Uiso   1.00
H652   H     0.65931   0.40320   0.35005   0.00000  Uiso   1.00
H653   H     0.60342   0.39691   0.39307   0.00000  Uiso   1.00
H654   H     0.58816   0.40526   0.31718   0.00000  Uiso   1.00
H655   H     0.56634   0.35831   0.34213   0.00000  Uiso   1.00
C656   C     0.41679   0.63060   0.19646   0.00000  Uiso   1.00
C657   C     0.44913   0.63231   0.22966   0.00000  Uiso   1.00
H658   H     0.43205   0.64766   0.26161   0.00000  Uiso   1.00
H659   H     0.45769   0.60094   0.23952   0.00000  Uiso   1.00
H660   H     0.48279   0.65018   0.21391   0.00000  Uiso   1.00
H661   H     0.41307   0.59904   0.18480   0.00000  Uiso   1.00
H662   H     0.43503   0.64763   0.16451   0.00000  Uiso   1.00
C663   C     0.59383   0.61827   0.32082   0.00000  Uiso   1.00
C664   C     0.54544   0.61822   0.30813   0.00000  Uiso   1.00
H665   H     0.54406   0.64331   0.28292   0.00000  Uiso   1.00
H666   H     0.53873   0.58832   0.29377   0.00000  Uiso   1.00
H667   H     0.51587   0.62319   0.33853   0.00000  Uiso   1.00
H668   H     0.60429   0.58619   0.32542   0.00000  Uiso   1.00
H669   H     0.58995   0.63019   0.35525   0.00000  Uiso   1.00
C670   C     0.38688   0.38119   0.17072   0.00000  Uiso   1.00
C671   C     0.43755   0.39871   0.16760   0.00000  Uiso   1.00
H672   H     0.43664   0.42882   0.18361   0.00000  Uiso   1.00
H673   H     0.45836   0.37780   0.18394   0.00000  Uiso   1.00
H674   H     0.45688   0.40385   0.13130   0.00000  Uiso   1.00
H675   H     0.38794   0.36088   0.14179   0.00000  Uiso   1.00
H676   H     0.36434   0.40691   0.16488   0.00000  Uiso   1.00
C677   C     0.43658   0.44298   0.31261   0.00000  Uiso   1.00
C678   C     0.44962   0.39933   0.29756   0.00000  Uiso   1.00
H679   H     0.42294   0.37667   0.31830   0.00000  Uiso   1.00
H680   H     0.44937   0.39619   0.26149   0.00000  Uiso   1.00
H681   H     0.48575   0.39183   0.30174   0.00000  Uiso   1.00
H682   H     0.44188   0.44668   0.34720   0.00000  Uiso   1.00
H683   H     0.39822   0.44581   0.31627   0.00000  Uiso   1.00
C684   C     0.56652   0.54971   0.18049   0.00000  Uiso   1.00
C685   C     0.55218   0.59426   0.17770   0.00000  Uiso   1.00
H686   H     0.52010   0.59655   0.16398   0.00000  Uiso   1.00
H687   H     0.54611   0.60770   0.21159   0.00000  Uiso   1.00
H688   H     0.58187   0.61248   0.15436   0.00000  Uiso   1.00
H689   H     0.60280   0.55258   0.18435   0.00000  Uiso   1.00
H690   H     0.56801   0.53520   0.14765   0.00000  Uiso   1.00
C691   C     0.99913   0.42101   0.25091   0.00000  Uiso   1.00
C692   C     0.66708   0.57932   0.25038   0.00000  Uiso   1.00
C693   C     0.86068   0.50808   0.04923   0.00000  Uiso   1.00
C694   C     0.81301   0.46142   0.45880   0.00000  Uiso   1.00
C695   C     0.90863   0.51671   0.02684   0.00000  Uiso   1.00
C696   C     0.76460   0.45435   0.48068   0.00000  Uiso   1.00
C697   C     0.96567   0.35368   0.28668   0.00000  Uiso   1.00
C698   C     0.70199   0.64815   0.21927   0.00000  Uiso   1.00
C699   C     0.96519   0.64356   0.28566   0.00000  Uiso   1.00
C700   C     0.69658   0.35742   0.21531   0.00000  Uiso   1.00
C701   C     0.66736   0.62431   0.25219   0.00000  Uiso   1.00
C702   C     0.99762   0.37661   0.25077   0.00000  Uiso   1.00
C703   C     0.85002   0.47615   0.28053   0.00000  Uiso   1.00
C704   C     0.81695   0.52296   0.21859   0.00000  Uiso   1.00
C705   C     0.80083   0.47489   0.28019   0.00000  Uiso   1.00
C706   C     0.86638   0.52387   0.21845   0.00000  Uiso   1.00
C707   C     0.97313   0.49945   0.33652   0.00000  Uiso   1.00
C708   C     0.69361   0.49912   0.16362   0.00000  Uiso   1.00
C709   C     0.95919   0.49928   0.38682   0.00000  Uiso   1.00
C710   C     0.70859   0.49294   0.11422   0.00000  Uiso   1.00
C711   C     0.97445   0.51480   0.45923   0.00000  Uiso   1.00
C712   C     0.69654   0.46381   0.04549   0.00000  Uiso   1.00
C713   C     0.99225   0.51079   0.41193   0.00000  Uiso   1.00
C714   C     0.67787   0.47482   0.09047   0.00000  Uiso   1.00
C715   C     0.91119   0.48891   0.40936   0.00000  Uiso   1.00
C716   C     0.75716   0.50046   0.09205   0.00000  Uiso   1.00
C717   C     0.89376   0.49171   0.45674   0.00000  Uiso   1.00
C718   C     0.77735   0.48705   0.04793   0.00000  Uiso   1.00
C719   C     0.92570   0.50739   0.48106   0.00000  Uiso   1.00
C720   C     0.74605   0.46840   0.02455   0.00000  Uiso   1.00
C721   C     0.84491   0.48175   0.48009   0.00000  Uiso   1.00
C722   C     0.82747   0.49235   0.02626   0.00000  Uiso   1.00
Cu723  Cu    0.71355   0.50001   0.25000   0.00000  Uiso   1.00
Cu724  Cu    0.95311   0.49999   0.25000   0.00000  Uiso   1.00
H725   H     0.77855   0.51682   0.11054   0.00000  Uiso   1.00
H726   H     0.88736   0.48045   0.38874   0.00000  Uiso   1.00
H727   H     0.99795   0.52433   0.47977   0.00000  Uiso   1.00
H728   H     0.67205   0.45049   0.02764   0.00000  Uiso   1.00
H729   H     0.85110   0.51363   0.08500   0.00000  Uiso   1.00
H730   H     0.82461   0.44994   0.42507   0.00000  Uiso   1.00
H731   H     0.86239   0.45703   0.30471   0.00000  Uiso   1.00
H732   H     0.80478   0.54042   0.19310   0.00000  Uiso   1.00
N733   N     0.78403   0.50001   0.24999   0.00000  Uiso   1.00
N734   N     0.88264   0.49999   0.25001   0.00000  Uiso   1.00
O735   O     0.70625   0.43989   0.25000   0.00000  Uiso   1.00
O736   O     0.96042   0.56011   0.25000   0.00000  Uiso   1.00
O737   O     0.96039   0.43988   0.25001   0.00000  Uiso   1.00
O738   O     0.70628   0.56012   0.25000   0.00000  Uiso   1.00
O739   O     0.68519   0.50001   0.31492   0.00000  Uiso   1.00
O740   O     0.98148   0.49999   0.18509   0.00000  Uiso   1.00
O741   O     0.93933   0.50000   0.31492   0.00000  Uiso   1.00
O742   O     0.72733   0.50000   0.18508   0.00000  Uiso   1.00
O743   O     0.93964   0.53386   0.05004   0.00000  Uiso   1.00
C744   C     0.92974   0.57591   0.05778   0.00000  Uiso   1.00
H745   H     0.95015   0.58613   0.08213   0.00000  Uiso   1.00
H746   H     0.89105   0.58053   0.07408   0.00000  Uiso   1.00
C747   C     0.94662   0.60316   0.01418   0.00000  Uiso   1.00
H748   H     0.98509   0.59784   0.49815   0.00000  Uiso   1.00
H749   H     0.92519   0.59526   0.48977   0.00000  Uiso   1.00
C750   C     0.94075   0.64871   0.02426   0.00000  Uiso   1.00
H751   H     0.90305   0.65452   0.04260   0.00000  Uiso   1.00
H752   H     0.94969   0.33409   0.49196   0.00000  Uiso   1.00
H753   H     0.96536   0.65853   0.04507   0.00000  Uiso   1.00
O754   O     0.73465   0.43698   0.45675   0.00000  Uiso   1.00
C755   C     0.73167   0.39369   0.46405   0.00000  Uiso   1.00
H756   H     0.69470   0.38495   0.48429   0.00000  Uiso   1.00
H757   H     0.75738   0.38121   0.48280   0.00000  Uiso   1.00
C758   C     0.74090   0.37368   0.41806   0.00000  Uiso   1.00
H759   H     0.71728   0.38734   0.39815   0.00000  Uiso   1.00
H760   H     0.77897   0.38000   0.39918   0.00000  Uiso   1.00
C761   C     0.73106   0.66061   0.42319   0.00000  Uiso   1.00
H762   H     0.75105   0.64657   0.44630   0.00000  Uiso   1.00
H763   H     0.74266   0.64674   0.38942   0.00000  Uiso   1.00
H764   H     0.69205   0.65376   0.43705   0.00000  Uiso   1.00
O765   O     0.96267   0.46840   0.11046   0.00000  Uiso   1.00
C766   C     0.95321   0.42662   0.12512   0.00000  Uiso   1.00
H767   H     0.95039   0.42410   0.16218   0.00000  Uiso   1.00
H768   H     0.98142   0.40531   0.10772   0.00000  Uiso   1.00
C769   C     0.90545   0.41223   0.11667   0.00000  Uiso   1.00
H770   H     0.87645   0.43254   0.13405   0.00000  Uiso   1.00
H771   H     0.90815   0.41423   0.07959   0.00000  Uiso   1.00
C772   C     0.89284   0.36786   0.13426   0.00000  Uiso   1.00
H773   H     0.92302   0.34766   0.11984   0.00000  Uiso   1.00
H774   H     0.86065   0.35645   0.12396   0.00000  Uiso   1.00
H775   H     0.88534   0.36603   0.17190   0.00000  Uiso   1.00
O776   O     0.70744   0.51664   0.38871   0.00000  Uiso   1.00
C777   C     0.73544   0.53900   0.41241   0.00000  Uiso   1.00
H778   H     0.73748   0.52169   0.44368   0.00000  Uiso   1.00
H779   H     0.72037   0.56985   0.42071   0.00000  Uiso   1.00
C780   C     0.78696   0.54421   0.38319   0.00000  Uiso   1.00
H781   H     0.80133   0.51341   0.37374   0.00000  Uiso   1.00
H782   H     0.78750   0.56232   0.35151   0.00000  Uiso   1.00
C783   C     0.81919   0.56569   0.40900   0.00000  Uiso   1.00
H784   H     0.81000   0.59847   0.41328   0.00000  Uiso   1.00
H785   H     0.85739   0.56387   0.38994   0.00000  Uiso   1.00
H786   H     0.81488   0.55093   0.44312   0.00000  Uiso   1.00
C787   C     0.93399   0.37540   0.32701   0.00000  Uiso   1.00
C788   C     0.96077   0.38239   0.36360   0.00000  Uiso   1.00
H789   H     0.97269   0.35274   0.37539   0.00000  Uiso   1.00
H790   H     0.99264   0.40320   0.35005   0.00000  Uiso   1.00
H791   H     0.93675   0.39691   0.39307   0.00000  Uiso   1.00
H792   H     0.92149   0.40526   0.31718   0.00000  Uiso   1.00
H793   H     0.89967   0.35831   0.34213   0.00000  Uiso   1.00
C794   C     0.75012   0.63060   0.19646   0.00000  Uiso   1.00
C795   C     0.78247   0.63231   0.22966   0.00000  Uiso   1.00
H796   H     0.76539   0.64766   0.26161   0.00000  Uiso   1.00
H797   H     0.79103   0.60094   0.23952   0.00000  Uiso   1.00
H798   H     0.81612   0.65018   0.21391   0.00000  Uiso   1.00
H799   H     0.74641   0.59904   0.18480   0.00000  Uiso   1.00
H800   H     0.76836   0.64763   0.16451   0.00000  Uiso   1.00
C801   C     0.92717   0.61827   0.32082   0.00000  Uiso   1.00
C802   C     0.87878   0.61822   0.30813   0.00000  Uiso   1.00
H803   H     0.87739   0.64331   0.28292   0.00000  Uiso   1.00
H804   H     0.87207   0.58832   0.29377   0.00000  Uiso   1.00
H805   H     0.84920   0.62319   0.33853   0.00000  Uiso   1.00
H806   H     0.93762   0.58619   0.32542   0.00000  Uiso   1.00
H807   H     0.92328   0.63019   0.35525   0.00000  Uiso   1.00
C808   C     0.72021   0.38119   0.17072   0.00000  Uiso   1.00
C809   C     0.77088   0.39871   0.16760   0.00000  Uiso   1.00
H810   H     0.76997   0.42882   0.18361   0.00000  Uiso   1.00
H811   H     0.79169   0.37780   0.18394   0.00000  Uiso   1.00
H812   H     0.79022   0.40385   0.13130   0.00000  Uiso   1.00
H813   H     0.72127   0.36088   0.14179   0.00000  Uiso   1.00
H814   H     0.69767   0.40691   0.16488   0.00000  Uiso   1.00
C815   C     0.76992   0.44298   0.31261   0.00000  Uiso   1.00
C816   C     0.78295   0.39933   0.29756   0.00000  Uiso   1.00
H817   H     0.75627   0.37667   0.31830   0.00000  Uiso   1.00
H818   H     0.78270   0.39619   0.26149   0.00000  Uiso   1.00
H819   H     0.81908   0.39183   0.30174   0.00000  Uiso   1.00
H820   H     0.77521   0.44668   0.34720   0.00000  Uiso   1.00
H821   H     0.73156   0.44581   0.31627   0.00000  Uiso   1.00
C822   C     0.89985   0.54971   0.18049   0.00000  Uiso   1.00
C823   C     0.88551   0.59426   0.17770   0.00000  Uiso   1.00
H824   H     0.85344   0.59655   0.16398   0.00000  Uiso   1.00
H825   H     0.87944   0.60770   0.21159   0.00000  Uiso   1.00
H826   H     0.91520   0.61248   0.15436   0.00000  Uiso   1.00
H827   H     0.93614   0.55258   0.18435   0.00000  Uiso   1.00
H828   H     0.90134   0.53520   0.14765   0.00000  Uiso   1.00
C829   C     0.33246   0.75435   0.25091   0.00000  Uiso   1.00
C830   C     0.00042   0.91265   0.25038   0.00000  Uiso   1.00
C831   C     0.19401   0.84141   0.04923   0.00000  Uiso   1.00
C832   C     0.14634   0.79476   0.45880   0.00000  Uiso   1.00
C833   C     0.24197   0.85004   0.02684   0.00000  Uiso   1.00
C834   C     0.09794   0.78768   0.48068   0.00000  Uiso   1.00
C835   C     0.29900   0.68701   0.28668   0.00000  Uiso   1.00
C836   C     0.03532   0.98148   0.21927   0.00000  Uiso   1.00
C837   C     0.29852   0.97690   0.28566   0.00000  Uiso   1.00
C838   C     0.02991   0.69075   0.21531   0.00000  Uiso   1.00
C839   C     0.00070   0.95764   0.25219   0.00000  Uiso   1.00
C840   C     0.33095   0.70994   0.25077   0.00000  Uiso   1.00
C841   C     0.18335   0.80948   0.28053   0.00000  Uiso   1.00
C842   C     0.15028   0.85629   0.21859   0.00000  Uiso   1.00
C843   C     0.13416   0.80823   0.28019   0.00000  Uiso   1.00
C844   C     0.19972   0.85720   0.21845   0.00000  Uiso   1.00
C845   C     0.30646   0.83278   0.33652   0.00000  Uiso   1.00
C846   C     0.02694   0.83246   0.16362   0.00000  Uiso   1.00
C847   C     0.29253   0.83262   0.38682   0.00000  Uiso   1.00
C848   C     0.04192   0.82628   0.11422   0.00000  Uiso   1.00
C849   C     0.30779   0.84813   0.45923   0.00000  Uiso   1.00
C850   C     0.02988   0.79714   0.04549   0.00000  Uiso   1.00
C851   C     0.32559   0.84412   0.41193   0.00000  Uiso   1.00
C852   C     0.01120   0.80815   0.09047   0.00000  Uiso   1.00
C853   C     0.24453   0.82224   0.40936   0.00000  Uiso   1.00
C854   C     0.09050   0.83380   0.09205   0.00000  Uiso   1.00
C855   C     0.22710   0.82504   0.45674   0.00000  Uiso   1.00
C856   C     0.11068   0.82038   0.04793   0.00000  Uiso   1.00
C857   C     0.25903   0.84072   0.48106   0.00000  Uiso   1.00
C858   C     0.07938   0.80173   0.02455   0.00000  Uiso   1.00
C859   C     0.17824   0.81508   0.48009   0.00000  Uiso   1.00
C860   C     0.16080   0.82569   0.02626   0.00000  Uiso   1.00
Cu861  Cu    0.04689   0.83334   0.25000   0.00000  Uiso   1.00
Cu862  Cu    0.28645   0.83333   0.25000   0.00000  Uiso   1.00
H863   H     0.11188   0.85016   0.11054   0.00000  Uiso   1.00
H864   H     0.22069   0.81378   0.38874   0.00000  Uiso   1.00
H865   H     0.33128   0.85766   0.47977   0.00000  Uiso   1.00
H866   H     0.00538   0.78382   0.02764   0.00000  Uiso   1.00
H867   H     0.18443   0.84696   0.08500   0.00000  Uiso   1.00
H868   H     0.15795   0.78327   0.42507   0.00000  Uiso   1.00
H869   H     0.19572   0.79036   0.30471   0.00000  Uiso   1.00
H870   H     0.13811   0.87375   0.19310   0.00000  Uiso   1.00
N871   N     0.11736   0.83334   0.24999   0.00000  Uiso   1.00
N872   N     0.21597   0.83332   0.25001   0.00000  Uiso   1.00
O873   O     0.03958   0.77322   0.25000   0.00000  Uiso   1.00
O874   O     0.29375   0.89345   0.25000   0.00000  Uiso   1.00
O875   O     0.29372   0.77321   0.25001   0.00000  Uiso   1.00
O876   O     0.03961   0.89346   0.25000   0.00000  Uiso   1.00
O877   O     0.01852   0.83334   0.31492   0.00000  Uiso   1.00
O878   O     0.31481   0.83332   0.18509   0.00000  Uiso   1.00
O879   O     0.27267   0.83333   0.31492   0.00000  Uiso   1.00
O880   O     0.06067   0.83333   0.18508   0.00000  Uiso   1.00
O881   O     0.27298   0.86719   0.05004   0.00000  Uiso   1.00
C882   C     0.26307   0.90924   0.05778   0.00000  Uiso   1.00
H883   H     0.28348   0.91946   0.08213   0.00000  Uiso   1.00
H884   H     0.22439   0.91386   0.07408   0.00000  Uiso   1.00
C885   C     0.27995   0.93650   0.01418   0.00000  Uiso   1.00
H886   H     0.31842   0.93117   0.49815   0.00000  Uiso   1.00
H887   H     0.25852   0.92859   0.48977   0.00000  Uiso   1.00
C888   C     0.27408   0.98204   0.02426   0.00000  Uiso   1.00
H889   H     0.23638   0.98786   0.04260   0.00000  Uiso   1.00
H890   H     0.28302   0.66742   0.49196   0.00000  Uiso   1.00
H891   H     0.29869   0.99186   0.04507   0.00000  Uiso   1.00
O892   O     0.06799   0.77031   0.45675   0.00000  Uiso   1.00
C893   C     0.06500   0.72703   0.46405   0.00000  Uiso   1.00
H894   H     0.02803   0.71828   0.48429   0.00000  Uiso   1.00
H895   H     0.09072   0.71455   0.48280   0.00000  Uiso   1.00
C896   C     0.07423   0.70701   0.41806   0.00000  Uiso   1.00
H897   H     0.05061   0.72067   0.39815   0.00000  Uiso   1.00
H898   H     0.11230   0.71333   0.39918   0.00000  Uiso   1.00
C899   C     0.06439   0.99395   0.42319   0.00000  Uiso   1.00
H900   H     0.08438   0.97991   0.44630   0.00000  Uiso   1.00
H901   H     0.07599   0.98007   0.38942   0.00000  Uiso   1.00
H902   H     0.02539   0.98709   0.43705   0.00000  Uiso   1.00
O903   O     0.29601   0.80174   0.11046   0.00000  Uiso   1.00
C904   C     0.28655   0.75996   0.12512   0.00000  Uiso   1.00
H905   H     0.28373   0.75743   0.16218   0.00000  Uiso   1.00
H906   H     0.31476   0.73865   0.10772   0.00000  Uiso   1.00
C907   C     0.23878   0.74556   0.11667   0.00000  Uiso   1.00
H908   H     0.20978   0.76587   0.13405   0.00000  Uiso   1.00
H909   H     0.24149   0.74757   0.07959   0.00000  Uiso   1.00
C910   C     0.22618   0.70119   0.13426   0.00000  Uiso   1.00
H911   H     0.25635   0.68099   0.11984   0.00000  Uiso   1.00
H912   H     0.19399   0.68979   0.12396   0.00000  Uiso   1.00
H913   H     0.21867   0.69936   0.17190   0.00000  Uiso   1.00
O914   O     0.04077   0.84997   0.38871   0.00000  Uiso   1.00
C915   C     0.06877   0.87234   0.41241   0.00000  Uiso   1.00
H916   H     0.07081   0.85503   0.44368   0.00000  Uiso   1.00
H917   H     0.05370   0.90318   0.42071   0.00000  Uiso   1.00
C918   C     0.12030   0.87755   0.38319   0.00000  Uiso   1.00
H919   H     0.13466   0.84674   0.37374   0.00000  Uiso   1.00
H920   H     0.12084   0.89565   0.35151   0.00000  Uiso   1.00
C921   C     0.15253   0.89902   0.40900   0.00000  Uiso   1.00
H922   H     0.14334   0.93180   0.41328   0.00000  Uiso   1.00
H923   H     0.19072   0.89720   0.38994   0.00000  Uiso   1.00
H924   H     0.14821   0.88426   0.44312   0.00000  Uiso   1.00
C925   C     0.26732   0.70873   0.32701   0.00000  Uiso   1.00
C926   C     0.29411   0.71573   0.36360   0.00000  Uiso   1.00
H927   H     0.30603   0.68607   0.37539   0.00000  Uiso   1.00
H928   H     0.32597   0.73653   0.35005   0.00000  Uiso   1.00
H929   H     0.27009   0.73024   0.39307   0.00000  Uiso   1.00
H930   H     0.25483   0.73859   0.31718   0.00000  Uiso   1.00
H931   H     0.23300   0.69164   0.34213   0.00000  Uiso   1.00
C932   C     0.08345   0.96394   0.19646   0.00000  Uiso   1.00
C933   C     0.11580   0.96564   0.22966   0.00000  Uiso   1.00
H934   H     0.09872   0.98100   0.26161   0.00000  Uiso   1.00
H935   H     0.12436   0.93427   0.23952   0.00000  Uiso   1.00
H936   H     0.14945   0.98351   0.21391   0.00000  Uiso   1.00
H937   H     0.07974   0.93238   0.18480   0.00000  Uiso   1.00
H938   H     0.10169   0.98096   0.16451   0.00000  Uiso   1.00
C939   C     0.26050   0.95160   0.32082   0.00000  Uiso   1.00
C940   C     0.21211   0.95156   0.30813   0.00000  Uiso   1.00
H941   H     0.21072   0.97665   0.28292   0.00000  Uiso   1.00
H942   H     0.20540   0.92166   0.29377   0.00000  Uiso   1.00
H943   H     0.18254   0.95652   0.33853   0.00000  Uiso   1.00
H944   H     0.27096   0.91953   0.32542   0.00000  Uiso   1.00
H945   H     0.25661   0.96352   0.35525   0.00000  Uiso   1.00
C946   C     0.05354   0.71452   0.17072   0.00000  Uiso   1.00
C947   C     0.10422   0.73205   0.16760   0.00000  Uiso   1.00
H948   H     0.10330   0.76215   0.18361   0.00000  Uiso   1.00
H949   H     0.12503   0.71114   0.18394   0.00000  Uiso   1.00
H950   H     0.12355   0.73718   0.13130   0.00000  Uiso   1.00
H951   H     0.05461   0.69421   0.14179   0.00000  Uiso   1.00
H952   H     0.03100   0.74024   0.16488   0.00000  Uiso   1.00
C953   C     0.10325   0.77632   0.31261   0.00000  Uiso   1.00
C954   C     0.11629   0.73266   0.29756   0.00000  Uiso   1.00
H955   H     0.08961   0.71000   0.31830   0.00000  Uiso   1.00
H956   H     0.11604   0.72953   0.26149   0.00000  Uiso   1.00
H957   H     0.15241   0.72516   0.30174   0.00000  Uiso   1.00
H958   H     0.10855   0.78001   0.34720   0.00000  Uiso   1.00
H959   H     0.06489   0.77915   0.31627   0.00000  Uiso   1.00
C960   C     0.23318   0.88304   0.18049   0.00000  Uiso   1.00
C961   C     0.21885   0.92759   0.17770   0.00000  Uiso   1.00
H962   H     0.18677   0.92988   0.16398   0.00000  Uiso   1.00
H963   H     0.21278   0.94103   0.21159   0.00000  Uiso   1.00
H964   H     0.24853   0.94581   0.15436   0.00000  Uiso   1.00
H965   H     0.26947   0.88592   0.18435   0.00000  Uiso   1.00
H966   H     0.23468   0.86853   0.14765   0.00000  Uiso   1.00
C967   C     0.66580   0.75435   0.25091   0.00000  Uiso   1.00
C968   C     0.33375   0.91265   0.25038   0.00000  Uiso   1.00
C969   C     0.52735   0.84141   0.04923   0.00000  Uiso   1.00
C970   C     0.47968   0.79476   0.45880   0.00000  Uiso   1.00
C971   C     0.57530   0.85004   0.02684   0.00000  Uiso   1.00
C972   C     0.43127   0.78768   0.48068   0.00000  Uiso   1.00
C973   C     0.63233   0.68701   0.28668   0.00000  Uiso   1.00
C974   C     0.36866   0.98148   0.21927   0.00000  Uiso   1.00
C975   C     0.63185   0.97690   0.28566   0.00000  Uiso   1.00
C976   C     0.36325   0.69075   0.21531   0.00000  Uiso   1.00
C977   C     0.33403   0.95764   0.25219   0.00000  Uiso   1.00
C978   C     0.66428   0.70994   0.25077   0.00000  Uiso   1.00
C979   C     0.51669   0.80948   0.28053   0.00000  Uiso   1.00
C980   C     0.48362   0.85629   0.21859   0.00000  Uiso   1.00
C981   C     0.46750   0.80823   0.28019   0.00000  Uiso   1.00
C982   C     0.53305   0.85720   0.21845   0.00000  Uiso   1.00
C983   C     0.63980   0.83278   0.33652   0.00000  Uiso   1.00
C984   C     0.36028   0.83246   0.16362   0.00000  Uiso   1.00
C985   C     0.62586   0.83262   0.38682   0.00000  Uiso   1.00
C986   C     0.37526   0.82628   0.11422   0.00000  Uiso   1.00
C987   C     0.64112   0.84813   0.45923   0.00000  Uiso   1.00
C988   C     0.36321   0.79714   0.04549   0.00000  Uiso   1.00
C989   C     0.65892   0.84412   0.41193   0.00000  Uiso   1.00
C990   C     0.34454   0.80815   0.09047   0.00000  Uiso   1.00
C991   C     0.57786   0.82224   0.40936   0.00000  Uiso   1.00
C992   C     0.42383   0.83380   0.09205   0.00000  Uiso   1.00
C993   C     0.56043   0.82504   0.45674   0.00000  Uiso   1.00
C994   C     0.44401   0.82038   0.04793   0.00000  Uiso   1.00
C995   C     0.59237   0.84072   0.48106   0.00000  Uiso   1.00
C996   C     0.41271   0.80173   0.02455   0.00000  Uiso   1.00
C997   C     0.51158   0.81508   0.48009   0.00000  Uiso   1.00
C998   C     0.49414   0.82569   0.02626   0.00000  Uiso   1.00
Cu999  Cu    0.38022   0.83334   0.25000   0.00000  Uiso   1.00
Cu1000 Cu    0.61978   0.83333   0.25000   0.00000  Uiso   1.00
H1001  H     0.44521   0.85016   0.11054   0.00000  Uiso   1.00
H1002  H     0.55402   0.81378   0.38874   0.00000  Uiso   1.00
H1003  H     0.66462   0.85766   0.47977   0.00000  Uiso   1.00
H1004  H     0.33871   0.78382   0.02764   0.00000  Uiso   1.00
H1005  H     0.51776   0.84696   0.08500   0.00000  Uiso   1.00
H1006  H     0.49128   0.78327   0.42507   0.00000  Uiso   1.00
H1007  H     0.52905   0.79036   0.30471   0.00000  Uiso   1.00
H1008  H     0.47144   0.87375   0.19310   0.00000  Uiso   1.00
N1009  N     0.45069   0.83334   0.24999   0.00000  Uiso   1.00
N1010  N     0.54931   0.83332   0.25001   0.00000  Uiso   1.00
O1011  O     0.37291   0.77322   0.25000   0.00000  Uiso   1.00
O1012  O     0.62709   0.89345   0.25000   0.00000  Uiso   1.00
O1013  O     0.62706   0.77321   0.25001   0.00000  Uiso   1.00
O1014  O     0.37294   0.89346   0.25000   0.00000  Uiso   1.00
O1015  O     0.35186   0.83334   0.31492   0.00000  Uiso   1.00
O1016  O     0.64814   0.83332   0.18509   0.00000  Uiso   1.00
O1017  O     0.60600   0.83333   0.31492   0.00000  Uiso   1.00
O1018  O     0.39400   0.83333   0.18508   0.00000  Uiso   1.00
O1019  O     0.60631   0.86719   0.05004   0.00000  Uiso   1.00
C1020  C     0.59641   0.90924   0.05778   0.00000  Uiso   1.00
H1021  H     0.61682   0.91946   0.08213   0.00000  Uiso   1.00
H1022  H     0.55772   0.91386   0.07408   0.00000  Uiso   1.00
C1023  C     0.61328   0.93650   0.01418   0.00000  Uiso   1.00
H1024  H     0.65176   0.93117   0.49815   0.00000  Uiso   1.00
H1025  H     0.59185   0.92859   0.48977   0.00000  Uiso   1.00
C1026  C     0.60741   0.98204   0.02426   0.00000  Uiso   1.00
H1027  H     0.56971   0.98786   0.04260   0.00000  Uiso   1.00
H1028  H     0.61636   0.66742   0.49196   0.00000  Uiso   1.00
H1029  H     0.63202   0.99186   0.04507   0.00000  Uiso   1.00
O1030  O     0.40132   0.77031   0.45675   0.00000  Uiso   1.00
C1031  C     0.39833   0.72703   0.46405   0.00000  Uiso   1.00
H1032  H     0.36136   0.71828   0.48429   0.00000  Uiso   1.00
H1033  H     0.42405   0.71455   0.48280   0.00000  Uiso   1.00
C1034  C     0.40757   0.70701   0.41806   0.00000  Uiso   1.00
H1035  H     0.38395   0.72067   0.39815   0.00000  Uiso   1.00
H1036  H     0.44564   0.71333   0.39918   0.00000  Uiso   1.00
C1037  C     0.39773   0.99395   0.42319   0.00000  Uiso   1.00
H1038  H     0.41771   0.97991   0.44630   0.00000  Uiso   1.00
H1039  H     0.40932   0.98007   0.38942   0.00000  Uiso   1.00
H1040  H     0.35872   0.98709   0.43705   0.00000  Uiso   1.00
O1041  O     0.62934   0.80174   0.11046   0.00000  Uiso   1.00
C1042  C     0.61988   0.75996   0.12512   0.00000  Uiso   1.00
H1043  H     0.61706   0.75743   0.16218   0.00000  Uiso   1.00
H1044  H     0.64809   0.73865   0.10772   0.00000  Uiso   1.00
C1045  C     0.57211   0.74556   0.11667   0.00000  Uiso   1.00
H1046  H     0.54312   0.76587   0.13405   0.00000  Uiso   1.00
H1047  H     0.57482   0.74757   0.07959   0.00000  Uiso   1.00
C1048  C     0.55951   0.70119   0.13426   0.00000  Uiso   1.00
H1049  H     0.58968   0.68099   0.11984   0.00000  Uiso   1.00
H1050  H     0.52732   0.68979   0.12396   0.00000  Uiso   1.00
H1051  H     0.55200   0.69936   0.17190   0.00000  Uiso   1.00
O1052  O     0.37411   0.84997   0.38871   0.00000  Uiso   1.00
C1053  C     0.40211   0.87234   0.41241   0.00000  Uiso   1.00
H1054  H     0.40415   0.85503   0.44368   0.00000  Uiso   1.00
H1055  H     0.38704   0.90318   0.42071   0.00000  Uiso   1.00
C1056  C     0.45363   0.87755   0.38319   0.00000  Uiso   1.00
H1057  H     0.46800   0.84674   0.37374   0.00000  Uiso   1.00
H1058  H     0.45417   0.89565   0.35151   0.00000  Uiso   1.00
C1059  C     0.48586   0.89902   0.40900   0.00000  Uiso   1.00
H1060  H     0.47667   0.93180   0.41328   0.00000  Uiso   1.00
H1061  H     0.52405   0.89720   0.38994   0.00000  Uiso   1.00
H1062  H     0.48155   0.88426   0.44312   0.00000  Uiso   1.00
C1063  C     0.60065   0.70873   0.32701   0.00000  Uiso   1.00
C1064  C     0.62744   0.71573   0.36360   0.00000  Uiso   1.00
H1065  H     0.63936   0.68607   0.37539   0.00000  Uiso   1.00
H1066  H     0.65931   0.73653   0.35005   0.00000  Uiso   1.00
H1067  H     0.60342   0.73024   0.39307   0.00000  Uiso   1.00
H1068  H     0.58816   0.73859   0.31718   0.00000  Uiso   1.00
H1069  H     0.56634   0.69164   0.34213   0.00000  Uiso   1.00
C1070  C     0.41679   0.96394   0.19646   0.00000  Uiso   1.00
C1071  C     0.44913   0.96564   0.22966   0.00000  Uiso   1.00
H1072  H     0.43205   0.98100   0.26161   0.00000  Uiso   1.00
H1073  H     0.45769   0.93427   0.23952   0.00000  Uiso   1.00
H1074  H     0.48279   0.98351   0.21391   0.00000  Uiso   1.00
H1075  H     0.41307   0.93238   0.18480   0.00000  Uiso   1.00
H1076  H     0.43503   0.98096   0.16451   0.00000  Uiso   1.00
C1077  C     0.59383   0.95160   0.32082   0.00000  Uiso   1.00
C1078  C     0.54544   0.95156   0.30813   0.00000  Uiso   1.00
H1079  H     0.54406   0.97665   0.28292   0.00000  Uiso   1.00
H1080  H     0.53873   0.92166   0.29377   0.00000  Uiso   1.00
H1081  H     0.51587   0.95652   0.33853   0.00000  Uiso   1.00
H1082  H     0.60429   0.91953   0.32542   0.00000  Uiso   1.00
H1083  H     0.58995   0.96352   0.35525   0.00000  Uiso   1.00
C1084  C     0.38688   0.71452   0.17072   0.00000  Uiso   1.00
C1085  C     0.43755   0.73205   0.16760   0.00000  Uiso   1.00
H1086  H     0.43664   0.76215   0.18361   0.00000  Uiso   1.00
H1087  H     0.45836   0.71114   0.18394   0.00000  Uiso   1.00
H1088  H     0.45688   0.73718   0.13130   0.00000  Uiso   1.00
H1089  H     0.38794   0.69421   0.14179   0.00000  Uiso   1.00
H1090  H     0.36434   0.74024   0.16488   0.00000  Uiso   1.00
C1091  C     0.43658   0.77632   0.31261   0.00000  Uiso   1.00
C1092  C     0.44962   0.73266   0.29756   0.00000  Uiso   1.00
H1093  H     0.42294   0.71000   0.31830   0.00000  Uiso   1.00
H1094  H     0.44937   0.72953   0.26149   0.00000  Uiso   1.00
H1095  H     0.48575   0.72516   0.30174   0.00000  Uiso   1.00
H1096  H     0.44188   0.78001   0.34720   0.00000  Uiso   1.00
H1097  H     0.39822   0.77915   0.31627   0.00000  Uiso   1.00
C1098  C     0.56652   0.88304   0.18049   0.00000  Uiso   1.00
C1099  C     0.55218   0.92759   0.17770   0.00000  Uiso   1.00
H1100  H     0.52010   0.92988   0.16398   0.00000  Uiso   1.00
H1101  H     0.54611   0.94103   0.21159   0.00000  Uiso   1.00
H1102  H     0.58187   0.94581   0.15436   0.00000  Uiso   1.00
H1103  H     0.60280   0.88592   0.18435   0.00000  Uiso   1.00
H1104  H     0.56801   0.86853   0.14765   0.00000  Uiso   1.00
C1105  C     0.99913   0.75435   0.25091   0.00000  Uiso   1.00
C1106  C     0.66708   0.91265   0.25038   0.00000  Uiso   1.00
C1107  C     0.86068   0.84141   0.04923   0.00000  Uiso   1.00
C1108  C     0.81301   0.79476   0.45880   0.00000  Uiso   1.00
C1109  C     0.90863   0.85004   0.02684   0.00000  Uiso   1.00
C1110  C     0.76460   0.78768   0.48068   0.00000  Uiso   1.00
C1111  C     0.96567   0.68701   0.28668   0.00000  Uiso   1.00
C1112  C     0.70199   0.98148   0.21927   0.00000  Uiso   1.00
C1113  C     0.96519   0.97690   0.28566   0.00000  Uiso   1.00
C1114  C     0.69658   0.69075   0.21531   0.00000  Uiso   1.00
C1115  C     0.66736   0.95764   0.25219   0.00000  Uiso   1.00
C1116  C     0.99762   0.70994   0.25077   0.00000  Uiso   1.00
C1117  C     0.85002   0.80948   0.28053   0.00000  Uiso   1.00
C1118  C     0.81695   0.85629   0.21859   0.00000  Uiso   1.00
C1119  C     0.80083   0.80823   0.28019   0.00000  Uiso   1.00
C1120  C     0.86638   0.85720   0.21845   0.00000  Uiso   1.00
C1121  C     0.97313   0.83278   0.33652   0.00000  Uiso   1.00
C1122  C     0.69361   0.83246   0.16362   0.00000  Uiso   1.00
C1123  C     0.95919   0.83262   0.38682   0.00000  Uiso   1.00
C1124  C     0.70859   0.82628   0.11422   0.00000  Uiso   1.00
C1125  C     0.97445   0.84813   0.45923   0.00000  Uiso   1.00
C1126  C     0.69654   0.79714   0.04549   0.00000  Uiso   1.00
C1127  C     0.99225   0.84412   0.41193   0.00000  Uiso   1.00
C1128  C     0.67787   0.80815   0.09047   0.00000  Uiso   1.00
C1129  C     0.91119   0.82224   0.40936   0.00000  Uiso   1.00
C1130  C     0.75716   0.83380   0.09205   0.00000  Uiso   1.00
C1131  C     0.89376   0.82504   0.45674   0.00000  Uiso   1.00
C1132  C     0.77735   0.82038   0.04793   0.00000  Uiso   1.00
C1133  C     0.92570   0.84072   0.48106   0.00000  Uiso   1.00
C1134  C     0.74605   0.80173   0.02455   0.00000  Uiso   1.00
C1135  C     0.84491   0.81508   0.48009   0.00000  Uiso   1.00
C1136  C     0.82747   0.82569   0.02626   0.00000  Uiso   1.00
Cu1137 Cu    0.71355   0.83334   0.25000   0.00000  Uiso   1.00
Cu1138 Cu    0.95311   0.83333   0.25000   0.00000  Uiso   1.00
H1139  H     0.77855   0.85016   0.11054   0.00000  Uiso   1.00
H1140  H     0.88736   0.81378   0.38874   0.00000  Uiso   1.00
H1141  H     0.99795   0.85766   0.47977   0.00000  Uiso   1.00
H1142  H     0.67205   0.78382   0.02764   0.00000  Uiso   1.00
H1143  H     0.85110   0.84696   0.08500   0.00000  Uiso   1.00
H1144  H     0.82461   0.78327   0.42507   0.00000  Uiso   1.00
H1145  H     0.86239   0.79036   0.30471   0.00000  Uiso   1.00
H1146  H     0.80478   0.87375   0.19310   0.00000  Uiso   1.00
N1147  N     0.78403   0.83334   0.24999   0.00000  Uiso   1.00
N1148  N     0.88264   0.83332   0.25001   0.00000  Uiso   1.00
O1149  O     0.70625   0.77322   0.25000   0.00000  Uiso   1.00
O1150  O     0.96042   0.89345   0.25000   0.00000  Uiso   1.00
O1151  O     0.96039   0.77321   0.25001   0.00000  Uiso   1.00
O1152  O     0.70628   0.89346   0.25000   0.00000  Uiso   1.00
O1153  O     0.68519   0.83334   0.31492   0.00000  Uiso   1.00
O1154  O     0.98148   0.83332   0.18509   0.00000  Uiso   1.00
O1155  O     0.93933   0.83333   0.31492   0.00000  Uiso   1.00
O1156  O     0.72733   0.83333   0.18508   0.00000  Uiso   1.00
O1157  O     0.93964   0.86719   0.05004   0.00000  Uiso   1.00
C1158  C     0.92974   0.90924   0.05778   0.00000  Uiso   1.00
H1159  H     0.95015   0.91946   0.08213   0.00000  Uiso   1.00
H1160  H     0.89105   0.91386   0.07408   0.00000  Uiso   1.00
C1161  C     0.94662   0.93650   0.01418   0.00000  Uiso   1.00
H1162  H     0.98509   0.93117   0.49815   0.00000  Uiso   1.00
H1163  H     0.92519   0.92859   0.48977   0.00000  Uiso   1.00
C1164  C     0.94075   0.98204   0.02426   0.00000  Uiso   1.00
H1165  H     0.90305   0.98786   0.04260   0.00000  Uiso   1.00
H1166  H     0.94969   0.66742   0.49196   0.00000  Uiso   1.00
H1167  H     0.96536   0.99186   0.04507   0.00000  Uiso   1.00
O1168  O     0.73465   0.77031   0.45675   0.00000  Uiso   1.00
C1169  C     0.73167   0.72703   0.46405   0.00000  Uiso   1.00
H1170  H     0.69470   0.71828   0.48429   0.00000  Uiso   1.00
H1171  H     0.75738   0.71455   0.48280   0.00000  Uiso   1.00
C1172  C     0.74090   0.70701   0.41806   0.00000  Uiso   1.00
H1173  H     0.71728   0.72067   0.39815   0.00000  Uiso   1.00
H1174  H     0.77897   0.71333   0.39918   0.00000  Uiso   1.00
C1175  C     0.73106   0.99395   0.42319   0.00000  Uiso   1.00
H1176  H     0.75105   0.97991   0.44630   0.00000  Uiso   1.00
H1177  H     0.74266   0.98007   0.38942   0.00000  Uiso   1.00
H1178  H     0.69205   0.98709   0.43705   0.00000  Uiso   1.00
O1179  O     0.96267   0.80174   0.11046   0.00000  Uiso   1.00
C1180  C     0.95321   0.75996   0.12512   0.00000  Uiso   1.00
H1181  H     0.95039   0.75743   0.16218   0.00000  Uiso   1.00
H1182  H     0.98142   0.73865   0.10772   0.00000  Uiso   1.00
C1183  C     0.90545   0.74556   0.11667   0.00000  Uiso   1.00
H1184  H     0.87645   0.76587   0.13405   0.00000  Uiso   1.00
H1185  H     0.90815   0.74757   0.07959   0.00000  Uiso   1.00
C1186  C     0.89284   0.70119   0.13426   0.00000  Uiso   1.00
H1187  H     0.92302   0.68099   0.11984   0.00000  Uiso   1.00
H1188  H     0.86065   0.68979   0.12396   0.00000  Uiso   1.00
H1189  H     0.88534   0.69936   0.17190   0.00000  Uiso   1.00
O1190  O     0.70744   0.84997   0.38871   0.00000  Uiso   1.00
C1191  C     0.73544   0.87234   0.41241   0.00000  Uiso   1.00
H1192  H     0.73748   0.85503   0.44368   0.00000  Uiso   1.00
H1193  H     0.72037   0.90318   0.42071   0.00000  Uiso   1.00
C1194  C     0.78696   0.87755   0.38319   0.00000  Uiso   1.00
H1195  H     0.80133   0.84674   0.37374   0.00000  Uiso   1.00
H1196  H     0.78750   0.89565   0.35151   0.00000  Uiso   1.00
C1197  C     0.81919   0.89902   0.40900   0.00000  Uiso   1.00
H1198  H     0.81000   0.93180   0.41328   0.00000  Uiso   1.00
H1199  H     0.85739   0.89720   0.38994   0.00000  Uiso   1.00
H1200  H     0.81488   0.88426   0.44312   0.00000  Uiso   1.00
C1201  C     0.93399   0.70873   0.32701   0.00000  Uiso   1.00
C1202  C     0.96077   0.71573   0.36360   0.00000  Uiso   1.00
H1203  H     0.97269   0.68607   0.37539   0.00000  Uiso   1.00
H1204  H     0.99264   0.73653   0.35005   0.00000  Uiso   1.00
H1205  H     0.93675   0.73024   0.39307   0.00000  Uiso   1.00
H1206  H     0.92149   0.73859   0.31718   0.00000  Uiso   1.00
H1207  H     0.89967   0.69164   0.34213   0.00000  Uiso   1.00
C1208  C     0.75012   0.96394   0.19646   0.00000  Uiso   1.00
C1209  C     0.78247   0.96564   0.22966   0.00000  Uiso   1.00
H1210  H     0.76539   0.98100   0.26161   0.00000  Uiso   1.00
H1211  H     0.79103   0.93427   0.23952   0.00000  Uiso   1.00
H1212  H     0.81612   0.98351   0.21391   0.00000  Uiso   1.00
H1213  H     0.74641   0.93238   0.18480   0.00000  Uiso   1.00
H1214  H     0.76836   0.98096   0.16451   0.00000  Uiso   1.00
C1215  C     0.92717   0.95160   0.32082   0.00000  Uiso   1.00
C1216  C     0.87878   0.95156   0.30813   0.00000  Uiso   1.00
H1217  H     0.87739   0.97665   0.28292   0.00000  Uiso   1.00
H1218  H     0.87207   0.92166   0.29377   0.00000  Uiso   1.00
H1219  H     0.84920   0.95652   0.33853   0.00000  Uiso   1.00
H1220  H     0.93762   0.91953   0.32542   0.00000  Uiso   1.00
H1221  H     0.92328   0.96352   0.35525   0.00000  Uiso   1.00
C1222  C     0.72021   0.71452   0.17072   0.00000  Uiso   1.00
C1223  C     0.77088   0.73205   0.16760   0.00000  Uiso   1.00
H1224  H     0.76997   0.76215   0.18361   0.00000  Uiso   1.00
H1225  H     0.79169   0.71114   0.18394   0.00000  Uiso   1.00
H1226  H     0.79022   0.73718   0.13130   0.00000  Uiso   1.00
H1227  H     0.72127   0.69421   0.14179   0.00000  Uiso   1.00
H1228  H     0.69767   0.74024   0.16488   0.00000  Uiso   1.00
C1229  C     0.76992   0.77632   0.31261   0.00000  Uiso   1.00
C1230  C     0.78295   0.73266   0.29756   0.00000  Uiso   1.00
H1231  H     0.75627   0.71000   0.31830   0.00000  Uiso   1.00
H1232  H     0.78270   0.72953   0.26149   0.00000  Uiso   1.00
H1233  H     0.81908   0.72516   0.30174   0.00000  Uiso   1.00
H1234  H     0.77521   0.78001   0.34720   0.00000  Uiso   1.00
H1235  H     0.73156   0.77915   0.31627   0.00000  Uiso   1.00
C1236  C     0.89985   0.88304   0.18049   0.00000  Uiso   1.00
C1237  C     0.88551   0.92759   0.17770   0.00000  Uiso   1.00
H1238  H     0.85344   0.92988   0.16398   0.00000  Uiso   1.00
H1239  H     0.87944   0.94103   0.21159   0.00000  Uiso   1.00
H1240  H     0.91520   0.94581   0.15436   0.00000  Uiso   1.00
H1241  H     0.93614   0.88592   0.18435   0.00000  Uiso   1.00
H1242  H     0.90134   0.86853   0.14765   0.00000  Uiso   1.00
C1243  C     0.33246   0.08768   0.75091   0.00000  Uiso   1.00
C1244  C     0.00042   0.24598   0.75038   0.00000  Uiso   1.00
C1245  C     0.19401   0.17474   0.54923   0.00000  Uiso   1.00
C1246  C     0.14634   0.12809   0.95880   0.00000  Uiso   1.00
C1247  C     0.24197   0.18338   0.52684   0.00000  Uiso   1.00
C1248  C     0.09794   0.12102   0.98068   0.00000  Uiso   1.00
C1249  C     0.29900   0.02034   0.78668   0.00000  Uiso   1.00
C1250  C     0.03532   0.31482   0.71927   0.00000  Uiso   1.00
C1251  C     0.29852   0.31023   0.78566   0.00000  Uiso   1.00
C1252  C     0.02991   0.02409   0.71531   0.00000  Uiso   1.00
C1253  C     0.00070   0.29098   0.75219   0.00000  Uiso   1.00
C1254  C     0.33095   0.04327   0.75077   0.00000  Uiso   1.00
C1255  C     0.18335   0.14282   0.78053   0.00000  Uiso   1.00
C1256  C     0.15028   0.18962   0.71859   0.00000  Uiso   1.00
C1257  C     0.13416   0.14156   0.78019   0.00000  Uiso   1.00
C1258  C     0.19972   0.19054   0.71845   0.00000  Uiso   1.00
C1259  C     0.30646   0.16611   0.83652   0.00000  Uiso   1.00
C1260  C     0.02694   0.16579   0.66362   0.00000  Uiso   1.00
C1261  C     0.29253   0.16595   0.88682   0.00000  Uiso   1.00
C1262  C     0.04192   0.15961   0.61422   0.00000  Uiso   1.00
C1263  C     0.30779   0.18147   0.95923   0.00000  Uiso   1.00
C1264  C     0.02988   0.13048   0.54549   0.00000  Uiso   1.00
C1265  C     0.32559   0.17745   0.91193   0.00000  Uiso   1.00
C1266  C     0.01120   0.14149   0.59047   0.00000  Uiso   1.00
C1267  C     0.24453   0.15558   0.90936   0.00000  Uiso   1.00
C1268  C     0.09050   0.16713   0.59205   0.00000  Uiso   1.00
C1269  C     0.22710   0.15838   0.95674   0.00000  Uiso   1.00
C1270  C     0.11068   0.15372   0.54793   0.00000  Uiso   1.00
C1271  C     0.25903   0.17405   0.98106   0.00000  Uiso   1.00
C1272  C     0.07938   0.13506   0.52455   0.00000  Uiso   1.00
C1273  C     0.17824   0.14841   0.98009   0.00000  Uiso   1.00
C1274  C     0.16080   0.15902   0.52626   0.00000  Uiso   1.00
Cu1275 Cu    0.04689   0.16667   0.75000   0.00000  Uiso   1.00
Cu1276 Cu    0.28645   0.16666   0.75000   0.00000  Uiso   1.00
H1277  H     0.11188   0.18349   0.61054   0.00000  Uiso   1.00
H1278  H     0.22069   0.14712   0.88874   0.00000  Uiso   1.00
H1279  H     0.33128   0.19100   0.97977   0.00000  Uiso   1.00
H1280  H     0.00538   0.11715   0.52764   0.00000  Uiso   1.00
H1281  H     0.18443   0.18029   0.58500   0.00000  Uiso   1.00
H1282  H     0.15795   0.11660   0.92507   0.00000  Uiso   1.00
H1283  H     0.19572   0.12369   0.80471   0.00000  Uiso   1.00
H1284  H     0.13811   0.20708   0.69310   0.00000  Uiso   1.00
N1285  N     0.11736   0.16668   0.74999   0.00000  Uiso   1.00
N1286  N     0.21597   0.16666   0.75001   0.00000  Uiso   1.00
O1287  O     0.03958   0.10655   0.75000   0.00000  Uiso   1.00
O1288  O     0.29375   0.22678   0.75000   0.00000  Uiso   1.00
O1289  O     0.29372   0.10654   0.75001   0.00000  Uiso   1.00
O1290  O     0.03961   0.22679   0.75000   0.00000  Uiso   1.00
O1291  O     0.01852   0.16668   0.81492   0.00000  Uiso   1.00
O1292  O     0.31481   0.16666   0.68509   0.00000  Uiso   1.00
O1293  O     0.27267   0.16667   0.81492   0.00000  Uiso   1.00
O1294  O     0.06067   0.16667   0.68508   0.00000  Uiso   1.00
O1295  O     0.27298   0.20052   0.55004   0.00000  Uiso   1.00
C1296  C     0.26307   0.24257   0.55778   0.00000  Uiso   1.00
H1297  H     0.28348   0.25279   0.58213   0.00000  Uiso   1.00
H1298  H     0.22439   0.24720   0.57408   0.00000  Uiso   1.00
C1299  C     0.27995   0.26983   0.51418   0.00000  Uiso   1.00
H1300  H     0.31842   0.26450   0.99815   0.00000  Uiso   1.00
H1301  H     0.25852   0.26192   0.98977   0.00000  Uiso   1.00
C1302  C     0.27408   0.31538   0.52426   0.00000  Uiso   1.00
H1303  H     0.23638   0.32119   0.54260   0.00000  Uiso   1.00
H1304  H     0.28302   0.00076   0.99196   0.00000  Uiso   1.00
H1305  H     0.29869   0.32520   0.54507   0.00000  Uiso   1.00
O1306  O     0.06799   0.10365   0.95675   0.00000  Uiso   1.00
C1307  C     0.06500   0.06036   0.96405   0.00000  Uiso   1.00
H1308  H     0.02803   0.05161   0.98429   0.00000  Uiso   1.00
H1309  H     0.09072   0.04788   0.98280   0.00000  Uiso   1.00
C1310  C     0.07423   0.04035   0.91806   0.00000  Uiso   1.00
H1311  H     0.05061   0.05400   0.89815   0.00000  Uiso   1.00
H1312  H     0.11230   0.04666   0.89918   0.00000  Uiso   1.00
C1313  C     0.06439   0.32728   0.92319   0.00000  Uiso   1.00
H1314  H     0.08438   0.31324   0.94630   0.00000  Uiso   1.00
H1315  H     0.07599   0.31340   0.88942   0.00000  Uiso   1.00
H1316  H     0.02539   0.32042   0.93705   0.00000  Uiso   1.00
O1317  O     0.29601   0.13507   0.61046   0.00000  Uiso   1.00
C1318  C     0.28655   0.09329   0.62512   0.00000  Uiso   1.00
H1319  H     0.28373   0.09077   0.66218   0.00000  Uiso   1.00
H1320  H     0.31476   0.07198   0.60772   0.00000  Uiso   1.00
C1321  C     0.23878   0.07890   0.61667   0.00000  Uiso   1.00
H1322  H     0.20978   0.09920   0.63405   0.00000  Uiso   1.00
H1323  H     0.24149   0.08090   0.57959   0.00000  Uiso   1.00
C1324  C     0.22618   0.03452   0.63426   0.00000  Uiso   1.00
H1325  H     0.25635   0.01432   0.61984   0.00000  Uiso   1.00
H1326  H     0.19399   0.02312   0.62396   0.00000  Uiso   1.00
H1327  H     0.21867   0.03269   0.67190   0.00000  Uiso   1.00
O1328  O     0.04077   0.18330   0.88871   0.00000  Uiso   1.00
C1329  C     0.06877   0.20567   0.91241   0.00000  Uiso   1.00
H1330  H     0.07081   0.18836   0.94368   0.00000  Uiso   1.00
H1331  H     0.05370   0.23652   0.92071   0.00000  Uiso   1.00
C1332  C     0.12030   0.21088   0.88319   0.00000  Uiso   1.00
H1333  H     0.13466   0.18007   0.87374   0.00000  Uiso   1.00
H1334  H     0.12084   0.22898   0.85151   0.00000  Uiso   1.00
C1335  C     0.15253   0.23236   0.90900   0.00000  Uiso   1.00
H1336  H     0.14334   0.26514   0.91328   0.00000  Uiso   1.00
H1337  H     0.19072   0.23053   0.88994   0.00000  Uiso   1.00
H1338  H     0.14821   0.21759   0.94312   0.00000  Uiso   1.00
C1339  C     0.26732   0.04207   0.82701   0.00000  Uiso   1.00
C1340  C     0.29411   0.04906   0.86360   0.00000  Uiso   1.00
H1341  H     0.30603   0.01940   0.87539   0.00000  Uiso   1.00
H1342  H     0.32597   0.06986   0.85005   0.00000  Uiso   1.00
H1343  H     0.27009   0.06357   0.89307   0.00000  Uiso   1.00
H1344  H     0.25483   0.07192   0.81718   0.00000  Uiso   1.00
H1345  H     0.23300   0.02498   0.84213   0.00000  Uiso   1.00
C1346  C     0.08345   0.29727   0.69646   0.00000  Uiso   1.00
C1347  C     0.11580   0.29898   0.72966   0.00000  Uiso   1.00
H1348  H     0.09872   0.31433   0.76161   0.00000  Uiso   1.00
H1349  H     0.12436   0.26761   0.73952   0.00000  Uiso   1.00
H1350  H     0.14945   0.31684   0.71391   0.00000  Uiso   1.00
H1351  H     0.07974   0.26571   0.68480   0.00000  Uiso   1.00
H1352  H     0.10169   0.31429   0.66451   0.00000  Uiso   1.00
C1353  C     0.26050   0.28493   0.82082   0.00000  Uiso   1.00
C1354  C     0.21211   0.28489   0.80813   0.00000  Uiso   1.00
H1355  H     0.21072   0.30998   0.78292   0.00000  Uiso   1.00
H1356  H     0.20540   0.25499   0.79377   0.00000  Uiso   1.00
H1357  H     0.18254   0.28986   0.83853   0.00000  Uiso   1.00
H1358  H     0.27096   0.25286   0.82542   0.00000  Uiso   1.00
H1359  H     0.25661   0.29685   0.85525   0.00000  Uiso   1.00
C1360  C     0.05354   0.04786   0.67072   0.00000  Uiso   1.00
C1361  C     0.10422   0.06538   0.66760   0.00000  Uiso   1.00
H1362  H     0.10330   0.09549   0.68361   0.00000  Uiso   1.00
H1363  H     0.12503   0.04447   0.68394   0.00000  Uiso   1.00
H1364  H     0.12355   0.07052   0.63130   0.00000  Uiso   1.00
H1365  H     0.05461   0.02755   0.64179   0.00000  Uiso   1.00
H1366  H     0.03100   0.07357   0.66488   0.00000  Uiso   1.00
C1367  C     0.10325   0.10965   0.81261   0.00000  Uiso   1.00
C1368  C     0.11629   0.06600   0.79756   0.00000  Uiso   1.00
H1369  H     0.08961   0.04333   0.81830   0.00000  Uiso   1.00
H1370  H     0.11604   0.06286   0.76149   0.00000  Uiso   1.00
H1371  H     0.15241   0.05849   0.80174   0.00000  Uiso   1.00
H1372  H     0.10855   0.11335   0.84720   0.00000  Uiso   1.00
H1373  H     0.06489   0.11248   0.81627   0.00000  Uiso   1.00
C1374  C     0.23318   0.21637   0.68049   0.00000  Uiso   1.00
C1375  C     0.21885   0.26092   0.67770   0.00000  Uiso   1.00
H1376  H     0.18677   0.26322   0.66398   0.00000  Uiso   1.00
H1377  H     0.21278   0.27436   0.71159   0.00000  Uiso   1.00
H1378  H     0.24853   0.27915   0.65436   0.00000  Uiso   1.00
H1379  H     0.26947   0.21925   0.68435   0.00000  Uiso   1.00
H1380  H     0.23468   0.20186   0.64765   0.00000  Uiso   1.00
C1381  C     0.66580   0.08768   0.75091   0.00000  Uiso   1.00
C1382  C     0.33375   0.24598   0.75038   0.00000  Uiso   1.00
C1383  C     0.52735   0.17474   0.54923   0.00000  Uiso   1.00
C1384  C     0.47968   0.12809   0.95880   0.00000  Uiso   1.00
C1385  C     0.57530   0.18338   0.52684   0.00000  Uiso   1.00
C1386  C     0.43127   0.12102   0.98068   0.00000  Uiso   1.00
C1387  C     0.63233   0.02034   0.78668   0.00000  Uiso   1.00
C1388  C     0.36866   0.31482   0.71927   0.00000  Uiso   1.00
C1389  C     0.63185   0.31023   0.78566   0.00000  Uiso   1.00
C1390  C     0.36325   0.02409   0.71531   0.00000  Uiso   1.00
C1391  C     0.33403   0.29098   0.75219   0.00000  Uiso   1.00
C1392  C     0.66428   0.04327   0.75077   0.00000  Uiso   1.00
C1393  C     0.51669   0.14282   0.78053   0.00000  Uiso   1.00
C1394  C     0.48362   0.18962   0.71859   0.00000  Uiso   1.00
C1395  C     0.46750   0.14156   0.78019   0.00000  Uiso   1.00
C1396  C     0.53305   0.19054   0.71845   0.00000  Uiso   1.00
C1397  C     0.63980   0.16611   0.83652   0.00000  Uiso   1.00
C1398  C     0.36028   0.16579   0.66362   0.00000  Uiso   1.00
C1399  C     0.62586   0.16595   0.88682   0.00000  Uiso   1.00
C1400  C     0.37526   0.15961   0.61422   0.00000  Uiso   1.00
C1401  C     0.64112   0.18147   0.95923   0.00000  Uiso   1.00
C1402  C     0.36321   0.13048   0.54549   0.00000  Uiso   1.00
C1403  C     0.65892   0.17745   0.91193   0.00000  Uiso   1.00
C1404  C     0.34454   0.14149   0.59047   0.00000  Uiso   1.00
C1405  C     0.57786   0.15558   0.90936   0.00000  Uiso   1.00
C1406  C     0.42383   0.16713   0.59205   0.00000  Uiso   1.00
C1407  C     0.56043   0.15838   0.95674   0.00000  Uiso   1.00
C1408  C     0.44401   0.15372   0.54793   0.00000  Uiso   1.00
C1409  C     0.59237   0.17405   0.98106   0.00000  Uiso   1.00
C1410  C     0.41271   0.13506   0.52455   0.00000  Uiso   1.00
C1411  C     0.51158   0.14841   0.98009   0.00000  Uiso   1.00
C1412  C     0.49414   0.15902   0.52626   0.00000  Uiso   1.00
Cu1413 Cu    0.38022   0.16667   0.75000   0.00000  Uiso   1.00
Cu1414 Cu    0.61978   0.16666   0.75000   0.00000  Uiso   1.00
H1415  H     0.44521   0.18349   0.61054   0.00000  Uiso   1.00
H1416  H     0.55402   0.14712   0.88874   0.00000  Uiso   1.00
H1417  H     0.66462   0.19100   0.97977   0.00000  Uiso   1.00
H1418  H     0.33871   0.11715   0.52764   0.00000  Uiso   1.00
H1419  H     0.51776   0.18029   0.58500   0.00000  Uiso   1.00
H1420  H     0.49128   0.11660   0.92507   0.00000  Uiso   1.00
H1421  H     0.52905   0.12369   0.80471   0.00000  Uiso   1.00
H1422  H     0.47144   0.20708   0.69310   0.00000  Uiso   1.00
N1423  N     0.45069   0.16668   0.74999   0.00000  Uiso   1.00
N1424  N     0.54931   0.16666   0.75001   0.00000  Uiso   1.00
O1425  O     0.37291   0.10655   0.75000   0.00000  Uiso   1.00
O1426  O     0.62709   0.22678   0.75000   0.00000  Uiso   1.00
O1427  O     0.62706   0.10654   0.75001   0.00000  Uiso   1.00
O1428  O     0.37294   0.22679   0.75000   0.00000  Uiso   1.00
O1429  O     0.35186   0.16668   0.81492   0.00000  Uiso   1.00
O1430  O     0.64814   0.16666   0.68509   0.00000  Uiso   1.00
O1431  O     0.60600   0.16667   0.81492   0.00000  Uiso   1.00
O1432  O     0.39400   0.16667   0.68508   0.00000  Uiso   1.00
O1433  O     0.60631   0.20052   0.55004   0.00000  Uiso   1.00
C1434  C     0.59641   0.24257   0.55778   0.00000  Uiso   1.00
H1435  H     0.61682   0.25279   0.58213   0.00000  Uiso   1.00
H1436  H     0.55772   0.24720   0.57408   0.00000  Uiso   1.00
C1437  C     0.61328   0.26983   0.51418   0.00000  Uiso   1.00
H1438  H     0.65176   0.26450   0.99815   0.00000  Uiso   1.00
H1439  H     0.59185   0.26192   0.98977   0.00000  Uiso   1.00
C1440  C     0.60741   0.31538   0.52426   0.00000  Uiso   1.00
H1441  H     0.56971   0.32119   0.54260   0.00000  Uiso   1.00
H1442  H     0.61636   0.00076   0.99196   0.00000  Uiso   1.00
H1443  H     0.63202   0.32520   0.54507   0.00000  Uiso   1.00
O1444  O     0.40132   0.10365   0.95675   0.00000  Uiso   1.00
C1445  C     0.39833   0.06036   0.96405   0.00000  Uiso   1.00
H1446  H     0.36136   0.05161   0.98429   0.00000  Uiso   1.00
H1447  H     0.42405   0.04788   0.98280   0.00000  Uiso   1.00
C1448  C     0.40757   0.04035   0.91806   0.00000  Uiso   1.00
H1449  H     0.38395   0.05400   0.89815   0.00000  Uiso   1.00
H1450  H     0.44564   0.04666   0.89918   0.00000  Uiso   1.00
C1451  C     0.39773   0.32728   0.92319   0.00000  Uiso   1.00
H1452  H     0.41771   0.31324   0.94630   0.00000  Uiso   1.00
H1453  H     0.40932   0.31340   0.88942   0.00000  Uiso   1.00
H1454  H     0.35872   0.32042   0.93705   0.00000  Uiso   1.00
O1455  O     0.62934   0.13507   0.61046   0.00000  Uiso   1.00
C1456  C     0.61988   0.09329   0.62512   0.00000  Uiso   1.00
H1457  H     0.61706   0.09077   0.66218   0.00000  Uiso   1.00
H1458  H     0.64809   0.07198   0.60772   0.00000  Uiso   1.00
C1459  C     0.57211   0.07890   0.61667   0.00000  Uiso   1.00
H1460  H     0.54312   0.09920   0.63405   0.00000  Uiso   1.00
H1461  H     0.57482   0.08090   0.57959   0.00000  Uiso   1.00
C1462  C     0.55951   0.03452   0.63426   0.00000  Uiso   1.00
H1463  H     0.58968   0.01432   0.61984   0.00000  Uiso   1.00
H1464  H     0.52732   0.02312   0.62396   0.00000  Uiso   1.00
H1465  H     0.55200   0.03269   0.67190   0.00000  Uiso   1.00
O1466  O     0.37411   0.18330   0.88871   0.00000  Uiso   1.00
C1467  C     0.40211   0.20567   0.91241   0.00000  Uiso   1.00
H1468  H     0.40415   0.18836   0.94368   0.00000  Uiso   1.00
H1469  H     0.38704   0.23652   0.92071   0.00000  Uiso   1.00
C1470  C     0.45363   0.21088   0.88319   0.00000  Uiso   1.00
H1471  H     0.46800   0.18007   0.87374   0.00000  Uiso   1.00
H1472  H     0.45417   0.22898   0.85151   0.00000  Uiso   1.00
C1473  C     0.48586   0.23236   0.90900   0.00000  Uiso   1.00
H1474  H     0.47667   0.26514   0.91328   0.00000  Uiso   1.00
H1475  H     0.52405   0.23053   0.88994   0.00000  Uiso   1.00
H1476  H     0.48155   0.21759   0.94312   0.00000  Uiso   1.00
C1477  C     0.60065   0.04207   0.82701   0.00000  Uiso   1.00
C1478  C     0.62744   0.04906   0.86360   0.00000  Uiso   1.00
H1479  H     0.63936   0.01940   0.87539   0.00000  Uiso   1.00
H1480  H     0.65931   0.06986   0.85005   0.00000  Uiso   1.00
H1481  H     0.60342   0.06357   0.89307   0.00000  Uiso   1.00
H1482  H     0.58816   0.07192   0.81718   0.00000  Uiso   1.00
H1483  H     0.56634   0.02498   0.84213   0.00000  Uiso   1.00
C1484  C     0.41679   0.29727   0.69646   0.00000  Uiso   1.00
C1485  C     0.44913   0.29898   0.72966   0.00000  Uiso   1.00
H1486  H     0.43205   0.31433   0.76161   0.00000  Uiso   1.00
H1487  H     0.45769   0.26761   0.73952   0.00000  Uiso   1.00
H1488  H     0.48279   0.31684   0.71391   0.00000  Uiso   1.00
H1489  H     0.41307   0.26571   0.68480   0.00000  Uiso   1.00
H1490  H     0.43503   0.31429   0.66451   0.00000  Uiso   1.00
C1491  C     0.59383   0.28493   0.82082   0.00000  Uiso   1.00
C1492  C     0.54544   0.28489   0.80813   0.00000  Uiso   1.00
H1493  H     0.54406   0.30998   0.78292   0.00000  Uiso   1.00
H1494  H     0.53873   0.25499   0.79377   0.00000  Uiso   1.00
H1495  H     0.51587   0.28986   0.83853   0.00000  Uiso   1.00
H1496  H     0.60429   0.25286   0.82542   0.00000  Uiso   1.00
H1497  H     0.58995   0.29685   0.85525   0.00000  Uiso   1.00
C1498  C     0.38688   0.04786   0.67072   0.00000  Uiso   1.00
C1499  C     0.43755   0.06538   0.66760   0.00000  Uiso   1.00
H1500  H     0.43664   0.09549   0.68361   0.00000  Uiso   1.00
H1501  H     0.45836   0.04447   0.68394   0.00000  Uiso   1.00
H1502  H     0.45688   0.07052   0.63130   0.00000  Uiso   1.00
H1503  H     0.38794   0.02755   0.64179   0.00000  Uiso   1.00
H1504  H     0.36434   0.07357   0.66488   0.00000  Uiso   1.00
C1505  C     0.43658   0.10965   0.81261   0.00000  Uiso   1.00
C1506  C     0.44962   0.06600   0.79756   0.00000  Uiso   1.00
H1507  H     0.42294   0.04333   0.81830   0.00000  Uiso   1.00
H1508  H     0.44937   0.06286   0.76149   0.00000  Uiso   1.00
H1509  H     0.48575   0.05849   0.80174   0.00000  Uiso   1.00
H1510  H     0.44188   0.11335   0.84720   0.00000  Uiso   1.00
H1511  H     0.39822   0.11248   0.81627   0.00000  Uiso   1.00
C1512  C     0.56652   0.21637   0.68049   0.00000  Uiso   1.00
C1513  C     0.55218   0.26092   0.67770   0.00000  Uiso   1.00
H1514  H     0.52010   0.26322   0.66398   0.00000  Uiso   1.00
H1515  H     0.54611   0.27436   0.71159   0.00000  Uiso   1.00
H1516  H     0.58187   0.27915   0.65436   0.00000  Uiso   1.00
H1517  H     0.60280   0.21925   0.68435   0.00000  Uiso   1.00
H1518  H     0.56801   0.20186   0.64765   0.00000  Uiso   1.00
C1519  C     0.99913   0.08768   0.75091   0.00000  Uiso   1.00
C1520  C     0.66708   0.24598   0.75038   0.00000  Uiso   1.00
C1521  C     0.86068   0.17474   0.54923   0.00000  Uiso   1.00
C1522  C     0.81301   0.12809   0.95880   0.00000  Uiso   1.00
C1523  C     0.90863   0.18338   0.52684   0.00000  Uiso   1.00
C1524  C     0.76460   0.12102   0.98068   0.00000  Uiso   1.00
C1525  C     0.96567   0.02034   0.78668   0.00000  Uiso   1.00
C1526  C     0.70199   0.31482   0.71927   0.00000  Uiso   1.00
C1527  C     0.96519   0.31023   0.78566   0.00000  Uiso   1.00
C1528  C     0.69658   0.02409   0.71531   0.00000  Uiso   1.00
C1529  C     0.66736   0.29098   0.75219   0.00000  Uiso   1.00
C1530  C     0.99762   0.04327   0.75077   0.00000  Uiso   1.00
C1531  C     0.85002   0.14282   0.78053   0.00000  Uiso   1.00
C1532  C     0.81695   0.18962   0.71859   0.00000  Uiso   1.00
C1533  C     0.80083   0.14156   0.78019   0.00000  Uiso   1.00
C1534  C     0.86638   0.19054   0.71845   0.00000  Uiso   1.00
C1535  C     0.97313   0.16611   0.83652   0.00000  Uiso   1.00
C1536  C     0.69361   0.16579   0.66362   0.00000  Uiso   1.00
C1537  C     0.95919   0.16595   0.88682   0.00000  Uiso   1.00
C1538  C     0.70859   0.15961   0.61422   0.00000  Uiso   1.00
C1539  C     0.97445   0.18147   0.95923   0.00000  Uiso   1.00
C1540  C     0.69654   0.13048   0.54549   0.00000  Uiso   1.00
C1541  C     0.99225   0.17745   0.91193   0.00000  Uiso   1.00
C1542  C     0.67787   0.14149   0.59047   0.00000  Uiso   1.00
C1543  C     0.91119   0.15558   0.90936   0.00000  Uiso   1.00
C1544  C     0.75716   0.16713   0.59205   0.00000  Uiso   1.00
C1545  C     0.89376   0.15838   0.95674   0.00000  Uiso   1.00
C1546  C     0.77735   0.15372   0.54793   0.00000  Uiso   1.00
C1547  C     0.92570   0.17405   0.98106   0.00000  Uiso   1.00
C1548  C     0.74605   0.13506   0.52455   0.00000  Uiso   1.00
C1549  C     0.84491   0.14841   0.98009   0.00000  Uiso   1.00
C1550  C     0.82747   0.15902   0.52626   0.00000  Uiso   1.00
Cu1551 Cu    0.71355   0.16667   0.75000   0.00000  Uiso   1.00
Cu1552 Cu    0.95311   0.16666   0.75000   0.00000  Uiso   1.00
H1553  H     0.77855   0.18349   0.61054   0.00000  Uiso   1.00
H1554  H     0.88736   0.14712   0.88874   0.00000  Uiso   1.00
H1555  H     0.99795   0.19100   0.97977   0.00000  Uiso   1.00
H1556  H     0.67205   0.11715   0.52764   0.00000  Uiso   1.00
H1557  H     0.85110   0.18029   0.58500   0.00000  Uiso   1.00
H1558  H     0.82461   0.11660   0.92507   0.00000  Uiso   1.00
H1559  H     0.86239   0.12369   0.80471   0.00000  Uiso   1.00
H1560  H     0.80478   0.20708   0.69310   0.00000  Uiso   1.00
N1561  N     0.78403   0.16668   0.74999   0.00000  Uiso   1.00
N1562  N     0.88264   0.16666   0.75001   0.00000  Uiso   1.00
O1563  O     0.70625   0.10655   0.75000   0.00000  Uiso   1.00
O1564  O     0.96042   0.22678   0.75000   0.00000  Uiso   1.00
O1565  O     0.96039   0.10654   0.75001   0.00000  Uiso   1.00
O1566  O     0.70628   0.22679   0.75000   0.00000  Uiso   1.00
O1567  O     0.68519   0.16668   0.81492   0.00000  Uiso   1.00
O1568  O     0.98148   0.16666   0.68509   0.00000  Uiso   1.00
O1569  O     0.93933   0.16667   0.81492   0.00000  Uiso   1.00
O1570  O     0.72733   0.16667   0.68508   0.00000  Uiso   1.00
O1571  O     0.93964   0.20052   0.55004   0.00000  Uiso   1.00
C1572  C     0.92974   0.24257   0.55778   0.00000  Uiso   1.00
H1573  H     0.95015   0.25279   0.58213   0.00000  Uiso   1.00
H1574  H     0.89105   0.24720   0.57408   0.00000  Uiso   1.00
C1575  C     0.94662   0.26983   0.51418   0.00000  Uiso   1.00
H1576  H     0.98509   0.26450   0.99815   0.00000  Uiso   1.00
H1577  H     0.92519   0.26192   0.98977   0.00000  Uiso   1.00
C1578  C     0.94075   0.31538   0.52426   0.00000  Uiso   1.00
H1579  H     0.90305   0.32119   0.54260   0.00000  Uiso   1.00
H1580  H     0.94969   0.00076   0.99196   0.00000  Uiso   1.00
H1581  H     0.96536   0.32520   0.54507   0.00000  Uiso   1.00
O1582  O     0.73465   0.10365   0.95675   0.00000  Uiso   1.00
C1583  C     0.73167   0.06036   0.96405   0.00000  Uiso   1.00
H1584  H     0.69470   0.05161   0.98429   0.00000  Uiso   1.00
H1585  H     0.75738   0.04788   0.98280   0.00000  Uiso   1.00
C1586  C     0.74090   0.04035   0.91806   0.00000  Uiso   1.00
H1587  H     0.71728   0.05400   0.89815   0.00000  Uiso   1.00
H1588  H     0.77897   0.04666   0.89918   0.00000  Uiso   1.00
C1589  C     0.73106   0.32728   0.92319   0.00000  Uiso   1.00
H1590  H     0.75105   0.31324   0.94630   0.00000  Uiso   1.00
H1591  H     0.74266   0.31340   0.88942   0.00000  Uiso   1.00
H1592  H     0.69205   0.32042   0.93705   0.00000  Uiso   1.00
O1593  O     0.96267   0.13507   0.61046   0.00000  Uiso   1.00
C1594  C     0.95321   0.09329   0.62512   0.00000  Uiso   1.00
H1595  H     0.95039   0.09077   0.66218   0.00000  Uiso   1.00
H1596  H     0.98142   0.07198   0.60772   0.00000  Uiso   1.00
C1597  C     0.90545   0.07890   0.61667   0.00000  Uiso   1.00
H1598  H     0.87645   0.09920   0.63405   0.00000  Uiso   1.00
H1599  H     0.90815   0.08090   0.57959   0.00000  Uiso   1.00
C1600  C     0.89284   0.03452   0.63426   0.00000  Uiso   1.00
H1601  H     0.92302   0.01432   0.61984   0.00000  Uiso   1.00
H1602  H     0.86065   0.02312   0.62396   0.00000  Uiso   1.00
H1603  H     0.88534   0.03269   0.67190   0.00000  Uiso   1.00
O1604  O     0.70744   0.18330   0.88871   0.00000  Uiso   1.00
C1605  C     0.73544   0.20567   0.91241   0.00000  Uiso   1.00
H1606  H     0.73748   0.18836   0.94368   0.00000  Uiso   1.00
H1607  H     0.72037   0.23652   0.92071   0.00000  Uiso   1.00
C1608  C     0.78696   0.21088   0.88319   0.00000  Uiso   1.00
H1609  H     0.80133   0.18007   0.87374   0.00000  Uiso   1.00
H1610  H     0.78750   0.22898   0.85151   0.00000  Uiso   1.00
C1611  C     0.81919   0.23236   0.90900   0.00000  Uiso   1.00
H1612  H     0.81000   0.26514   0.91328   0.00000  Uiso   1.00
H1613  H     0.85739   0.23053   0.88994   0.00000  Uiso   1.00
H1614  H     0.81488   0.21759   0.94312   0.00000  Uiso   1.00
C1615  C     0.93399   0.04207   0.82701   0.00000  Uiso   1.00
C1616  C     0.96077   0.04906   0.86360   0.00000  Uiso   1.00
H1617  H     0.97269   0.01940   0.87539   0.00000  Uiso   1.00
H1618  H     0.99264   0.06986   0.85005   0.00000  Uiso   1.00
H1619  H     0.93675   0.06357   0.89307   0.00000  Uiso   1.00
H1620  H     0.92149   0.07192   0.81718   0.00000  Uiso   1.00
H1621  H     0.89967   0.02498   0.84213   0.00000  Uiso   1.00
C1622  C     0.75012   0.29727   0.69646   0.00000  Uiso   1.00
C1623  C     0.78247   0.29898   0.72966   0.00000  Uiso   1.00
H1624  H     0.76539   0.31433   0.76161   0.00000  Uiso   1.00
H1625  H     0.79103   0.26761   0.73952   0.00000  Uiso   1.00
H1626  H     0.81612   0.31684   0.71391   0.00000  Uiso   1.00
H1627  H     0.74641   0.26571   0.68480   0.00000  Uiso   1.00
H1628  H     0.76836   0.31429   0.66451   0.00000  Uiso   1.00
C1629  C     0.92717   0.28493   0.82082   0.00000  Uiso   1.00
C1630  C     0.87878   0.28489   0.80813   0.00000  Uiso   1.00
H1631  H     0.87739   0.30998   0.78292   0.00000  Uiso   1.00
H1632  H     0.87207   0.25499   0.79377   0.00000  Uiso   1.00
H1633  H     0.84920   0.28986   0.83853   0.00000  Uiso   1.00
H1634  H     0.93762   0.25286   0.82542   0.00000  Uiso   1.00
H1635  H     0.92328   0.29685   0.85525   0.00000  Uiso   1.00
C1636  C     0.72021   0.04786   0.67072   0.00000  Uiso   1.00
C1637  C     0.77088   0.06538   0.66760   0.00000  Uiso   1.00
H1638  H     0.76997   0.09549   0.68361   0.00000  Uiso   1.00
H1639  H     0.79169   0.04447   0.68394   0.00000  Uiso   1.00
H1640  H     0.79022   0.07052   0.63130   0.00000  Uiso   1.00
H1641  H     0.72127   0.02755   0.64179   0.00000  Uiso   1.00
H1642  H     0.69767   0.07357   0.66488   0.00000  Uiso   1.00
C1643  C     0.76992   0.10965   0.81261   0.00000  Uiso   1.00
C1644  C     0.78295   0.06600   0.79756   0.00000  Uiso   1.00
H1645  H     0.75627   0.04333   0.81830   0.00000  Uiso   1.00
H1646  H     0.78270   0.06286   0.76149   0.00000  Uiso   1.00
H1647  H     0.81908   0.05849   0.80174   0.00000  Uiso   1.00
H1648  H     0.77521   0.11335   0.84720   0.00000  Uiso   1.00
H1649  H     0.73156   0.11248   0.81627   0.00000  Uiso   1.00
C1650  C     0.89985   0.21637   0.68049   0.00000  Uiso   1.00
C1651  C     0.88551   0.26092   0.67770   0.00000  Uiso   1.00
H1652  H     0.85344   0.26322   0.66398   0.00000  Uiso   1.00
H1653  H     0.87944   0.27436   0.71159   0.00000  Uiso   1.00
H1654  H     0.91520   0.27915   0.65436   0.00000  Uiso   1.00
H1655  H     0.93614   0.21925   0.68435   0.00000  Uiso   1.00
H1656  H     0.90134   0.20186   0.64765   0.00000  Uiso   1.00
C1657  C     0.33246   0.42101   0.75091   0.00000  Uiso   1.00
C1658  C     0.00042   0.57932   0.75038   0.00000  Uiso   1.00
C1659  C     0.19401   0.50808   0.54923   0.00000  Uiso   1.00
C1660  C     0.14634   0.46142   0.95880   0.00000  Uiso   1.00
C1661  C     0.24197   0.51671   0.52684   0.00000  Uiso   1.00
C1662  C     0.09794   0.45435   0.98068   0.00000  Uiso   1.00
C1663  C     0.29900   0.35368   0.78668   0.00000  Uiso   1.00
C1664  C     0.03532   0.64815   0.71927   0.00000  Uiso   1.00
C1665  C     0.29852   0.64356   0.78566   0.00000  Uiso   1.00
C1666  C     0.02991   0.35742   0.71531   0.00000  Uiso   1.00
C1667  C     0.00070   0.62431   0.75219   0.00000  Uiso   1.00
C1668  C     0.33095   0.37661   0.75077   0.00000  Uiso   1.00
C1669  C     0.18335   0.47615   0.78053   0.00000  Uiso   1.00
C1670  C     0.15028   0.52296   0.71859   0.00000  Uiso   1.00
C1671  C     0.13416   0.47489   0.78019   0.00000  Uiso   1.00
C1672  C     0.19972   0.52387   0.71845   0.00000  Uiso   1.00
C1673  C     0.30646   0.49945   0.83652   0.00000  Uiso   1.00
C1674  C     0.02694   0.49912   0.66362   0.00000  Uiso   1.00
C1675  C     0.29253   0.49928   0.88682   0.00000  Uiso   1.00
C1676  C     0.04192   0.49294   0.61422   0.00000  Uiso   1.00
C1677  C     0.30779   0.51480   0.95923   0.00000  Uiso   1.00
C1678  C     0.02988   0.46381   0.54549   0.00000  Uiso   1.00
C1679  C     0.32559   0.51079   0.91193   0.00000  Uiso   1.00
C1680  C     0.01120   0.47482   0.59047   0.00000  Uiso   1.00
C1681  C     0.24453   0.48891   0.90936   0.00000  Uiso   1.00
C1682  C     0.09050   0.50046   0.59205   0.00000  Uiso   1.00
C1683  C     0.22710   0.49171   0.95674   0.00000  Uiso   1.00
C1684  C     0.11068   0.48705   0.54793   0.00000  Uiso   1.00
C1685  C     0.25903   0.50739   0.98106   0.00000  Uiso   1.00
C1686  C     0.07938   0.46840   0.52455   0.00000  Uiso   1.00
C1687  C     0.17824   0.48175   0.98009   0.00000  Uiso   1.00
C1688  C     0.16080   0.49235   0.52626   0.00000  Uiso   1.00
Cu1689 Cu    0.04689   0.50001   0.75000   0.00000  Uiso   1.00
Cu1690 Cu    0.28645   0.49999   0.75000   0.00000  Uiso   1.00
H1691  H     0.11188   0.51682   0.61054   0.00000  Uiso   1.00
H1692  H     0.22069   0.48045   0.88874   0.00000  Uiso   1.00
H1693  H     0.33128   0.52433   0.97977   0.00000  Uiso   1.00
H1694  H     0.00538   0.45049   0.52764   0.00000  Uiso   1.00
H1695  H     0.18443   0.51363   0.58500   0.00000  Uiso   1.00
H1696  H     0.15795   0.44994   0.92507   0.00000  Uiso   1.00
H1697  H     0.19572   0.45703   0.80471   0.00000  Uiso   1.00
H1698  H     0.13811   0.54042   0.69310   0.00000  Uiso   1.00
N1699  N     0.11736   0.50001   0.74999   0.00000  Uiso   1.00
N1700  N     0.21597   0.49999   0.75001   0.00000  Uiso   1.00
O1701  O     0.03958   0.43989   0.75000   0.00000  Uiso   1.00
O1702  O     0.29375   0.56011   0.75000   0.00000  Uiso   1.00
O1703  O     0.29372   0.43988   0.75001   0.00000  Uiso   1.00
O1704  O     0.03961   0.56012   0.75000   0.00000  Uiso   1.00
O1705  O     0.01852   0.50001   0.81492   0.00000  Uiso   1.00
O1706  O     0.31481   0.49999   0.68509   0.00000  Uiso   1.00
O1707  O     0.27267   0.50000   0.81492   0.00000  Uiso   1.00
O1708  O     0.06067   0.50000   0.68508   0.00000  Uiso   1.00
O1709  O     0.27298   0.53386   0.55004   0.00000  Uiso   1.00
C1710  C     0.26307   0.57591   0.55778   0.00000  Uiso   1.00
H1711  H     0.28348   0.58613   0.58213   0.00000  Uiso   1.00
H1712  H     0.22439   0.58053   0.57408   0.00000  Uiso   1.00
C1713  C     0.27995   0.60316   0.51418   0.00000  Uiso   1.00
H1714  H     0.31842   0.59784   0.99815   0.00000  Uiso   1.00
H1715  H     0.25852   0.59526   0.98977   0.00000  Uiso   1.00
C1716  C     0.27408   0.64871   0.52426   0.00000  Uiso   1.00
H1717  H     0.23638   0.65452   0.54260   0.00000  Uiso   1.00
H1718  H     0.28302   0.33409   0.99196   0.00000  Uiso   1.00
H1719  H     0.29869   0.65853   0.54507   0.00000  Uiso   1.00
O1720  O     0.06799   0.43698   0.95675   0.00000  Uiso   1.00
C1721  C     0.06500   0.39369   0.96405   0.00000  Uiso   1.00
H1722  H     0.02803   0.38495   0.98429   0.00000  Uiso   1.00
H1723  H     0.09072   0.38121   0.98280   0.00000  Uiso   1.00
C1724  C     0.07423   0.37368   0.91806   0.00000  Uiso   1.00
H1725  H     0.05061   0.38734   0.89815   0.00000  Uiso   1.00
H1726  H     0.11230   0.38000   0.89918   0.00000  Uiso   1.00
C1727  C     0.06439   0.66061   0.92319   0.00000  Uiso   1.00
H1728  H     0.08438   0.64657   0.94630   0.00000  Uiso   1.00
H1729  H     0.07599   0.64674   0.88942   0.00000  Uiso   1.00
H1730  H     0.02539   0.65376   0.93705   0.00000  Uiso   1.00
O1731  O     0.29601   0.46840   0.61046   0.00000  Uiso   1.00
C1732  C     0.28655   0.42662   0.62512   0.00000  Uiso   1.00
H1733  H     0.28373   0.42410   0.66218   0.00000  Uiso   1.00
H1734  H     0.31476   0.40531   0.60772   0.00000  Uiso   1.00
C1735  C     0.23878   0.41223   0.61667   0.00000  Uiso   1.00
H1736  H     0.20978   0.43254   0.63405   0.00000  Uiso   1.00
H1737  H     0.24149   0.41423   0.57959   0.00000  Uiso   1.00
C1738  C     0.22618   0.36786   0.63426   0.00000  Uiso   1.00
H1739  H     0.25635   0.34766   0.61984   0.00000  Uiso   1.00
H1740  H     0.19399   0.35645   0.62396   0.00000  Uiso   1.00
H1741  H     0.21867   0.36603   0.67190   0.00000  Uiso   1.00
O1742  O     0.04077   0.51664   0.88871   0.00000  Uiso   1.00
C1743  C     0.06877   0.53900   0.91241   0.00000  Uiso   1.00
H1744  H     0.07081   0.52169   0.94368   0.00000  Uiso   1.00
H1745  H     0.05370   0.56985   0.92071   0.00000  Uiso   1.00
C1746  C     0.12030   0.54421   0.88319   0.00000  Uiso   1.00
H1747  H     0.13466   0.51341   0.87374   0.00000  Uiso   1.00
H1748  H     0.12084   0.56232   0.85151   0.00000  Uiso   1.00
C1749  C     0.15253   0.56569   0.90900   0.00000  Uiso   1.00
H1750  H     0.14334   0.59847   0.91328   0.00000  Uiso   1.00
H1751  H     0.19072   0.56387   0.88994   0.00000  Uiso   1.00
H1752  H     0.14821   0.55093   0.94312   0.00000  Uiso   1.00
C1753  C     0.26732   0.37540   0.82701   0.00000  Uiso   1.00
C1754  C     0.29411   0.38239   0.86360   0.00000  Uiso   1.00
H1755  H     0.30603   0.35274   0.87539   0.00000  Uiso   1.00
H1756  H     0.32597   0.40320   0.85005   0.00000  Uiso   1.00
H1757  H     0.27009   0.39691   0.89307   0.00000  Uiso   1.00
H1758  H     0.25483   0.40526   0.81718   0.00000  Uiso   1.00
H1759  H     0.23300   0.35831   0.84213   0.00000  Uiso   1.00
C1760  C     0.08345   0.63060   0.69646   0.00000  Uiso   1.00
C1761  C     0.11580   0.63231   0.72966   0.00000  Uiso   1.00
H1762  H     0.09872   0.64766   0.76161   0.00000  Uiso   1.00
H1763  H     0.12436   0.60094   0.73952   0.00000  Uiso   1.00
H1764  H     0.14945   0.65018   0.71391   0.00000  Uiso   1.00
H1765  H     0.07974   0.59904   0.68480   0.00000  Uiso   1.00
H1766  H     0.10169   0.64763   0.66451   0.00000  Uiso   1.00
C1767  C     0.26050   0.61827   0.82082   0.00000  Uiso   1.00
C1768  C     0.21211   0.61822   0.80813   0.00000  Uiso   1.00
H1769  H     0.21072   0.64331   0.78292   0.00000  Uiso   1.00
H1770  H     0.20540   0.58832   0.79377   0.00000  Uiso   1.00
H1771  H     0.18254   0.62319   0.83853   0.00000  Uiso   1.00
H1772  H     0.27096   0.58619   0.82542   0.00000  Uiso   1.00
H1773  H     0.25661   0.63019   0.85525   0.00000  Uiso   1.00
C1774  C     0.05354   0.38119   0.67072   0.00000  Uiso   1.00
C1775  C     0.10422   0.39871   0.66760   0.00000  Uiso   1.00
H1776  H     0.10330   0.42882   0.68361   0.00000  Uiso   1.00
H1777  H     0.12503   0.37780   0.68394   0.00000  Uiso   1.00
H1778  H     0.12355   0.40385   0.63130   0.00000  Uiso   1.00
H1779  H     0.05461   0.36088   0.64179   0.00000  Uiso   1.00
H1780  H     0.03100   0.40691   0.66488   0.00000  Uiso   1.00
C1781  C     0.10325   0.44298   0.81261   0.00000  Uiso   1.00
C1782  C     0.11629   0.39933   0.79756   0.00000  Uiso   1.00
H1783  H     0.08961   0.37667   0.81830   0.00000  Uiso   1.00
H1784  H     0.11604   0.39619   0.76149   0.00000  Uiso   1.00
H1785  H     0.15241   0.39183   0.80174   0.00000  Uiso   1.00
H1786  H     0.10855   0.44668   0.84720   0.00000  Uiso   1.00
H1787  H     0.06489   0.44581   0.81627   0.00000  Uiso   1.00
C1788  C     0.23318   0.54971   0.68049   0.00000  Uiso   1.00
C1789  C     0.21885   0.59426   0.67770   0.00000  Uiso   1.00
H1790  H     0.18677   0.59655   0.66398   0.00000  Uiso   1.00
H1791  H     0.21278   0.60770   0.71159   0.00000  Uiso   1.00
H1792  H     0.24853   0.61248   0.65436   0.00000  Uiso   1.00
H1793  H     0.26947   0.55258   0.68435   0.00000  Uiso   1.00
H1794  H     0.23468   0.53520   0.64765   0.00000  Uiso   1.00
C1795  C     0.66580   0.42101   0.75091   0.00000  Uiso   1.00
C1796  C     0.33375   0.57932   0.75038   0.00000  Uiso   1.00
C1797  C     0.52735   0.50808   0.54923   0.00000  Uiso   1.00
C1798  C     0.47968   0.46142   0.95880   0.00000  Uiso   1.00
C1799  C     0.57530   0.51671   0.52684   0.00000  Uiso   1.00
C1800  C     0.43127   0.45435   0.98068   0.00000  Uiso   1.00
C1801  C     0.63233   0.35368   0.78668   0.00000  Uiso   1.00
C1802  C     0.36866   0.64815   0.71927   0.00000  Uiso   1.00
C1803  C     0.63185   0.64356   0.78566   0.00000  Uiso   1.00
C1804  C     0.36325   0.35742   0.71531   0.00000  Uiso   1.00
C1805  C     0.33403   0.62431   0.75219   0.00000  Uiso   1.00
C1806  C     0.66428   0.37661   0.75077   0.00000  Uiso   1.00
C1807  C     0.51669   0.47615   0.78053   0.00000  Uiso   1.00
C1808  C     0.48362   0.52296   0.71859   0.00000  Uiso   1.00
C1809  C     0.46750   0.47489   0.78019   0.00000  Uiso   1.00
C1810  C     0.53305   0.52387   0.71845   0.00000  Uiso   1.00
C1811  C     0.63980   0.49945   0.83652   0.00000  Uiso   1.00
C1812  C     0.36028   0.49912   0.66362   0.00000  Uiso   1.00
C1813  C     0.62586   0.49928   0.88682   0.00000  Uiso   1.00
C1814  C     0.37526   0.49294   0.61422   0.00000  Uiso   1.00
C1815  C     0.64112   0.51480   0.95923   0.00000  Uiso   1.00
C1816  C     0.36321   0.46381   0.54549   0.00000  Uiso   1.00
C1817  C     0.65892   0.51079   0.91193   0.00000  Uiso   1.00
C1818  C     0.34454   0.47482   0.59047   0.00000  Uiso   1.00
C1819  C     0.57786   0.48891   0.90936   0.00000  Uiso   1.00
C1820  C     0.42383   0.50046   0.59205   0.00000  Uiso   1.00
C1821  C     0.56043   0.49171   0.95674   0.00000  Uiso   1.00
C1822  C     0.44401   0.48705   0.54793   0.00000  Uiso   1.00
C1823  C     0.59237   0.50739   0.98106   0.00000  Uiso   1.00
C1824  C     0.41271   0.46840   0.52455   0.00000  Uiso   1.00
C1825  C     0.51158   0.48175   0.98009   0.00000  Uiso   1.00
C1826  C     0.49414   0.49235   0.52626   0.00000  Uiso   1.00
Cu1827 Cu    0.38022   0.50001   0.75000   0.00000  Uiso   1.00
Cu1828 Cu    0.61978   0.49999   0.75000   0.00000  Uiso   1.00
H1829  H     0.44521   0.51682   0.61054   0.00000  Uiso   1.00
H1830  H     0.55402   0.48045   0.88874   0.00000  Uiso   1.00
H1831  H     0.66462   0.52433   0.97977   0.00000  Uiso   1.00
H1832  H     0.33871   0.45049   0.52764   0.00000  Uiso   1.00
H1833  H     0.51776   0.51363   0.58500   0.00000  Uiso   1.00
H1834  H     0.49128   0.44994   0.92507   0.00000  Uiso   1.00
H1835  H     0.52905   0.45703   0.80471   0.00000  Uiso   1.00
H1836  H     0.47144   0.54042   0.69310   0.00000  Uiso   1.00
N1837  N     0.45069   0.50001   0.74999   0.00000  Uiso   1.00
N1838  N     0.54931   0.49999   0.75001   0.00000  Uiso   1.00
O1839  O     0.37291   0.43989   0.75000   0.00000  Uiso   1.00
O1840  O     0.62709   0.56011   0.75000   0.00000  Uiso   1.00
O1841  O     0.62706   0.43988   0.75001   0.00000  Uiso   1.00
O1842  O     0.37294   0.56012   0.75000   0.00000  Uiso   1.00
O1843  O     0.35186   0.50001   0.81492   0.00000  Uiso   1.00
O1844  O     0.64814   0.49999   0.68509   0.00000  Uiso   1.00
O1845  O     0.60600   0.50000   0.81492   0.00000  Uiso   1.00
O1846  O     0.39400   0.50000   0.68508   0.00000  Uiso   1.00
O1847  O     0.60631   0.53386   0.55004   0.00000  Uiso   1.00
C1848  C     0.59641   0.57591   0.55778   0.00000  Uiso   1.00
H1849  H     0.61682   0.58613   0.58213   0.00000  Uiso   1.00
H1850  H     0.55772   0.58053   0.57408   0.00000  Uiso   1.00
C1851  C     0.61328   0.60316   0.51418   0.00000  Uiso   1.00
H1852  H     0.65176   0.59784   0.99815   0.00000  Uiso   1.00
H1853  H     0.59185   0.59526   0.98977   0.00000  Uiso   1.00
C1854  C     0.60741   0.64871   0.52426   0.00000  Uiso   1.00
H1855  H     0.56971   0.65452   0.54260   0.00000  Uiso   1.00
H1856  H     0.61636   0.33409   0.99196   0.00000  Uiso   1.00
H1857  H     0.63202   0.65853   0.54507   0.00000  Uiso   1.00
O1858  O     0.40132   0.43698   0.95675   0.00000  Uiso   1.00
C1859  C     0.39833   0.39369   0.96405   0.00000  Uiso   1.00
H1860  H     0.36136   0.38495   0.98429   0.00000  Uiso   1.00
H1861  H     0.42405   0.38121   0.98280   0.00000  Uiso   1.00
C1862  C     0.40757   0.37368   0.91806   0.00000  Uiso   1.00
H1863  H     0.38395   0.38734   0.89815   0.00000  Uiso   1.00
H1864  H     0.44564   0.38000   0.89918   0.00000  Uiso   1.00
C1865  C     0.39773   0.66061   0.92319   0.00000  Uiso   1.00
H1866  H     0.41771   0.64657   0.94630   0.00000  Uiso   1.00
H1867  H     0.40932   0.64674   0.88942   0.00000  Uiso   1.00
H1868  H     0.35872   0.65376   0.93705   0.00000  Uiso   1.00
O1869  O     0.62934   0.46840   0.61046   0.00000  Uiso   1.00
C1870  C     0.61988   0.42662   0.62512   0.00000  Uiso   1.00
H1871  H     0.61706   0.42410   0.66218   0.00000  Uiso   1.00
H1872  H     0.64809   0.40531   0.60772   0.00000  Uiso   1.00
C1873  C     0.57211   0.41223   0.61667   0.00000  Uiso   1.00
H1874  H     0.54312   0.43254   0.63405   0.00000  Uiso   1.00
H1875  H     0.57482   0.41423   0.57959   0.00000  Uiso   1.00
C1876  C     0.55951   0.36786   0.63426   0.00000  Uiso   1.00
H1877  H     0.58968   0.34766   0.61984   0.00000  Uiso   1.00
H1878  H     0.52732   0.35645   0.62396   0.00000  Uiso   1.00
H1879  H     0.55200   0.36603   0.67190   0.00000  Uiso   1.00
O1880  O     0.37411   0.51664   0.88871   0.00000  Uiso   1.00
C1881  C     0.40211   0.53900   0.91241   0.00000  Uiso   1.00
H1882  H     0.40415   0.52169   0.94368   0.00000  Uiso   1.00
H1883  H     0.38704   0.56985   0.92071   0.00000  Uiso   1.00
C1884  C     0.45363   0.54421   0.88319   0.00000  Uiso   1.00
H1885  H     0.46800   0.51341   0.87374   0.00000  Uiso   1.00
H1886  H     0.45417   0.56232   0.85151   0.00000  Uiso   1.00
C1887  C     0.48586   0.56569   0.90900   0.00000  Uiso   1.00
H1888  H     0.47667   0.59847   0.91328   0.00000  Uiso   1.00
H1889  H     0.52405   0.56387   0.88994   0.00000  Uiso   1.00
H1890  H     0.48155   0.55093   0.94312   0.00000  Uiso   1.00
C1891  C     0.60065   0.37540   0.82701   0.00000  Uiso   1.00
C1892  C     0.62744   0.38239   0.86360   0.00000  Uiso   1.00
H1893  H     0.63936   0.35274   0.87539   0.00000  Uiso   1.00
H1894  H     0.65931   0.40320   0.85005   0.00000  Uiso   1.00
H1895  H     0.60342   0.39691   0.89307   0.00000  Uiso   1.00
H1896  H     0.58816   0.40526   0.81718   0.00000  Uiso   1.00
H1897  H     0.56634   0.35831   0.84213   0.00000  Uiso   1.00
C1898  C     0.41679   0.63060   0.69646   0.00000  Uiso   1.00
C1899  C     0.44913   0.63231   0.72966   0.00000  Uiso   1.00
H1900  H     0.43205   0.64766   0.76161   0.00000  Uiso   1.00
H1901  H     0.45769   0.60094   0.73952   0.00000  Uiso   1.00
H1902  H     0.48279   0.65018   0.71391   0.00000  Uiso   1.00
H1903  H     0.41307   0.59904   0.68480   0.00000  Uiso   1.00
H1904  H     0.43503   0.64763   0.66451   0.00000  Uiso   1.00
C1905  C     0.59383   0.61827   0.82082   0.00000  Uiso   1.00
C1906  C     0.54544   0.61822   0.80813   0.00000  Uiso   1.00
H1907  H     0.54406   0.64331   0.78292   0.00000  Uiso   1.00
H1908  H     0.53873   0.58832   0.79377   0.00000  Uiso   1.00
H1909  H     0.51587   0.62319   0.83853   0.00000  Uiso   1.00
H1910  H     0.60429   0.58619   0.82542   0.00000  Uiso   1.00
H1911  H     0.58995   0.63019   0.85525   0.00000  Uiso   1.00
C1912  C     0.38688   0.38119   0.67072   0.00000  Uiso   1.00
C1913  C     0.43755   0.39871   0.66760   0.00000  Uiso   1.00
H1914  H     0.43664   0.42882   0.68361   0.00000  Uiso   1.00
H1915  H     0.45836   0.37780   0.68394   0.00000  Uiso   1.00
H1916  H     0.45688   0.40385   0.63130   0.00000  Uiso   1.00
H1917  H     0.38794   0.36088   0.64179   0.00000  Uiso   1.00
H1918  H     0.36434   0.40691   0.66488   0.00000  Uiso   1.00
C1919  C     0.43658   0.44298   0.81261   0.00000  Uiso   1.00
C1920  C     0.44962   0.39933   0.79756   0.00000  Uiso   1.00
H1921  H     0.42294   0.37667   0.81830   0.00000  Uiso   1.00
H1922  H     0.44937   0.39619   0.76149   0.00000  Uiso   1.00
H1923  H     0.48575   0.39183   0.80174   0.00000  Uiso   1.00
H1924  H     0.44188   0.44668   0.84720   0.00000  Uiso   1.00
H1925  H     0.39822   0.44581   0.81627   0.00000  Uiso   1.00
C1926  C     0.56652   0.54971   0.68049   0.00000  Uiso   1.00
C1927  C     0.55218   0.59426   0.67770   0.00000  Uiso   1.00
H1928  H     0.52010   0.59655   0.66398   0.00000  Uiso   1.00
H1929  H     0.54611   0.60770   0.71159   0.00000  Uiso   1.00
H1930  H     0.58187   0.61248   0.65436   0.00000  Uiso   1.00
H1931  H     0.60280   0.55258   0.68435   0.00000  Uiso   1.00
H1932  H     0.56801   0.53520   0.64765   0.00000  Uiso   1.00
C1933  C     0.99913   0.42101   0.75091   0.00000  Uiso   1.00
C1934  C     0.66708   0.57932   0.75038   0.00000  Uiso   1.00
C1935  C     0.86068   0.50808   0.54923   0.00000  Uiso   1.00
C1936  C     0.81301   0.46142   0.95880   0.00000  Uiso   1.00
C1937  C     0.90863   0.51671   0.52684   0.00000  Uiso   1.00
C1938  C     0.76460   0.45435   0.98068   0.00000  Uiso   1.00
C1939  C     0.96567   0.35368   0.78668   0.00000  Uiso   1.00
C1940  C     0.70199   0.64815   0.71927   0.00000  Uiso   1.00
C1941  C     0.96519   0.64356   0.78566   0.00000  Uiso   1.00
C1942  C     0.69658   0.35742   0.71531   0.00000  Uiso   1.00
C1943  C     0.66736   0.62431   0.75219   0.00000  Uiso   1.00
C1944  C     0.99762   0.37661   0.75077   0.00000  Uiso   1.00
C1945  C     0.85002   0.47615   0.78053   0.00000  Uiso   1.00
C1946  C     0.81695   0.52296   0.71859   0.00000  Uiso   1.00
C1947  C     0.80083   0.47489   0.78019   0.00000  Uiso   1.00
C1948  C     0.86638   0.52387   0.71845   0.00000  Uiso   1.00
C1949  C     0.97313   0.49945   0.83652   0.00000  Uiso   1.00
C1950  C     0.69361   0.49912   0.66362   0.00000  Uiso   1.00
C1951  C     0.95919   0.49928   0.88682   0.00000  Uiso   1.00
C1952  C     0.70859   0.49294   0.61422   0.00000  Uiso   1.00
C1953  C     0.97445   0.51480   0.95923   0.00000  Uiso   1.00
C1954  C     0.69654   0.46381   0.54549   0.00000  Uiso   1.00
C1955  C     0.99225   0.51079   0.91193   0.00000  Uiso   1.00
C1956  C     0.67787   0.47482   0.59047   0.00000  Uiso   1.00
C1957  C     0.91119   0.48891   0.90936   0.00000  Uiso   1.00
C1958  C     0.75716   0.50046   0.59205   0.00000  Uiso   1.00
C1959  C     0.89376   0.49171   0.95674   0.00000  Uiso   1.00
C1960  C     0.77735   0.48705   0.54793   0.00000  Uiso   1.00
C1961  C     0.92570   0.50739   0.98106   0.00000  Uiso   1.00
C1962  C     0.74605   0.46840   0.52455   0.00000  Uiso   1.00
C1963  C     0.84491   0.48175   0.98009   0.00000  Uiso   1.00
C1964  C     0.82747   0.49235   0.52626   0.00000  Uiso   1.00
Cu1965 Cu    0.71355   0.50001   0.75000   0.00000  Uiso   1.00
Cu1966 Cu    0.95311   0.49999   0.75000   0.00000  Uiso   1.00
H1967  H     0.77855   0.51682   0.61054   0.00000  Uiso   1.00
H1968  H     0.88736   0.48045   0.88874   0.00000  Uiso   1.00
H1969  H     0.99795   0.52433   0.97977   0.00000  Uiso   1.00
H1970  H     0.67205   0.45049   0.52764   0.00000  Uiso   1.00
H1971  H     0.85110   0.51363   0.58500   0.00000  Uiso   1.00
H1972  H     0.82461   0.44994   0.92507   0.00000  Uiso   1.00
H1973  H     0.86239   0.45703   0.80471   0.00000  Uiso   1.00
H1974  H     0.80478   0.54042   0.69310   0.00000  Uiso   1.00
N1975  N     0.78403   0.50001   0.74999   0.00000  Uiso   1.00
N1976  N     0.88264   0.49999   0.75001   0.00000  Uiso   1.00
O1977  O     0.70625   0.43989   0.75000   0.00000  Uiso   1.00
O1978  O     0.96042   0.56011   0.75000   0.00000  Uiso   1.00
O1979  O     0.96039   0.43988   0.75001   0.00000  Uiso   1.00
O1980  O     0.70628   0.56012   0.75000   0.00000  Uiso   1.00
O1981  O     0.68519   0.50001   0.81492   0.00000  Uiso   1.00
O1982  O     0.98148   0.49999   0.68509   0.00000  Uiso   1.00
O1983  O     0.93933   0.50000   0.81492   0.00000  Uiso   1.00
O1984  O     0.72733   0.50000   0.68508   0.00000  Uiso   1.00
O1985  O     0.93964   0.53386   0.55004   0.00000  Uiso   1.00
C1986  C     0.92974   0.57591   0.55778   0.00000  Uiso   1.00
H1987  H     0.95015   0.58613   0.58213   0.00000  Uiso   1.00
H1988  H     0.89105   0.58053   0.57408   0.00000  Uiso   1.00
C1989  C     0.94662   0.60316   0.51418   0.00000  Uiso   1.00
H1990  H     0.98509   0.59784   0.99815   0.00000  Uiso   1.00
H1991  H     0.92519   0.59526   0.98977   0.00000  Uiso   1.00
C1992  C     0.94075   0.64871   0.52426   0.00000  Uiso   1.00
H1993  H     0.90305   0.65452   0.54260   0.00000  Uiso   1.00
H1994  H     0.94969   0.33409   0.99196   0.00000  Uiso   1.00
H1995  H     0.96536   0.65853   0.54507   0.00000  Uiso   1.00
O1996  O     0.73465   0.43698   0.95675   0.00000  Uiso   1.00
C1997  C     0.73167   0.39369   0.96405   0.00000  Uiso   1.00
H1998  H     0.69470   0.38495   0.98429   0.00000  Uiso   1.00
H1999  H     0.75738   0.38121   0.98280   0.00000  Uiso   1.00
C2000  C     0.74090   0.37368   0.91806   0.00000  Uiso   1.00
H2001  H     0.71728   0.38734   0.89815   0.00000  Uiso   1.00
H2002  H     0.77897   0.38000   0.89918   0.00000  Uiso   1.00
C2003  C     0.73106   0.66061   0.92319   0.00000  Uiso   1.00
H2004  H     0.75105   0.64657   0.94630   0.00000  Uiso   1.00
H2005  H     0.74266   0.64674   0.88942   0.00000  Uiso   1.00
H2006  H     0.69205   0.65376   0.93705   0.00000  Uiso   1.00
O2007  O     0.96267   0.46840   0.61046   0.00000  Uiso   1.00
C2008  C     0.95321   0.42662   0.62512   0.00000  Uiso   1.00
H2009  H     0.95039   0.42410   0.66218   0.00000  Uiso   1.00
H2010  H     0.98142   0.40531   0.60772   0.00000  Uiso   1.00
C2011  C     0.90545   0.41223   0.61667   0.00000  Uiso   1.00
H2012  H     0.87645   0.43254   0.63405   0.00000  Uiso   1.00
H2013  H     0.90815   0.41423   0.57959   0.00000  Uiso   1.00
C2014  C     0.89284   0.36786   0.63426   0.00000  Uiso   1.00
H2015  H     0.92302   0.34766   0.61984   0.00000  Uiso   1.00
H2016  H     0.86065   0.35645   0.62396   0.00000  Uiso   1.00
H2017  H     0.88534   0.36603   0.67190   0.00000  Uiso   1.00
O2018  O     0.70744   0.51664   0.88871   0.00000  Uiso   1.00
C2019  C     0.73544   0.53900   0.91241   0.00000  Uiso   1.00
H2020  H     0.73748   0.52169   0.94368   0.00000  Uiso   1.00
H2021  H     0.72037   0.56985   0.92071   0.00000  Uiso   1.00
C2022  C     0.78696   0.54421   0.88319   0.00000  Uiso   1.00
H2023  H     0.80133   0.51341   0.87374   0.00000  Uiso   1.00
H2024  H     0.78750   0.56232   0.85151   0.00000  Uiso   1.00
C2025  C     0.81919   0.56569   0.90900   0.00000  Uiso   1.00
H2026  H     0.81000   0.59847   0.91328   0.00000  Uiso   1.00
H2027  H     0.85739   0.56387   0.88994   0.00000  Uiso   1.00
H2028  H     0.81488   0.55093   0.94312   0.00000  Uiso   1.00
C2029  C     0.93399   0.37540   0.82701   0.00000  Uiso   1.00
C2030  C     0.96077   0.38239   0.86360   0.00000  Uiso   1.00
H2031  H     0.97269   0.35274   0.87539   0.00000  Uiso   1.00
H2032  H     0.99264   0.40320   0.85005   0.00000  Uiso   1.00
H2033  H     0.93675   0.39691   0.89307   0.00000  Uiso   1.00
H2034  H     0.92149   0.40526   0.81718   0.00000  Uiso   1.00
H2035  H     0.89967   0.35831   0.84213   0.00000  Uiso   1.00
C2036  C     0.75012   0.63060   0.69646   0.00000  Uiso   1.00
C2037  C     0.78247   0.63231   0.72966   0.00000  Uiso   1.00
H2038  H     0.76539   0.64766   0.76161   0.00000  Uiso   1.00
H2039  H     0.79103   0.60094   0.73952   0.00000  Uiso   1.00
H2040  H     0.81612   0.65018   0.71391   0.00000  Uiso   1.00
H2041  H     0.74641   0.59904   0.68480   0.00000  Uiso   1.00
H2042  H     0.76836   0.64763   0.66451   0.00000  Uiso   1.00
C2043  C     0.92717   0.61827   0.82082   0.00000  Uiso   1.00
C2044  C     0.87878   0.61822   0.80813   0.00000  Uiso   1.00
H2045  H     0.87739   0.64331   0.78292   0.00000  Uiso   1.00
H2046  H     0.87207   0.58832   0.79377   0.00000  Uiso   1.00
H2047  H     0.84920   0.62319   0.83853   0.00000  Uiso   1.00
H2048  H     0.93762   0.58619   0.82542   0.00000  Uiso   1.00
H2049  H     0.92328   0.63019   0.85525   0.00000  Uiso   1.00
C2050  C     0.72021   0.38119   0.67072   0.00000  Uiso   1.00
C2051  C     0.77088   0.39871   0.66760   0.00000  Uiso   1.00
H2052  H     0.76997   0.42882   0.68361   0.00000  Uiso   1.00
H2053  H     0.79169   0.37780   0.68394   0.00000  Uiso   1.00
H2054  H     0.79022   0.40385   0.63130   0.00000  Uiso   1.00
H2055  H     0.72127   0.36088   0.64179   0.00000  Uiso   1.00
H2056  H     0.69767   0.40691   0.66488   0.00000  Uiso   1.00
C2057  C     0.76992   0.44298   0.81261   0.00000  Uiso   1.00
C2058  C     0.78295   0.39933   0.79756   0.00000  Uiso   1.00
H2059  H     0.75627   0.37667   0.81830   0.00000  Uiso   1.00
H2060  H     0.78270   0.39619   0.76149   0.00000  Uiso   1.00
H2061  H     0.81908   0.39183   0.80174   0.00000  Uiso   1.00
H2062  H     0.77521   0.44668   0.84720   0.00000  Uiso   1.00
H2063  H     0.73156   0.44581   0.81627   0.00000  Uiso   1.00
C2064  C     0.89985   0.54971   0.68049   0.00000  Uiso   1.00
C2065  C     0.88551   0.59426   0.67770   0.00000  Uiso   1.00
H2066  H     0.85344   0.59655   0.66398   0.00000  Uiso   1.00
H2067  H     0.87944   0.60770   0.71159   0.00000  Uiso   1.00
H2068  H     0.91520   0.61248   0.65436   0.00000  Uiso   1.00
H2069  H     0.93614   0.55258   0.68435   0.00000  Uiso   1.00
H2070  H     0.90134   0.53520   0.64765   0.00000  Uiso   1.00
C2071  C     0.33246   0.75435   0.75091   0.00000  Uiso   1.00
C2072  C     0.00042   0.91265   0.75038   0.00000  Uiso   1.00
C2073  C     0.19401   0.84141   0.54923   0.00000  Uiso   1.00
C2074  C     0.14634   0.79476   0.95880   0.00000  Uiso   1.00
C2075  C     0.24197   0.85004   0.52684   0.00000  Uiso   1.00
C2076  C     0.09794   0.78768   0.98068   0.00000  Uiso   1.00
C2077  C     0.29900   0.68701   0.78668   0.00000  Uiso   1.00
C2078  C     0.03532   0.98148   0.71927   0.00000  Uiso   1.00
C2079  C     0.29852   0.97690   0.78566   0.00000  Uiso   1.00
C2080  C     0.02991   0.69075   0.71531   0.00000  Uiso   1.00
C2081  C     0.00070   0.95764   0.75219   0.00000  Uiso   1.00
C2082  C     0.33095   0.70994   0.75077   0.00000  Uiso   1.00
C2083  C     0.18335   0.80948   0.78053   0.00000  Uiso   1.00
C2084  C     0.15028   0.85629   0.71859   0.00000  Uiso   1.00
C2085  C     0.13416   0.80823   0.78019   0.00000  Uiso   1.00
C2086  C     0.19972   0.85720   0.71845   0.00000  Uiso   1.00
C2087  C     0.30646   0.83278   0.83652   0.00000  Uiso   1.00
C2088  C     0.02694   0.83246   0.66362   0.00000  Uiso   1.00
C2089  C     0.29253   0.83262   0.88682   0.00000  Uiso   1.00
C2090  C     0.04192   0.82628   0.61422   0.00000  Uiso   1.00
C2091  C     0.30779   0.84813   0.95923   0.00000  Uiso   1.00
C2092  C     0.02988   0.79714   0.54549   0.00000  Uiso   1.00
C2093  C     0.32559   0.84412   0.91193   0.00000  Uiso   1.00
C2094  C     0.01120   0.80815   0.59047   0.00000  Uiso   1.00
C2095  C     0.24453   0.82224   0.90936   0.00000  Uiso   1.00
C2096  C     0.09050   0.83380   0.59205   0.00000  Uiso   1.00
C2097  C     0.22710   0.82504   0.95674   0.00000  Uiso   1.00
C2098  C     0.11068   0.82038   0.54793   0.00000  Uiso   1.00
C2099  C     0.25903   0.84072   0.98106   0.00000  Uiso   1.00
C2100  C     0.07938   0.80173   0.52455   0.00000  Uiso   1.00
C2101  C     0.17824   0.81508   0.98009   0.00000  Uiso   1.00
C2102  C     0.16080   0.82569   0.52626   0.00000  Uiso   1.00
Cu2103 Cu    0.04689   0.83334   0.75000   0.00000  Uiso   1.00
Cu2104 Cu    0.28645   0.83333   0.75000   0.00000  Uiso   1.00
H2105  H     0.11188   0.85016   0.61054   0.00000  Uiso   1.00
H2106  H     0.22069   0.81378   0.88874   0.00000  Uiso   1.00
H2107  H     0.33128   0.85766   0.97977   0.00000  Uiso   1.00
H2108  H     0.00538   0.78382   0.52764   0.00000  Uiso   1.00
H2109  H     0.18443   0.84696   0.58500   0.00000  Uiso   1.00
H2110  H     0.15795   0.78327   0.92507   0.00000  Uiso   1.00
H2111  H     0.19572   0.79036   0.80471   0.00000  Uiso   1.00
H2112  H     0.13811   0.87375   0.69310   0.00000  Uiso   1.00
N2113  N     0.11736   0.83334   0.74999   0.00000  Uiso   1.00
N2114  N     0.21597   0.83332   0.75001   0.00000  Uiso   1.00
O2115  O     0.03958   0.77322   0.75000   0.00000  Uiso   1.00
O2116  O     0.29375   0.89345   0.75000   0.00000  Uiso   1.00
O2117  O     0.29372   0.77321   0.75001   0.00000  Uiso   1.00
O2118  O     0.03961   0.89346   0.75000   0.00000  Uiso   1.00
O2119  O     0.01852   0.83334   0.81492   0.00000  Uiso   1.00
O2120  O     0.31481   0.83332   0.68509   0.00000  Uiso   1.00
O2121  O     0.27267   0.83333   0.81492   0.00000  Uiso   1.00
O2122  O     0.06067   0.83333   0.68508   0.00000  Uiso   1.00
O2123  O     0.27298   0.86719   0.55004   0.00000  Uiso   1.00
C2124  C     0.26307   0.90924   0.55778   0.00000  Uiso   1.00
H2125  H     0.28348   0.91946   0.58213   0.00000  Uiso   1.00
H2126  H     0.22439   0.91386   0.57408   0.00000  Uiso   1.00
C2127  C     0.27995   0.93650   0.51418   0.00000  Uiso   1.00
H2128  H     0.31842   0.93117   0.99815   0.00000  Uiso   1.00
H2129  H     0.25852   0.92859   0.98977   0.00000  Uiso   1.00
C2130  C     0.27408   0.98204   0.52426   0.00000  Uiso   1.00
H2131  H     0.23638   0.98786   0.54260   0.00000  Uiso   1.00
H2132  H     0.28302   0.66742   0.99196   0.00000  Uiso   1.00
H2133  H     0.29869   0.99186   0.54507   0.00000  Uiso   1.00
O2134  O     0.06799   0.77031   0.95675   0.00000  Uiso   1.00
C2135  C     0.06500   0.72703   0.96405   0.00000  Uiso   1.00
H2136  H     0.02803   0.71828   0.98429   0.00000  Uiso   1.00
H2137  H     0.09072   0.71455   0.98280   0.00000  Uiso   1.00
C2138  C     0.07423   0.70701   0.91806   0.00000  Uiso   1.00
H2139  H     0.05061   0.72067   0.89815   0.00000  Uiso   1.00
H2140  H     0.11230   0.71333   0.89918   0.00000  Uiso   1.00
C2141  C     0.06439   0.99395   0.92319   0.00000  Uiso   1.00
H2142  H     0.08438   0.97991   0.94630   0.00000  Uiso   1.00
H2143  H     0.07599   0.98007   0.88942   0.00000  Uiso   1.00
H2144  H     0.02539   0.98709   0.93705   0.00000  Uiso   1.00
O2145  O     0.29601   0.80174   0.61046   0.00000  Uiso   1.00
C2146  C     0.28655   0.75996   0.62512   0.00000  Uiso   1.00
H2147  H     0.28373   0.75743   0.66218   0.00000  Uiso   1.00
H2148  H     0.31476   0.73865   0.60772   0.00000  Uiso   1.00
C2149  C     0.23878   0.74556   0.61667   0.00000  Uiso   1.00
H2150  H     0.20978   0.76587   0.63405   0.00000  Uiso   1.00
H2151  H     0.24149   0.74757   0.57959   0.00000  Uiso   1.00
C2152  C     0.22618   0.70119   0.63426   0.00000  Uiso   1.00
H2153  H     0.25635   0.68099   0.61984   0.00000  Uiso   1.00
H2154  H     0.19399   0.68979   0.62396   0.00000  Uiso   1.00
H2155  H     0.21867   0.69936   0.67190   0.00000  Uiso   1.00
O2156  O     0.04077   0.84997   0.88871   0.00000  Uiso   1.00
C2157  C     0.06877   0.87234   0.91241   0.00000  Uiso   1.00
H2158  H     0.07081   0.85503   0.94368   0.00000  Uiso   1.00
H2159  H     0.05370   0.90318   0.92071   0.00000  Uiso   1.00
C2160  C     0.12030   0.87755   0.88319   0.00000  Uiso   1.00
H2161  H     0.13466   0.84674   0.87374   0.00000  Uiso   1.00
H2162  H     0.12084   0.89565   0.85151   0.00000  Uiso   1.00
C2163  C     0.15253   0.89902   0.90900   0.00000  Uiso   1.00
H2164  H     0.14334   0.93180   0.91328   0.00000  Uiso   1.00
H2165  H     0.19072   0.89720   0.88994   0.00000  Uiso   1.00
H2166  H     0.14821   0.88426   0.94312   0.00000  Uiso   1.00
C2167  C     0.26732   0.70873   0.82701   0.00000  Uiso   1.00
C2168  C     0.29411   0.71573   0.86360   0.00000  Uiso   1.00
H2169  H     0.30603   0.68607   0.87539   0.00000  Uiso   1.00
H2170  H     0.32597   0.73653   0.85005   0.00000  Uiso   1.00
H2171  H     0.27009   0.73024   0.89307   0.00000  Uiso   1.00
H2172  H     0.25483   0.73859   0.81718   0.00000  Uiso   1.00
H2173  H     0.23300   0.69164   0.84213   0.00000  Uiso   1.00
C2174  C     0.08345   0.96394   0.69646   0.00000  Uiso   1.00
C2175  C     0.11580   0.96564   0.72966   0.00000  Uiso   1.00
H2176  H     0.09872   0.98100   0.76161   0.00000  Uiso   1.00
H2177  H     0.12436   0.93427   0.73952   0.00000  Uiso   1.00
H2178  H     0.14945   0.98351   0.71391   0.00000  Uiso   1.00
H2179  H     0.07974   0.93238   0.68480   0.00000  Uiso   1.00
H2180  H     0.10169   0.98096   0.66451   0.00000  Uiso   1.00
C2181  C     0.26050   0.95160   0.82082   0.00000  Uiso   1.00
C2182  C     0.21211   0.95156   0.80813   0.00000  Uiso   1.00
H2183  H     0.21072   0.97665   0.78292   0.00000  Uiso   1.00
H2184  H     0.20540   0.92166   0.79377   0.00000  Uiso   1.00
H2185  H     0.18254   0.95652   0.83853   0.00000  Uiso   1.00
H2186  H     0.27096   0.91953   0.82542   0.00000  Uiso   1.00
H2187  H     0.25661   0.96352   0.85525   0.00000  Uiso   1.00
C2188  C     0.05354   0.71452   0.67072   0.00000  Uiso   1.00
C2189  C     0.10422   0.73205   0.66760   0.00000  Uiso   1.00
H2190  H     0.10330   0.76215   0.68361   0.00000  Uiso   1.00
H2191  H     0.12503   0.71114   0.68394   0.00000  Uiso   1.00
H2192  H     0.12355   0.73718   0.63130   0.00000  Uiso   1.00
H2193  H     0.05461   0.69421   0.64179   0.00000  Uiso   1.00
H2194  H     0.03100   0.74024   0.66488   0.00000  Uiso   1.00
C2195  C     0.10325   0.77632   0.81261   0.00000  Uiso   1.00
C2196  C     0.11629   0.73266   0.79756   0.00000  Uiso   1.00
H2197  H     0.08961   0.71000   0.81830   0.00000  Uiso   1.00
H2198  H     0.11604   0.72953   0.76149   0.00000  Uiso   1.00
H2199  H     0.15241   0.72516   0.80174   0.00000  Uiso   1.00
H2200  H     0.10855   0.78001   0.84720   0.00000  Uiso   1.00
H2201  H     0.06489   0.77915   0.81627   0.00000  Uiso   1.00
C2202  C     0.23318   0.88304   0.68049   0.00000  Uiso   1.00
C2203  C     0.21885   0.92759   0.67770   0.00000  Uiso   1.00
H2204  H     0.18677   0.92988   0.66398   0.00000  Uiso   1.00
H2205  H     0.21278   0.94103   0.71159   0.00000  Uiso   1.00
H2206  H     0.24853   0.94581   0.65436   0.00000  Uiso   1.00
H2207  H     0.26947   0.88592   0.68435   0.00000  Uiso   1.00
H2208  H     0.23468   0.86853   0.64765   0.00000  Uiso   1.00
C2209  C     0.66580   0.75435   0.75091   0.00000  Uiso   1.00
C2210  C     0.33375   0.91265   0.75038   0.00000  Uiso   1.00
C2211  C     0.52735   0.84141   0.54923   0.00000  Uiso   1.00
C2212  C     0.47968   0.79476   0.95880   0.00000  Uiso   1.00
C2213  C     0.57530   0.85004   0.52684   0.00000  Uiso   1.00
C2214  C     0.43127   0.78768   0.98068   0.00000  Uiso   1.00
C2215  C     0.63233   0.68701   0.78668   0.00000  Uiso   1.00
C2216  C     0.36866   0.98148   0.71927   0.00000  Uiso   1.00
C2217  C     0.63185   0.97690   0.78566   0.00000  Uiso   1.00
C2218  C     0.36325   0.69075   0.71531   0.00000  Uiso   1.00
C2219  C     0.33403   0.95764   0.75219   0.00000  Uiso   1.00
C2220  C     0.66428   0.70994   0.75077   0.00000  Uiso   1.00
C2221  C     0.51669   0.80948   0.78053   0.00000  Uiso   1.00
C2222  C     0.48362   0.85629   0.71859   0.00000  Uiso   1.00
C2223  C     0.46750   0.80823   0.78019   0.00000  Uiso   1.00
C2224  C     0.53305   0.85720   0.71845   0.00000  Uiso   1.00
C2225  C     0.63980   0.83278   0.83652   0.00000  Uiso   1.00
C2226  C     0.36028   0.83246   0.66362   0.00000  Uiso   1.00
C2227  C     0.62586   0.83262   0.88682   0.00000  Uiso   1.00
C2228  C     0.37526   0.82628   0.61422   0.00000  Uiso   1.00
C2229  C     0.64112   0.84813   0.95923   0.00000  Uiso   1.00
C2230  C     0.36321   0.79714   0.54549   0.00000  Uiso   1.00
C2231  C     0.65892   0.84412   0.91193   0.00000  Uiso   1.00
C2232  C     0.34454   0.80815   0.59047   0.00000  Uiso   1.00
C2233  C     0.57786   0.82224   0.90936   0.00000  Uiso   1.00
C2234  C     0.42383   0.83380   0.59205   0.00000  Uiso   1.00
C2235  C     0.56043   0.82504   0.95674   0.00000  Uiso   1.00
C2236  C     0.44401   0.82038   0.54793   0.00000  Uiso   1.00
C2237  C     0.59237   0.84072   0.98106   0.00000  Uiso   1.00
C2238  C     0.41271   0.80173   0.52455   0.00000  Uiso   1.00
C2239  C     0.51158   0.81508   0.98009   0.00000  Uiso   1.00
C2240  C     0.49414   0.82569   0.52626   0.00000  Uiso   1.00
Cu2241 Cu    0.38022   0.83334   0.75000   0.00000  Uiso   1.00
Cu2242 Cu    0.61978   0.83333   0.75000   0.00000  Uiso   1.00
H2243  H     0.44521   0.85016   0.61054   0.00000  Uiso   1.00
H2244  H     0.55402   0.81378   0.88874   0.00000  Uiso   1.00
H2245  H     0.66462   0.85766   0.97977   0.00000  Uiso   1.00
H2246  H     0.33871   0.78382   0.52764   0.00000  Uiso   1.00
H2247  H     0.51776   0.84696   0.58500   0.00000  Uiso   1.00
H2248  H     0.49128   0.78327   0.92507   0.00000  Uiso   1.00
H2249  H     0.52905   0.79036   0.80471   0.00000  Uiso   1.00
H2250  H     0.47144   0.87375   0.69310   0.00000  Uiso   1.00
N2251  N     0.45069   0.83334   0.74999   0.00000  Uiso   1.00
N2252  N     0.54931   0.83332   0.75001   0.00000  Uiso   1.00
O2253  O     0.37291   0.77322   0.75000   0.00000  Uiso   1.00
O2254  O     0.62709   0.89345   0.75000   0.00000  Uiso   1.00
O2255  O     0.62706   0.77321   0.75001   0.00000  Uiso   1.00
O2256  O     0.37294   0.89346   0.75000   0.00000  Uiso   1.00
O2257  O     0.35186   0.83334   0.81492   0.00000  Uiso   1.00
O2258  O     0.64814   0.83332   0.68509   0.00000  Uiso   1.00
O2259  O     0.60600   0.83333   0.81492   0.00000  Uiso   1.00
O2260  O     0.39400   0.83333   0.68508   0.00000  Uiso   1.00
O2261  O     0.60631   0.86719   0.55004   0.00000  Uiso   1.00
C2262  C     0.59641   0.90924   0.55778   0.00000  Uiso   1.00
H2263  H     0.61682   0.91946   0.58213   0.00000  Uiso   1.00
H2264  H     0.55772   0.91386   0.57408   0.00000  Uiso   1.00
C2265  C     0.61328   0.93650   0.51418   0.00000  Uiso   1.00
H2266  H     0.65176   0.93117   0.99815   0.00000  Uiso   1.00
H2267  H     0.59185   0.92859   0.98977   0.00000  Uiso   1.00
C2268  C     0.60741   0.98204   0.52426   0.00000  Uiso   1.00
H2269  H     0.56971   0.98786   0.54260   0.00000  Uiso   1.00
H2270  H     0.61636   0.66742   0.99196   0.00000  Uiso   1.00
H2271  H     0.63202   0.99186   0.54507   0.00000  Uiso   1.00
O2272  O     0.40132   0.77031   0.95675   0.00000  Uiso   1.00
C2273  C     0.39833   0.72703   0.96405   0.00000  Uiso   1.00
H2274  H     0.36136   0.71828   0.98429   0.00000  Uiso   1.00
H2275  H     0.42405   0.71455   0.98280   0.00000  Uiso   1.00
C2276  C     0.40757   0.70701   0.91806   0.00000  Uiso   1.00
H2277  H     0.38395   0.72067   0.89815   0.00000  Uiso   1.00
H2278  H     0.44564   0.71333   0.89918   0.00000  Uiso   1.00
C2279  C     0.39773   0.99395   0.92319   0.00000  Uiso   1.00
H2280  H     0.41771   0.97991   0.94630   0.00000  Uiso   1.00
H2281  H     0.40932   0.98007   0.88942   0.00000  Uiso   1.00
H2282  H     0.35872   0.98709   0.93705   0.00000  Uiso   1.00
O2283  O     0.62934   0.80174   0.61046   0.00000  Uiso   1.00
C2284  C     0.61988   0.75996   0.62512   0.00000  Uiso   1.00
H2285  H     0.61706   0.75743   0.66218   0.00000  Uiso   1.00
H2286  H     0.64809   0.73865   0.60772   0.00000  Uiso   1.00
C2287  C     0.57211   0.74556   0.61667   0.00000  Uiso   1.00
H2288  H     0.54312   0.76587   0.63405   0.00000  Uiso   1.00
H2289  H     0.57482   0.74757   0.57959   0.00000  Uiso   1.00
C2290  C     0.55951   0.70119   0.63426   0.00000  Uiso   1.00
H2291  H     0.58968   0.68099   0.61984   0.00000  Uiso   1.00
H2292  H     0.52732   0.68979   0.62396   0.00000  Uiso   1.00
H2293  H     0.55200   0.69936   0.67190   0.00000  Uiso   1.00
O2294  O     0.37411   0.84997   0.88871   0.00000  Uiso   1.00
C2295  C     0.40211   0.87234   0.91241   0.00000  Uiso   1.00
H2296  H     0.40415   0.85503   0.94368   0.00000  Uiso   1.00
H2297  H     0.38704   0.90318   0.92071   0.00000  Uiso   1.00
C2298  C     0.45363   0.87755   0.88319   0.00000  Uiso   1.00
H2299  H     0.46800   0.84674   0.87374   0.00000  Uiso   1.00
H2300  H     0.45417   0.89565   0.85151   0.00000  Uiso   1.00
C2301  C     0.48586   0.89902   0.90900   0.00000  Uiso   1.00
H2302  H     0.47667   0.93180   0.91328   0.00000  Uiso   1.00
H2303  H     0.52405   0.89720   0.88994   0.00000  Uiso   1.00
H2304  H     0.48155   0.88426   0.94312   0.00000  Uiso   1.00
C2305  C     0.60065   0.70873   0.82701   0.00000  Uiso   1.00
C2306  C     0.62744   0.71573   0.86360   0.00000  Uiso   1.00
H2307  H     0.63936   0.68607   0.87539   0.00000  Uiso   1.00
H2308  H     0.65931   0.73653   0.85005   0.00000  Uiso   1.00
H2309  H     0.60342   0.73024   0.89307   0.00000  Uiso   1.00
H2310  H     0.58816   0.73859   0.81718   0.00000  Uiso   1.00
H2311  H     0.56634   0.69164   0.84213   0.00000  Uiso   1.00
C2312  C     0.41679   0.96394   0.69646   0.00000  Uiso   1.00
C2313  C     0.44913   0.96564   0.72966   0.00000  Uiso   1.00
H2314  H     0.43205   0.98100   0.76161   0.00000  Uiso   1.00
H2315  H     0.45769   0.93427   0.73952   0.00000  Uiso   1.00
H2316  H     0.48279   0.98351   0.71391   0.00000  Uiso   1.00
H2317  H     0.41307   0.93238   0.68480   0.00000  Uiso   1.00
H2318  H     0.43503   0.98096   0.66451   0.00000  Uiso   1.00
C2319  C     0.59383   0.95160   0.82082   0.00000  Uiso   1.00
C2320  C     0.54544   0.95156   0.80813   0.00000  Uiso   1.00
H2321  H     0.54406   0.97665   0.78292   0.00000  Uiso   1.00
H2322  H     0.53873   0.92166   0.79377   0.00000  Uiso   1.00
H2323  H     0.51587   0.95652   0.83853   0.00000  Uiso   1.00
H2324  H     0.60429   0.91953   0.82542   0.00000  Uiso   1.00
H2325  H     0.58995   0.96352   0.85525   0.00000  Uiso   1.00
C2326  C     0.38688   0.71452   0.67072   0.00000  Uiso   1.00
C2327  C     0.43755   0.73205   0.66760   0.00000  Uiso   1.00
H2328  H     0.43664   0.76215   0.68361   0.00000  Uiso   1.00
H2329  H     0.45836   0.71114   0.68394   0.00000  Uiso   1.00
H2330  H     0.45688   0.73718   0.63130   0.00000  Uiso   1.00
H2331  H     0.38794   0.69421   0.64179   0.00000  Uiso   1.00
H2332  H     0.36434   0.74024   0.66488   0.00000  Uiso   1.00
C2333  C     0.43658   0.77632   0.81261   0.00000  Uiso   1.00
C2334  C     0.44962   0.73266   0.79756   0.00000  Uiso   1.00
H2335  H     0.42294   0.71000   0.81830   0.00000  Uiso   1.00
H2336  H     0.44937   0.72953   0.76149   0.00000  Uiso   1.00
H2337  H     0.48575   0.72516   0.80174   0.00000  Uiso   1.00
H2338  H     0.44188   0.78001   0.84720   0.00000  Uiso   1.00
H2339  H     0.39822   0.77915   0.81627   0.00000  Uiso   1.00
C2340  C     0.56652   0.88304   0.68049   0.00000  Uiso   1.00
C2341  C     0.55218   0.92759   0.67770   0.00000  Uiso   1.00
H2342  H     0.52010   0.92988   0.66398   0.00000  Uiso   1.00
H2343  H     0.54611   0.94103   0.71159   0.00000  Uiso   1.00
H2344  H     0.58187   0.94581   0.65436   0.00000  Uiso   1.00
H2345  H     0.60280   0.88592   0.68435   0.00000  Uiso   1.00
H2346  H     0.56801   0.86853   0.64765   0.00000  Uiso   1.00
C2347  C     0.99913   0.75435   0.75091   0.00000  Uiso   1.00
C2348  C     0.66708   0.91265   0.75038   0.00000  Uiso   1.00
C2349  C     0.86068   0.84141   0.54923   0.00000  Uiso   1.00
C2350  C     0.81301   0.79476   0.95880   0.00000  Uiso   1.00
C2351  C     0.90863   0.85004   0.52684   0.00000  Uiso   1.00
C2352  C     0.76460   0.78768   0.98068   0.00000  Uiso   1.00
C2353  C     0.96567   0.68701   0.78668   0.00000  Uiso   1.00
C2354  C     0.70199   0.98148   0.71927   0.00000  Uiso   1.00
C2355  C     0.96519   0.97690   0.78566   0.00000  Uiso   1.00
C2356  C     0.69658   0.69075   0.71531   0.00000  Uiso   1.00
C2357  C     0.66736   0.95764   0.75219   0.00000  Uiso   1.00
C2358  C     0.99762   0.70994   0.75077   0.00000  Uiso   1.00
C2359  C     0.85002   0.80948   0.78053   0.00000  Uiso   1.00
C2360  C     0.81695   0.85629   0.71859   0.00000  Uiso   1.00
C2361  C     0.80083   0.80823   0.78019   0.00000  Uiso   1.00
C2362  C     0.86638   0.85720   0.71845   0.00000  Uiso   1.00
C2363  C     0.97313   0.83278   0.83652   0.00000  Uiso   1.00
C2364  C     0.69361   0.83246   0.66362   0.00000  Uiso   1.00
C2365  C     0.95919   0.83262   0.88682   0.00000  Uiso   1.00
C2366  C     0.70859   0.82628   0.61422   0.00000  Uiso   1.00
C2367  C     0.97445   0.84813   0.95923   0.00000  Uiso   1.00
C2368  C     0.69654   0.79714   0.54549   0.00000  Uiso   1.00
C2369  C     0.99225   0.84412   0.91193   0.00000  Uiso   1.00
C2370  C     0.67787   0.80815   0.59047   0.00000  Uiso   1.00
C2371  C     0.91119   0.82224   0.90936   0.00000  Uiso   1.00
C2372  C     0.75716   0.83380   0.59205   0.00000  Uiso   1.00
C2373  C     0.89376   0.82504   0.95674   0.00000  Uiso   1.00
C2374  C     0.77735   0.82038   0.54793   0.00000  Uiso   1.00
C2375  C     0.92570   0.84072   0.98106   0.00000  Uiso   1.00
C2376  C     0.74605   0.80173   0.52455   0.00000  Uiso   1.00
C2377  C     0.84491   0.81508   0.98009   0.00000  Uiso   1.00
C2378  C     0.82747   0.82569   0.52626   0.00000  Uiso   1.00
Cu2379 Cu    0.71355   0.83334   0.75000   0.00000  Uiso   1.00
Cu2380 Cu    0.95311   0.83333   0.75000   0.00000  Uiso   1.00
H2381  H     0.77855   0.85016   0.61054   0.00000  Uiso   1.00
H2382  H     0.88736   0.81378   0.88874   0.00000  Uiso   1.00
H2383  H     0.99795   0.85766   0.97977   0.00000  Uiso   1.00
H2384  H     0.67205   0.78382   0.52764   0.00000  Uiso   1.00
H2385  H     0.85110   0.84696   0.58500   0.00000  Uiso   1.00
H2386  H     0.82461   0.78327   0.92507   0.00000  Uiso   1.00
H2387  H     0.86239   0.79036   0.80471   0.00000  Uiso   1.00
H2388  H     0.80478   0.87375   0.69310   0.00000  Uiso   1.00
N2389  N     0.78403   0.83334   0.74999   0.00000  Uiso   1.00
N2390  N     0.88264   0.83332   0.75001   0.00000  Uiso   1.00
O2391  O     0.70625   0.77322   0.75000   0.00000  Uiso   1.00
O2392  O     0.96042   0.89345   0.75000   0.00000  Uiso   1.00
O2393  O     0.96039   0.77321   0.75001   0.00000  Uiso   1.00
O2394  O     0.70628   0.89346   0.75000   0.00000  Uiso   1.00
O2395  O     0.68519   0.83334   0.81492   0.00000  Uiso   1.00
O2396  O     0.98148   0.83332   0.68509   0.00000  Uiso   1.00
O2397  O     0.93933   0.83333   0.81492   0.00000  Uiso   1.00
O2398  O     0.72733   0.83333   0.68508   0.00000  Uiso   1.00
O2399  O     0.93964   0.86719   0.55004   0.00000  Uiso   1.00
C2400  C     0.92974   0.90924   0.55778   0.00000  Uiso   1.00
H2401  H     0.95015   0.91946   0.58213   0.00000  Uiso   1.00
H2402  H     0.89105   0.91386   0.57408   0.00000  Uiso   1.00
C2403  C     0.94662   0.93650   0.51418   0.00000  Uiso   1.00
H2404  H     0.98509   0.93117   0.99815   0.00000  Uiso   1.00
H2405  H     0.92519   0.92859   0.98977   0.00000  Uiso   1.00
C2406  C     0.94075   0.98204   0.52426   0.00000  Uiso   1.00
H2407  H     0.90305   0.98786   0.54260   0.00000  Uiso   1.00
H2408  H     0.94969   0.66742   0.99196   0.00000  Uiso   1.00
H2409  H     0.96536   0.99186   0.54507   0.00000  Uiso   1.00
O2410  O     0.73465   0.77031   0.95675   0.00000  Uiso   1.00
C2411  C     0.73167   0.72703   0.96405   0.00000  Uiso   1.00
H2412  H     0.69470   0.71828   0.98429   0.00000  Uiso   1.00
H2413  H     0.75738   0.71455   0.98280   0.00000  Uiso   1.00
C2414  C     0.74090   0.70701   0.91806   0.00000  Uiso   1.00
H2415  H     0.71728   0.72067   0.89815   0.00000  Uiso   1.00
H2416  H     0.77897   0.71333   0.89918   0.00000  Uiso   1.00
C2417  C     0.73106   0.99395   0.92319   0.00000  Uiso   1.00
H2418  H     0.75105   0.97991   0.94630   0.00000  Uiso   1.00
H2419  H     0.74266   0.98007   0.88942   0.00000  Uiso   1.00
H2420  H     0.69205   0.98709   0.93705   0.00000  Uiso   1.00
O2421  O     0.96267   0.80174   0.61046   0.00000  Uiso   1.00
C2422  C     0.95321   0.75996   0.62512   0.00000  Uiso   1.00
H2423  H     0.95039   0.75743   0.66218   0.00000  Uiso   1.00
H2424  H     0.98142   0.73865   0.60772   0.00000  Uiso   1.00
C2425  C     0.90545   0.74556   0.61667   0.00000  Uiso   1.00
H2426  H     0.87645   0.76587   0.63405   0.00000  Uiso   1.00
H2427  H     0.90815   0.74757   0.57959   0.00000  Uiso   1.00
C2428  C     0.89284   0.70119   0.63426   0.00000  Uiso   1.00
H2429  H     0.92302   0.68099   0.61984   0.00000  Uiso   1.00
H2430  H     0.86065   0.68979   0.62396   0.00000  Uiso   1.00
H2431  H     0.88534   0.69936   0.67190   0.00000  Uiso   1.00
O2432  O     0.70744   0.84997   0.88871   0.00000  Uiso   1.00
C2433  C     0.73544   0.87234   0.91241   0.00000  Uiso   1.00
H2434  H     0.73748   0.85503   0.94368   0.00000  Uiso   1.00
H2435  H     0.72037   0.90318   0.92071   0.00000  Uiso   1.00
C2436  C     0.78696   0.87755   0.88319   0.00000  Uiso   1.00
H2437  H     0.80133   0.84674   0.87374   0.00000  Uiso   1.00
H2438  H     0.78750   0.89565   0.85151   0.00000  Uiso   1.00
C2439  C     0.81919   0.89902   0.90900   0.00000  Uiso   1.00
H2440  H     0.81000   0.93180   0.91328   0.00000  Uiso   1.00
H2441  H     0.85739   0.89720   0.88994   0.00000  Uiso   1.00
H2442  H     0.81488   0.88426   0.94312   0.00000  Uiso   1.00
C2443  C     0.93399   0.70873   0.82701   0.00000  Uiso   1.00
C2444  C     0.96077   0.71573   0.86360   0.00000  Uiso   1.00
H2445  H     0.97269   0.68607   0.87539   0.00000  Uiso   1.00
H2446  H     0.99264   0.73653   0.85005   0.00000  Uiso   1.00
H2447  H     0.93675   0.73024   0.89307   0.00000  Uiso   1.00
H2448  H     0.92149   0.73859   0.81718   0.00000  Uiso   1.00
H2449  H     0.89967   0.69164   0.84213   0.00000  Uiso   1.00
C2450  C     0.75012   0.96394   0.69646   0.00000  Uiso   1.00
C2451  C     0.78247   0.96564   0.72966   0.00000  Uiso   1.00
H2452  H     0.76539   0.98100   0.76161   0.00000  Uiso   1.00
H2453  H     0.79103   0.93427   0.73952   0.00000  Uiso   1.00
H2454  H     0.81612   0.98351   0.71391   0.00000  Uiso   1.00
H2455  H     0.74641   0.93238   0.68480   0.00000  Uiso   1.00
H2456  H     0.76836   0.98096   0.66451   0.00000  Uiso   1.00
C2457  C     0.92717   0.95160   0.82082   0.00000  Uiso   1.00
C2458  C     0.87878   0.95156   0.80813   0.00000  Uiso   1.00
H2459  H     0.87739   0.97665   0.78292   0.00000  Uiso   1.00
H2460  H     0.87207   0.92166   0.79377   0.00000  Uiso   1.00
H2461  H     0.84920   0.95652   0.83853   0.00000  Uiso   1.00
H2462  H     0.93762   0.91953   0.82542   0.00000  Uiso   1.00
H2463  H     0.92328   0.96352   0.85525   0.00000  Uiso   1.00
C2464  C     0.72021   0.71452   0.67072   0.00000  Uiso   1.00
C2465  C     0.77088   0.73205   0.66760   0.00000  Uiso   1.00
H2466  H     0.76997   0.76215   0.68361   0.00000  Uiso   1.00
H2467  H     0.79169   0.71114   0.68394   0.00000  Uiso   1.00
H2468  H     0.79022   0.73718   0.63130   0.00000  Uiso   1.00
H2469  H     0.72127   0.69421   0.64179   0.00000  Uiso   1.00
H2470  H     0.69767   0.74024   0.66488   0.00000  Uiso   1.00
C2471  C     0.76992   0.77632   0.81261   0.00000  Uiso   1.00
C2472  C     0.78295   0.73266   0.79756   0.00000  Uiso   1.00
H2473  H     0.75627   0.71000   0.81830   0.00000  Uiso   1.00
H2474  H     0.78270   0.72953   0.76149   0.00000  Uiso   1.00
H2475  H     0.81908   0.72516   0.80174   0.00000  Uiso   1.00
H2476  H     0.77521   0.78001   0.84720   0.00000  Uiso   1.00
H2477  H     0.73156   0.77915   0.81627   0.00000  Uiso   1.00
C2478  C     0.89985   0.88304   0.68049   0.00000  Uiso   1.00
C2479  C     0.88551   0.92759   0.67770   0.00000  Uiso   1.00
H2480  H     0.85344   0.92988   0.66398   0.00000  Uiso   1.00
H2481  H     0.87944   0.94103   0.71159   0.00000  Uiso   1.00
H2482  H     0.91520   0.94581   0.65436   0.00000  Uiso   1.00
H2483  H     0.93614   0.88592   0.68435   0.00000  Uiso   1.00
H2484  H     0.90134   0.86853   0.64765   0.00000  Uiso   1.00
loop_
_geom_bond_atom_site_label_1
_geom_bond_atom_site_label_2
_geom_bond_distance
_geom_bond_site_symmetry_2
_ccdc_geom_bond_type
C1     C12     1.444   .     S
C1     O47     1.291   .     A
C1     O183    1.296   .     S
C2     C11     1.466   .     S
C2     O48     1.299   .     A
C2     O322    1.299   1_455 S
C3     H39     1.076   .     S
C3     C5      1.393   .     A
C3     C32     1.414   .     A
C4     H40     1.078   .     S
C4     C6      1.394   .     A
C4     C31     1.413   .     A
C5     O53     1.387   .     S
C5     C1271   1.401   1_554 S
C6     O64     1.383   .     S
C6     C1272   1.402   .     S
C7     C97     1.535   .     S
C7     C12     1.416   .     A
C7     C837    1.414   1_545 S
C8     C11     1.418   .     A
C8     C104    1.517   .     S
C8     C424    1.403   .     S
C9     C111    1.527   .     S
C9     C421    1.414   .     S
C9     C149    1.420   .     S
C10    C118    1.532   .     S
C10    C836    1.403   1_545 S
C10    C288    1.407   1_455 S
C11    C285    1.420   1_455 S
C12    C148    1.407   .     S
C13    H41     1.082   .     S
C13    C15     1.417   .     A
C13    N44     1.351   .     A
C14    H42     1.080   .     S
C14    C16     1.421   .     A
C14    N43     1.354   .     A
C15    N43     1.395   .     A
C15    C125    1.514   .     S
C16    N44     1.395   .     A
C16    C132    1.519   .     S
C17    O51     1.304   .     A
C17    C19     1.482   .     S
C17    O187    1.305   .     S
C18    O52     1.300   .     A
C18    C20     1.478   .     S
C18    O326    1.308   1_455 S
C19    C25     1.406   .     A
C19    C23     1.413   .     A
C20    C24     1.405   .     A
C20    C26     1.402   .     A
C21    C29     1.404   .     A
C21    C23     1.413   .     A
C21    H37     1.077   .     S
C22    H38     1.083   .     S
C22    C24     1.400   .     A
C22    C30     1.408   .     A
C23    O224    1.402   .     S
C24    O351    1.383   1_455 S
C25    C27     1.409   .     A
C25    H36     1.077   .     S
C26    C28     1.409   .     A
C26    H35     1.075   .     S
C27    C29     1.413   .     A
C27    C31     1.430   .     A
C28    C32     1.430   .     A
C28    C30     1.418   .     A
C29    C1247   1.401   .     S
C30    C1248   1.402   1_554 S
C31    C1274   1.424   .     S
C32    C1273   1.424   1_554 S
Cu33   O45     1.961   .     S
Cu33   O52     1.916   .     S
Cu33   N43     2.027   .     S
Cu33   O48     1.971   .     S
Cu33   O49     1.939   .     S
Cu33   Cu310   2.698   1_455 S
Cu34   O51     1.916   .     S
Cu34   O46     1.961   .     S
Cu34   O50     1.939   .     S
Cu34   N44     2.027   .     S
Cu34   O47     1.971   .     S
Cu34   Cu171   2.698   .     S
O45    C277    1.296   1_455 S
O46    C140    1.299   .     S
O49    C293    1.305   1_455 S
O50    C156    1.308   .     S
O53    C54     1.418   .     S
C54    H56     1.114   .     S
C54    H55     1.110   .     S
C54    C57     1.538   .     S
C57    C60     1.526   .     S
C57    H1300   1.111   1_554 S
C57    H1301   1.111   1_554 S
H58    C1299   1.111   .     S
H59    C1299   1.111   .     S
C60    H63     1.110   .     S
C60    H61     1.111   .     S
C60    H1718   1.110   1_554 S
H62    C2130   1.110   1_545 S
O64    C65     1.415   .     S
C65    H67     1.119   .     S
C65    C68     1.527   .     S
C65    H66     1.112   .     S
C68    H69     1.110   .     S
C68    H70     1.112   .     S
C68    C899    1.524   1_545 S
C71    H73     1.111   .     S
C71    H74     1.109   .     S
C71    H72     1.110   .     S
C71    C482    1.524   .     S
O75    C76     1.415   .     S
O75    C162    1.383   .     S
C76    C79     1.526   .     S
C76    H78     1.119   .     S
C76    H77     1.111   .     S
C79    H81     1.112   .     S
C79    C82     1.526   .     S
C79    H80     1.112   .     S
C82    H84     1.109   .     S
C82    H85     1.111   .     S
C82    H83     1.109   .     S
O86    C87     1.413   .     S
O86    C299    1.402   1_455 S
C87    H88     1.106   .     S
C87    H89     1.113   .     S
C87    C90     1.526   .     S
C90    H92     1.111   .     S
C90    C93     1.528   .     S
C90    H91     1.111   .     S
C93    H94     1.108   .     S
C93    H95     1.109   .     S
C93    H96     1.108   .     S
C97    C98     1.526   .     S
C97    H102    1.102   .     S
C97    H103    1.106   .     S
C98    H99     1.111   .     S
C98    H100    1.109   .     S
C98    H101    1.110   .     S
C104   H109    1.107   .     S
C104   C105    1.539   .     S
C104   H110    1.106   .     S
C105   H107    1.106   .     S
C105   H108    1.107   .     S
C105   H106    1.112   .     S
C111   C112    1.536   .     S
C111   H116    1.107   .     S
C111   H117    1.109   .     S
C112   H114    1.110   .     S
C112   H113    1.112   .     S
C112   H115    1.107   .     S
C118   C119    1.532   .     S
C118   H124    1.108   .     S
C118   H123    1.112   .     S
C119   H121    1.104   .     S
C119   H122    1.110   .     S
C119   H120    1.105   .     S
C125   H130    1.111   .     S
C125   H131    1.087   .     S
C125   C126    1.531   .     S
C126   H127    1.110   .     S
C126   H129    1.110   .     S
C126   H128    1.108   .     S
C132   H138    1.110   .     S
C132   C133    1.521   .     S
C132   H137    1.082   .     S
C133   H136    1.109   .     S
C133   H134    1.108   .     S
C133   H135    1.107   .     S
C139   C150    1.444   .     S
C139   O185    1.291   .     A
C139   O321    1.296   .     S
C140   C149    1.466   .     S
C140   O186    1.299   .     A
C141   H177    1.076   .     S
C141   C143    1.393   .     A
C141   C170    1.414   .     A
C142   H178    1.078   .     S
C142   C144    1.394   .     A
C142   C169    1.413   .     A
C143   O191    1.387   .     S
C143   C1409   1.401   1_554 S
C144   O202    1.383   .     S
C144   C1410   1.402   .     S
C145   C235    1.535   .     S
C145   C150    1.416   .     A
C145   C975    1.414   1_545 S
C146   C149    1.418   .     A
C146   C242    1.517   .     S
C146   C562    1.403   .     S
C147   C249    1.527   .     S
C147   C559    1.414   .     S
C147   C287    1.420   .     S
C148   C256    1.532   .     S
C148   C974    1.403   1_545 S
C150   C286    1.407   .     S
C151   H179    1.082   .     S
C151   C153    1.417   .     A
C151   N182    1.351   .     A
C152   H180    1.080   .     S
C152   C154    1.421   .     A
C152   N181    1.354   .     A
C153   N181    1.395   .     A
C153   C263    1.514   .     S
C154   N182    1.395   .     A
C154   C270    1.519   .     S
C155   O189    1.304   .     A
C155   C157    1.482   .     S
C155   O325    1.305   .     S
C156   O190    1.300   .     A
C156   C158    1.478   .     S
C157   C163    1.406   .     A
C157   C161    1.413   .     A
C158   C162    1.405   .     A
C158   C164    1.402   .     A
C159   C167    1.404   .     A
C159   C161    1.413   .     A
C159   H175    1.077   .     S
C160   H176    1.083   .     S
C160   C162    1.400   .     A
C160   C168    1.408   .     A
C161   O362    1.402   .     S
C163   C165    1.409   .     A
C163   H174    1.077   .     S
C164   C166    1.409   .     A
C164   H173    1.075   .     S
C165   C167    1.413   .     A
C165   C169    1.430   .     A
C166   C170    1.430   .     A
C166   C168    1.418   .     A
C167   C1385   1.401   .     S
C168   C1386   1.402   1_554 S
C169   C1412   1.424   .     S
C170   C1411   1.424   1_554 S
Cu171  O183    1.961   .     S
Cu171  O190    1.916   .     S
Cu171  N181    2.027   .     S
Cu171  O186    1.971   .     S
Cu171  O187    1.939   .     S
Cu172  O189    1.916   .     S
Cu172  O184    1.961   .     S
Cu172  O188    1.939   .     S
Cu172  N182    2.027   .     S
Cu172  O185    1.971   .     S
Cu172  Cu309   2.698   .     S
O184   C278    1.299   .     S
O188   C294    1.308   .     S
O191   C192    1.418   .     S
C192   H194    1.114   .     S
C192   H193    1.110   .     S
C192   C195    1.538   .     S
C195   C198    1.526   .     S
C195   H1438   1.111   1_554 S
C195   H1439   1.111   1_554 S
H196   C1437   1.111   .     S
H197   C1437   1.111   .     S
C198   H201    1.110   .     S
C198   H199    1.111   .     S
C198   H1856   1.110   1_554 S
H200   C2268   1.110   1_545 S
O202   C203    1.415   .     S
C203   H205    1.119   .     S
C203   C206    1.527   .     S
C203   H204    1.112   .     S
C206   H207    1.110   .     S
C206   H208    1.112   .     S
C206   C1037   1.524   1_545 S
C209   H211    1.111   .     S
C209   H212    1.109   .     S
C209   H210    1.110   .     S
C209   C620    1.524   .     S
O213   C214    1.415   .     S
O213   C300    1.383   .     S
C214   C217    1.526   .     S
C214   H216    1.119   .     S
C214   H215    1.111   .     S
C217   H219    1.112   .     S
C217   C220    1.526   .     S
C217   H218    1.112   .     S
C220   H222    1.109   .     S
C220   H223    1.111   .     S
C220   H221    1.109   .     S
O224   C225    1.413   .     S
C225   H226    1.106   .     S
C225   H227    1.113   .     S
C225   C228    1.526   .     S
C228   H230    1.111   .     S
C228   C231    1.528   .     S
C228   H229    1.111   .     S
C231   H232    1.108   .     S
C231   H233    1.109   .     S
C231   H234    1.108   .     S
C235   C236    1.526   .     S
C235   H240    1.102   .     S
C235   H241    1.106   .     S
C236   H237    1.111   .     S
C236   H238    1.109   .     S
C236   H239    1.110   .     S
C242   H247    1.107   .     S
C242   C243    1.539   .     S
C242   H248    1.106   .     S
C243   H245    1.106   .     S
C243   H246    1.107   .     S
C243   H244    1.112   .     S
C249   C250    1.536   .     S
C249   H254    1.107   .     S
C249   H255    1.109   .     S
C250   H252    1.110   .     S
C250   H251    1.112   .     S
C250   H253    1.107   .     S
C256   C257    1.532   .     S
C256   H262    1.108   .     S
C256   H261    1.112   .     S
C257   H259    1.104   .     S
C257   H260    1.110   .     S
C257   H258    1.105   .     S
C263   H268    1.111   .     S
C263   H269    1.087   .     S
C263   C264    1.531   .     S
C264   H265    1.110   .     S
C264   H267    1.110   .     S
C264   H266    1.108   .     S
C270   H276    1.110   .     S
C270   C271    1.521   .     S
C270   H275    1.082   .     S
C271   H274    1.109   .     S
C271   H272    1.108   .     S
C271   H273    1.107   .     S
C277   C288    1.444   .     S
C277   O323    1.291   .     A
C277   O45     1.296   1_655 S
C278   C287    1.466   .     S
C278   O324    1.299   .     A
C279   H315    1.076   .     S
C279   C281    1.393   .     A
C279   C308    1.414   .     A
C280   H316    1.078   .     S
C280   C282    1.394   .     A
C280   C307    1.413   .     A
C281   O329    1.387   .     S
C281   C1547   1.401   1_554 S
C282   O340    1.383   .     S
C282   C1548   1.402   .     S
C283   C373    1.535   .     S
C283   C288    1.416   .     A
C283   C1113   1.414   1_545 S
C284   C287    1.418   .     A
C284   C380    1.517   .     S
C284   C700    1.403   .     S
C285   C387    1.527   .     S
C285   C697    1.414   .     S
C285   C11     1.420   1_655 S
C286   C394    1.532   .     S
C286   C1112   1.403   1_545 S
C288   C10     1.407   1_655 S
C289   H317    1.082   .     S
C289   C291    1.417   .     A
C289   N320    1.351   .     A
C290   H318    1.080   .     S
C290   C292    1.421   .     A
C290   N319    1.354   .     A
C291   N319    1.395   .     A
C291   C401    1.514   .     S
C292   N320    1.395   .     A
C292   C408    1.519   .     S
C293   O327    1.304   .     A
C293   C295    1.482   .     S
C293   O49     1.305   1_655 S
C294   O328    1.300   .     A
C294   C296    1.478   .     S
C295   C301    1.406   .     A
C295   C299    1.413   .     A
C296   C300    1.405   .     A
C296   C302    1.402   .     A
C297   C305    1.404   .     A
C297   C299    1.413   .     A
C297   H313    1.077   .     S
C298   H314    1.083   .     S
C298   C300    1.400   .     A
C298   C306    1.408   .     A
C299   O86     1.402   1_655 S
C301   C303    1.409   .     A
C301   H312    1.077   .     S
C302   C304    1.409   .     A
C302   H311    1.075   .     S
C303   C305    1.413   .     A
C303   C307    1.430   .     A
C304   C308    1.430   .     A
C304   C306    1.418   .     A
C305   C1523   1.401   .     S
C306   C1524   1.402   1_554 S
C307   C1550   1.424   .     S
C308   C1549   1.424   1_554 S
Cu309  O321    1.961   .     S
Cu309  O328    1.916   .     S
Cu309  N319    2.027   .     S
Cu309  O324    1.971   .     S
Cu309  O325    1.939   .     S
Cu310  O327    1.916   .     S
Cu310  O322    1.961   .     S
Cu310  O326    1.939   .     S
Cu310  N320    2.027   .     S
Cu310  O323    1.971   .     S
Cu310  Cu33    2.698   1_655 S
O322   C2      1.299   1_655 S
O326   C18     1.308   1_655 S
O329   C330    1.418   .     S
C330   H332    1.114   .     S
C330   H331    1.110   .     S
C330   C333    1.538   .     S
C333   C336    1.526   .     S
C333   H1576   1.111   1_554 S
C333   H1577   1.111   1_554 S
H334   C1575   1.111   .     S
H335   C1575   1.111   .     S
C336   H339    1.110   .     S
C336   H337    1.111   .     S
C336   H1994   1.110   1_554 S
H338   C2406   1.110   1_545 S
O340   C341    1.415   .     S
C341   H343    1.119   .     S
C341   C344    1.527   .     S
C341   H342    1.112   .     S
C344   H345    1.110   .     S
C344   H346    1.112   .     S
C344   C1175   1.524   1_545 S
C347   H349    1.111   .     S
C347   H350    1.109   .     S
C347   H348    1.110   .     S
C347   C758    1.524   .     S
O351   C352    1.415   .     S
O351   C24     1.383   1_655 S
C352   C355    1.526   .     S
C352   H354    1.119   .     S
C352   H353    1.111   .     S
C355   H357    1.112   .     S
C355   C358    1.526   .     S
C355   H356    1.112   .     S
C358   H360    1.109   .     S
C358   H361    1.111   .     S
C358   H359    1.109   .     S
O362   C363    1.413   .     S
C363   H364    1.106   .     S
C363   H365    1.113   .     S
C363   C366    1.526   .     S
C366   H368    1.111   .     S
C366   C369    1.528   .     S
C366   H367    1.111   .     S
C369   H370    1.108   .     S
C369   H371    1.109   .     S
C369   H372    1.108   .     S
C373   C374    1.526   .     S
C373   H378    1.102   .     S
C373   H379    1.106   .     S
C374   H375    1.111   .     S
C374   H376    1.109   .     S
C374   H377    1.110   .     S
C380   H385    1.107   .     S
C380   C381    1.539   .     S
C380   H386    1.106   .     S
C381   H383    1.106   .     S
C381   H384    1.107   .     S
C381   H382    1.112   .     S
C387   C388    1.536   .     S
C387   H392    1.107   .     S
C387   H393    1.109   .     S
C388   H390    1.110   .     S
C388   H389    1.112   .     S
C388   H391    1.107   .     S
C394   C395    1.532   .     S
C394   H400    1.108   .     S
C394   H399    1.112   .     S
C395   H397    1.104   .     S
C395   H398    1.110   .     S
C395   H396    1.105   .     S
C401   H406    1.111   .     S
C401   H407    1.087   .     S
C401   C402    1.531   .     S
C402   H403    1.110   .     S
C402   H405    1.110   .     S
C402   H404    1.108   .     S
C408   H414    1.110   .     S
C408   C409    1.521   .     S
C408   H413    1.082   .     S
C409   H412    1.109   .     S
C409   H410    1.108   .     S
C409   H411    1.107   .     S
C415   C426    1.444   .     S
C415   O461    1.291   .     A
C415   O597    1.296   .     S
C416   C425    1.466   .     S
C416   O462    1.299   .     A
C416   O736    1.299   1_455 S
C417   H453    1.076   .     S
C417   C419    1.393   .     A
C417   C446    1.414   .     A
C418   H454    1.078   .     S
C418   C420    1.394   .     A
C418   C445    1.413   .     A
C419   O467    1.387   .     S
C419   C1685   1.401   1_554 S
C420   O478    1.383   .     S
C420   C1686   1.402   .     S
C421   C511    1.535   .     S
C421   C426    1.416   .     A
C422   C425    1.418   .     A
C422   C518    1.517   .     S
C422   C838    1.403   .     S
C423   C525    1.527   .     S
C423   C835    1.414   .     S
C423   C563    1.420   .     S
C424   C532    1.532   .     S
C424   C702    1.407   1_455 S
C425   C699    1.420   1_455 S
C426   C562    1.407   .     S
C427   H455    1.082   .     S
C427   C429    1.417   .     A
C427   N458    1.351   .     A
C428   H456    1.080   .     S
C428   C430    1.421   .     A
C428   N457    1.354   .     A
C429   N457    1.395   .     A
C429   C539    1.514   .     S
C430   N458    1.395   .     A
C430   C546    1.519   .     S
C431   O465    1.304   .     A
C431   C433    1.482   .     S
C431   O601    1.305   .     S
C432   O466    1.300   .     A
C432   C434    1.478   .     S
C432   O740    1.308   1_455 S
C433   C439    1.406   .     A
C433   C437    1.413   .     A
C434   C438    1.405   .     A
C434   C440    1.402   .     A
C435   C443    1.404   .     A
C435   C437    1.413   .     A
C435   H451    1.077   .     S
C436   H452    1.083   .     S
C436   C438    1.400   .     A
C436   C444    1.408   .     A
C437   O638    1.402   .     S
C438   O765    1.383   1_455 S
C439   C441    1.409   .     A
C439   H450    1.077   .     S
C440   C442    1.409   .     A
C440   H449    1.075   .     S
C441   C443    1.413   .     A
C441   C445    1.430   .     A
C442   C446    1.430   .     A
C442   C444    1.418   .     A
C443   C1661   1.401   .     S
C444   C1662   1.402   1_554 S
C445   C1688   1.424   .     S
C446   C1687   1.424   1_554 S
Cu447  O459    1.961   .     S
Cu447  O466    1.916   .     S
Cu447  N457    2.027   .     S
Cu447  O462    1.971   .     S
Cu447  O463    1.939   .     S
Cu447  Cu724   2.698   1_455 S
Cu448  O465    1.916   .     S
Cu448  O460    1.961   .     S
Cu448  O464    1.939   .     S
Cu448  N458    2.027   .     S
Cu448  O461    1.971   .     S
Cu448  Cu585   2.698   .     S
O459   C691    1.296   1_455 S
O460   C554    1.299   .     S
O463   C707    1.305   1_455 S
O464   C570    1.308   .     S
O467   C468    1.418   .     S
C468   H470    1.114   .     S
C468   H469    1.110   .     S
C468   C471    1.538   .     S
C471   C474    1.526   .     S
C471   H1714   1.111   1_554 S
C471   H1715   1.111   1_554 S
H472   C1713   1.111   .     S
H473   C1713   1.111   .     S
C474   H477    1.110   .     S
C474   H475    1.111   .     S
C474   H2132   1.110   1_554 S
H476   C1302   1.110   .     S
O478   C479    1.415   .     S
C479   H481    1.119   .     S
C479   C482    1.527   .     S
C479   H480    1.112   .     S
C482   H483    1.110   .     S
C482   H484    1.112   .     S
C485   H487    1.111   .     S
C485   H488    1.109   .     S
C485   H486    1.110   .     S
C485   C896    1.524   .     S
O489   C490    1.415   .     S
O489   C576    1.383   .     S
C490   C493    1.526   .     S
C490   H492    1.119   .     S
C490   H491    1.111   .     S
C493   H495    1.112   .     S
C493   C496    1.526   .     S
C493   H494    1.112   .     S
C496   H498    1.109   .     S
C496   H499    1.111   .     S
C496   H497    1.109   .     S
O500   C501    1.413   .     S
O500   C713    1.402   1_455 S
C501   H502    1.106   .     S
C501   H503    1.113   .     S
C501   C504    1.526   .     S
C504   H506    1.111   .     S
C504   C507    1.528   .     S
C504   H505    1.111   .     S
C507   H508    1.108   .     S
C507   H509    1.109   .     S
C507   H510    1.108   .     S
C511   C512    1.526   .     S
C511   H516    1.102   .     S
C511   H517    1.106   .     S
C512   H513    1.111   .     S
C512   H514    1.109   .     S
C512   H515    1.110   .     S
C518   H523    1.107   .     S
C518   C519    1.539   .     S
C518   H524    1.106   .     S
C519   H521    1.106   .     S
C519   H522    1.107   .     S
C519   H520    1.112   .     S
C525   C526    1.536   .     S
C525   H530    1.107   .     S
C525   H531    1.109   .     S
C526   H528    1.110   .     S
C526   H527    1.112   .     S
C526   H529    1.107   .     S
C532   C533    1.532   .     S
C532   H538    1.108   .     S
C532   H537    1.112   .     S
C533   H535    1.104   .     S
C533   H536    1.110   .     S
C533   H534    1.105   .     S
C539   H544    1.111   .     S
C539   H545    1.087   .     S
C539   C540    1.531   .     S
C540   H541    1.110   .     S
C540   H543    1.110   .     S
C540   H542    1.108   .     S
C546   H552    1.110   .     S
C546   C547    1.521   .     S
C546   H551    1.082   .     S
C547   H550    1.109   .     S
C547   H548    1.108   .     S
C547   H549    1.107   .     S
C553   C564    1.444   .     S
C553   O599    1.291   .     A
C553   O735    1.296   .     S
C554   C563    1.466   .     S
C554   O600    1.299   .     A
C555   H591    1.076   .     S
C555   C557    1.393   .     A
C555   C584    1.414   .     A
C556   H592    1.078   .     S
C556   C558    1.394   .     A
C556   C583    1.413   .     A
C557   O605    1.387   .     S
C557   C1823   1.401   1_554 S
C558   O616    1.383   .     S
C558   C1824   1.402   .     S
C559   C649    1.535   .     S
C559   C564    1.416   .     A
C560   C563    1.418   .     A
C560   C656    1.517   .     S
C560   C976    1.403   .     S
C561   C663    1.527   .     S
C561   C973    1.414   .     S
C561   C701    1.420   .     S
C562   C670    1.532   .     S
C564   C700    1.407   .     S
C565   H593    1.082   .     S
C565   C567    1.417   .     A
C565   N596    1.351   .     A
C566   H594    1.080   .     S
C566   C568    1.421   .     A
C566   N595    1.354   .     A
C567   N595    1.395   .     A
C567   C677    1.514   .     S
C568   N596    1.395   .     A
C568   C684    1.519   .     S
C569   O603    1.304   .     A
C569   C571    1.482   .     S
C569   O739    1.305   .     S
C570   O604    1.300   .     A
C570   C572    1.478   .     S
C571   C577    1.406   .     A
C571   C575    1.413   .     A
C572   C576    1.405   .     A
C572   C578    1.402   .     A
C573   C581    1.404   .     A
C573   C575    1.413   .     A
C573   H589    1.077   .     S
C574   H590    1.083   .     S
C574   C576    1.400   .     A
C574   C582    1.408   .     A
C575   O776    1.402   .     S
C577   C579    1.409   .     A
C577   H588    1.077   .     S
C578   C580    1.409   .     A
C578   H587    1.075   .     S
C579   C581    1.413   .     A
C579   C583    1.430   .     A
C580   C584    1.430   .     A
C580   C582    1.418   .     A
C581   C1799   1.401   .     S
C582   C1800   1.402   1_554 S
C583   C1826   1.424   .     S
C584   C1825   1.424   1_554 S
Cu585  O597    1.961   .     S
Cu585  O604    1.916   .     S
Cu585  N595    2.027   .     S
Cu585  O600    1.971   .     S
Cu585  O601    1.939   .     S
Cu586  O603    1.916   .     S
Cu586  O598    1.961   .     S
Cu586  O602    1.939   .     S
Cu586  N596    2.027   .     S
Cu586  O599    1.971   .     S
Cu586  Cu723   2.698   .     S
O598   C692    1.299   .     S
O602   C708    1.308   .     S
O605   C606    1.418   .     S
C606   H608    1.114   .     S
C606   H607    1.110   .     S
C606   C609    1.538   .     S
C609   C612    1.526   .     S
C609   H1852   1.111   1_554 S
C609   H1853   1.111   1_554 S
H610   C1851   1.111   .     S
H611   C1851   1.111   .     S
C612   H615    1.110   .     S
C612   H613    1.111   .     S
C612   H2270   1.110   1_554 S
H614   C1440   1.110   .     S
O616   C617    1.415   .     S
C617   H619    1.119   .     S
C617   C620    1.527   .     S
C617   H618    1.112   .     S
C620   H621    1.110   .     S
C620   H622    1.112   .     S
C623   H625    1.111   .     S
C623   H626    1.109   .     S
C623   H624    1.110   .     S
C623   C1034   1.524   .     S
O627   C628    1.415   .     S
O627   C714    1.383   .     S
C628   C631    1.526   .     S
C628   H630    1.119   .     S
C628   H629    1.111   .     S
C631   H633    1.112   .     S
C631   C634    1.526   .     S
C631   H632    1.112   .     S
C634   H636    1.109   .     S
C634   H637    1.111   .     S
C634   H635    1.109   .     S
O638   C639    1.413   .     S
C639   H640    1.106   .     S
C639   H641    1.113   .     S
C639   C642    1.526   .     S
C642   H644    1.111   .     S
C642   C645    1.528   .     S
C642   H643    1.111   .     S
C645   H646    1.108   .     S
C645   H647    1.109   .     S
C645   H648    1.108   .     S
C649   C650    1.526   .     S
C649   H654    1.102   .     S
C649   H655    1.106   .     S
C650   H651    1.111   .     S
C650   H652    1.109   .     S
C650   H653    1.110   .     S
C656   H661    1.107   .     S
C656   C657    1.539   .     S
C656   H662    1.106   .     S
C657   H659    1.106   .     S
C657   H660    1.107   .     S
C657   H658    1.112   .     S
C663   C664    1.536   .     S
C663   H668    1.107   .     S
C663   H669    1.109   .     S
C664   H666    1.110   .     S
C664   H665    1.112   .     S
C664   H667    1.107   .     S
C670   C671    1.532   .     S
C670   H676    1.108   .     S
C670   H675    1.112   .     S
C671   H673    1.104   .     S
C671   H674    1.110   .     S
C671   H672    1.105   .     S
C677   H682    1.111   .     S
C677   H683    1.087   .     S
C677   C678    1.531   .     S
C678   H679    1.110   .     S
C678   H681    1.110   .     S
C678   H680    1.108   .     S
C684   H690    1.110   .     S
C684   C685    1.521   .     S
C684   H689    1.082   .     S
C685   H688    1.109   .     S
C685   H686    1.108   .     S
C685   H687    1.107   .     S
C691   C702    1.444   .     S
C691   O737    1.291   .     A
C691   O459    1.296   1_655 S
C692   C701    1.466   .     S
C692   O738    1.299   .     A
C693   H729    1.076   .     S
C693   C695    1.393   .     A
C693   C722    1.414   .     A
C694   H730    1.078   .     S
C694   C696    1.394   .     A
C694   C721    1.413   .     A
C695   O743    1.387   .     S
C695   C1961   1.401   1_554 S
C696   O754    1.383   .     S
C696   C1962   1.402   .     S
C697   C787    1.535   .     S
C697   C702    1.416   .     A
C698   C701    1.418   .     A
C698   C794    1.517   .     S
C698   C1114   1.403   .     S
C699   C801    1.527   .     S
C699   C1111   1.414   .     S
C699   C425    1.420   1_655 S
C700   C808    1.532   .     S
C702   C424    1.407   1_655 S
C703   H731    1.082   .     S
C703   C705    1.417   .     A
C703   N734    1.351   .     A
C704   H732    1.080   .     S
C704   C706    1.421   .     A
C704   N733    1.354   .     A
C705   N733    1.395   .     A
C705   C815    1.514   .     S
C706   N734    1.395   .     A
C706   C822    1.519   .     S
C707   O741    1.304   .     A
C707   C709    1.482   .     S
C707   O463    1.305   1_655 S
C708   O742    1.300   .     A
C708   C710    1.478   .     S
C709   C715    1.406   .     A
C709   C713    1.413   .     A
C710   C714    1.405   .     A
C710   C716    1.402   .     A
C711   C719    1.404   .     A
C711   C713    1.413   .     A
C711   H727    1.077   .     S
C712   H728    1.083   .     S
C712   C714    1.400   .     A
C712   C720    1.408   .     A
C713   O500    1.402   1_655 S
C715   C717    1.409   .     A
C715   H726    1.077   .     S
C716   C718    1.409   .     A
C716   H725    1.075   .     S
C717   C719    1.413   .     A
C717   C721    1.430   .     A
C718   C722    1.430   .     A
C718   C720    1.418   .     A
C719   C1937   1.401   .     S
C720   C1938   1.402   1_554 S
C721   C1964   1.424   .     S
C722   C1963   1.424   1_554 S
Cu723  O735    1.961   .     S
Cu723  O742    1.916   .     S
Cu723  N733    2.027   .     S
Cu723  O738    1.971   .     S
Cu723  O739    1.939   .     S
Cu724  O741    1.916   .     S
Cu724  O736    1.961   .     S
Cu724  O740    1.939   .     S
Cu724  N734    2.027   .     S
Cu724  O737    1.971   .     S
Cu724  Cu447   2.698   1_655 S
O736   C416    1.299   1_655 S
O740   C432    1.308   1_655 S
O743   C744    1.418   .     S
C744   H746    1.114   .     S
C744   H745    1.110   .     S
C744   C747    1.538   .     S
C747   C750    1.526   .     S
C747   H1990   1.111   1_554 S
C747   H1991   1.111   1_554 S
H748   C1989   1.111   .     S
H749   C1989   1.111   .     S
C750   H753    1.110   .     S
C750   H751    1.111   .     S
C750   H2408   1.110   1_554 S
H752   C1578   1.110   .     S
O754   C755    1.415   .     S
C755   H757    1.119   .     S
C755   C758    1.527   .     S
C755   H756    1.112   .     S
C758   H759    1.110   .     S
C758   H760    1.112   .     S
C761   H763    1.111   .     S
C761   H764    1.109   .     S
C761   H762    1.110   .     S
C761   C1172   1.524   .     S
O765   C766    1.415   .     S
O765   C438    1.383   1_655 S
C766   C769    1.526   .     S
C766   H768    1.119   .     S
C766   H767    1.111   .     S
C769   H771    1.112   .     S
C769   C772    1.526   .     S
C769   H770    1.112   .     S
C772   H774    1.109   .     S
C772   H775    1.111   .     S
C772   H773    1.109   .     S
O776   C777    1.413   .     S
C777   H778    1.106   .     S
C777   H779    1.113   .     S
C777   C780    1.526   .     S
C780   H782    1.111   .     S
C780   C783    1.528   .     S
C780   H781    1.111   .     S
C783   H784    1.108   .     S
C783   H785    1.109   .     S
C783   H786    1.108   .     S
C787   C788    1.526   .     S
C787   H792    1.102   .     S
C787   H793    1.106   .     S
C788   H789    1.111   .     S
C788   H790    1.109   .     S
C788   H791    1.110   .     S
C794   H799    1.107   .     S
C794   C795    1.539   .     S
C794   H800    1.106   .     S
C795   H797    1.106   .     S
C795   H798    1.107   .     S
C795   H796    1.112   .     S
C801   C802    1.536   .     S
C801   H806    1.107   .     S
C801   H807    1.109   .     S
C802   H804    1.110   .     S
C802   H803    1.112   .     S
C802   H805    1.107   .     S
C808   C809    1.532   .     S
C808   H814    1.108   .     S
C808   H813    1.112   .     S
C809   H811    1.104   .     S
C809   H812    1.110   .     S
C809   H810    1.105   .     S
C815   H820    1.111   .     S
C815   H821    1.087   .     S
C815   C816    1.531   .     S
C816   H817    1.110   .     S
C816   H819    1.110   .     S
C816   H818    1.108   .     S
C822   H828    1.110   .     S
C822   C823    1.521   .     S
C822   H827    1.082   .     S
C823   H826    1.109   .     S
C823   H824    1.108   .     S
C823   H825    1.107   .     S
C829   C840    1.444   .     S
C829   O875    1.291   .     A
C829   O1011   1.296   .     S
C830   C839    1.466   .     S
C830   O876    1.299   .     A
C830   O1150   1.299   1_455 S
C831   H867    1.076   .     S
C831   C833    1.393   .     A
C831   C860    1.414   .     A
C832   H868    1.078   .     S
C832   C834    1.394   .     A
C832   C859    1.413   .     A
C833   O881    1.387   .     S
C833   C2099   1.401   1_554 S
C834   O892    1.383   .     S
C834   C2100   1.402   .     S
C835   C925    1.535   .     S
C835   C840    1.416   .     A
C836   C839    1.418   .     A
C836   C932    1.517   .     S
C836   C10     1.403   1_565 S
C837   C939    1.527   .     S
C837   C7      1.414   1_565 S
C837   C977    1.420   .     S
C838   C946    1.532   .     S
C838   C1116   1.407   1_455 S
C839   C1113   1.420   1_455 S
C840   C976    1.407   .     S
C841   H869    1.082   .     S
C841   C843    1.417   .     A
C841   N872    1.351   .     A
C842   H870    1.080   .     S
C842   C844    1.421   .     A
C842   N871    1.354   .     A
C843   N871    1.395   .     A
C843   C953    1.514   .     S
C844   N872    1.395   .     A
C844   C960    1.519   .     S
C845   O879    1.304   .     A
C845   C847    1.482   .     S
C845   O1015   1.305   .     S
C846   O880    1.300   .     A
C846   C848    1.478   .     S
C846   O1154   1.308   1_455 S
C847   C853    1.406   .     A
C847   C851    1.413   .     A
C848   C852    1.405   .     A
C848   C854    1.402   .     A
C849   C857    1.404   .     A
C849   C851    1.413   .     A
C849   H865    1.077   .     S
C850   H866    1.083   .     S
C850   C852    1.400   .     A
C850   C858    1.408   .     A
C851   O1052   1.402   .     S
C852   O1179   1.383   1_455 S
C853   C855    1.409   .     A
C853   H864    1.077   .     S
C854   C856    1.409   .     A
C854   H863    1.075   .     S
C855   C857    1.413   .     A
C855   C859    1.430   .     A
C856   C860    1.430   .     A
C856   C858    1.418   .     A
C857   C2075   1.401   .     S
C858   C2076   1.402   1_554 S
C859   C2102   1.424   .     S
C860   C2101   1.424   1_554 S
Cu861  O873    1.961   .     S
Cu861  O880    1.916   .     S
Cu861  N871    2.027   .     S
Cu861  O876    1.971   .     S
Cu861  O877    1.939   .     S
Cu861  Cu1138  2.698   1_455 S
Cu862  O879    1.916   .     S
Cu862  O874    1.961   .     S
Cu862  O878    1.939   .     S
Cu862  N872    2.027   .     S
Cu862  O875    1.971   .     S
Cu862  Cu999   2.698   .     S
O873   C1105   1.296   1_455 S
O874   C968    1.299   .     S
O877   C1121   1.305   1_455 S
O878   C984    1.308   .     S
O881   C882    1.418   .     S
C882   H884    1.114   .     S
C882   H883    1.110   .     S
C882   C885    1.538   .     S
C885   C888    1.526   .     S
C885   H2128   1.111   1_554 S
C885   H2129   1.111   1_554 S
H886   C2127   1.111   .     S
H887   C2127   1.111   .     S
C888   H891    1.110   .     S
C888   H889    1.111   .     S
C888   H1304   1.110   1_564 S
H890   C1716   1.110   .     S
O892   C893    1.415   .     S
C893   H895    1.119   .     S
C893   C896    1.527   .     S
C893   H894    1.112   .     S
C896   H897    1.110   .     S
C896   H898    1.112   .     S
C899   H901    1.111   .     S
C899   H902    1.109   .     S
C899   H900    1.110   .     S
C899   C68     1.524   1_565 S
O903   C904    1.415   .     S
O903   C990    1.383   .     S
C904   C907    1.526   .     S
C904   H906    1.119   .     S
C904   H905    1.111   .     S
C907   H909    1.112   .     S
C907   C910    1.526   .     S
C907   H908    1.112   .     S
C910   H912    1.109   .     S
C910   H913    1.111   .     S
C910   H911    1.109   .     S
O914   C915    1.413   .     S
O914   C1127   1.402   1_455 S
C915   H916    1.106   .     S
C915   H917    1.113   .     S
C915   C918    1.526   .     S
C918   H920    1.111   .     S
C918   C921    1.528   .     S
C918   H919    1.111   .     S
C921   H922    1.108   .     S
C921   H923    1.109   .     S
C921   H924    1.108   .     S
C925   C926    1.526   .     S
C925   H930    1.102   .     S
C925   H931    1.106   .     S
C926   H927    1.111   .     S
C926   H928    1.109   .     S
C926   H929    1.110   .     S
C932   H937    1.107   .     S
C932   C933    1.539   .     S
C932   H938    1.106   .     S
C933   H935    1.106   .     S
C933   H936    1.107   .     S
C933   H934    1.112   .     S
C939   C940    1.536   .     S
C939   H944    1.107   .     S
C939   H945    1.109   .     S
C940   H942    1.110   .     S
C940   H941    1.112   .     S
C940   H943    1.107   .     S
C946   C947    1.532   .     S
C946   H952    1.108   .     S
C946   H951    1.112   .     S
C947   H949    1.104   .     S
C947   H950    1.110   .     S
C947   H948    1.105   .     S
C953   H958    1.111   .     S
C953   H959    1.087   .     S
C953   C954    1.531   .     S
C954   H955    1.110   .     S
C954   H957    1.110   .     S
C954   H956    1.108   .     S
C960   H966    1.110   .     S
C960   C961    1.521   .     S
C960   H965    1.082   .     S
C961   H964    1.109   .     S
C961   H962    1.108   .     S
C961   H963    1.107   .     S
C967   C978    1.444   .     S
C967   O1013   1.291   .     A
C967   O1149   1.296   .     S
C968   C977    1.466   .     S
C968   O1014   1.299   .     A
C969   H1005   1.076   .     S
C969   C971    1.393   .     A
C969   C998    1.414   .     A
C970   H1006   1.078   .     S
C970   C972    1.394   .     A
C970   C997    1.413   .     A
C971   O1019   1.387   .     S
C971   C2237   1.401   1_554 S
C972   O1030   1.383   .     S
C972   C2238   1.402   .     S
C973   C1063   1.535   .     S
C973   C978    1.416   .     A
C974   C977    1.418   .     A
C974   C1070   1.517   .     S
C974   C148    1.403   1_565 S
C975   C1077   1.527   .     S
C975   C145    1.414   1_565 S
C975   C1115   1.420   .     S
C976   C1084   1.532   .     S
C978   C1114   1.407   .     S
C979   H1007   1.082   .     S
C979   C981    1.417   .     A
C979   N1010   1.351   .     A
C980   H1008   1.080   .     S
C980   C982    1.421   .     A
C980   N1009   1.354   .     A
C981   N1009   1.395   .     A
C981   C1091   1.514   .     S
C982   N1010   1.395   .     A
C982   C1098   1.519   .     S
C983   O1017   1.304   .     A
C983   C985    1.482   .     S
C983   O1153   1.305   .     S
C984   O1018   1.300   .     A
C984   C986    1.478   .     S
C985   C991    1.406   .     A
C985   C989    1.413   .     A
C986   C990    1.405   .     A
C986   C992    1.402   .     A
C987   C995    1.404   .     A
C987   C989    1.413   .     A
C987   H1003   1.077   .     S
C988   H1004   1.083   .     S
C988   C990    1.400   .     A
C988   C996    1.408   .     A
C989   O1190   1.402   .     S
C991   C993    1.409   .     A
C991   H1002   1.077   .     S
C992   C994    1.409   .     A
C992   H1001   1.075   .     S
C993   C995    1.413   .     A
C993   C997    1.430   .     A
C994   C998    1.430   .     A
C994   C996    1.418   .     A
C995   C2213   1.401   .     S
C996   C2214   1.402   1_554 S
C997   C2240   1.424   .     S
C998   C2239   1.424   1_554 S
Cu999  O1011   1.961   .     S
Cu999  O1018   1.916   .     S
Cu999  N1009   2.027   .     S
Cu999  O1014   1.971   .     S
Cu999  O1015   1.939   .     S
Cu1000 O1017   1.916   .     S
Cu1000 O1012   1.961   .     S
Cu1000 O1016   1.939   .     S
Cu1000 N1010   2.027   .     S
Cu1000 O1013   1.971   .     S
Cu1000 Cu1137  2.698   .     S
O1012  C1106   1.299   .     S
O1016  C1122   1.308   .     S
O1019  C1020   1.418   .     S
C1020  H1022   1.114   .     S
C1020  H1021   1.110   .     S
C1020  C1023   1.538   .     S
C1023  C1026   1.526   .     S
C1023  H2266   1.111   1_554 S
C1023  H2267   1.111   1_554 S
H1024  C2265   1.111   .     S
H1025  C2265   1.111   .     S
C1026  H1029   1.110   .     S
C1026  H1027   1.111   .     S
C1026  H1442   1.110   1_564 S
H1028  C1854   1.110   .     S
O1030  C1031   1.415   .     S
C1031  H1033   1.119   .     S
C1031  C1034   1.527   .     S
C1031  H1032   1.112   .     S
C1034  H1035   1.110   .     S
C1034  H1036   1.112   .     S
C1037  H1039   1.111   .     S
C1037  H1040   1.109   .     S
C1037  H1038   1.110   .     S
C1037  C206    1.524   1_565 S
O1041  C1042   1.415   .     S
O1041  C1128   1.383   .     S
C1042  C1045   1.526   .     S
C1042  H1044   1.119   .     S
C1042  H1043   1.111   .     S
C1045  H1047   1.112   .     S
C1045  C1048   1.526   .     S
C1045  H1046   1.112   .     S
C1048  H1050   1.109   .     S
C1048  H1051   1.111   .     S
C1048  H1049   1.109   .     S
O1052  C1053   1.413   .     S
C1053  H1054   1.106   .     S
C1053  H1055   1.113   .     S
C1053  C1056   1.526   .     S
C1056  H1058   1.111   .     S
C1056  C1059   1.528   .     S
C1056  H1057   1.111   .     S
C1059  H1060   1.108   .     S
C1059  H1061   1.109   .     S
C1059  H1062   1.108   .     S
C1063  C1064   1.526   .     S
C1063  H1068   1.102   .     S
C1063  H1069   1.106   .     S
C1064  H1065   1.111   .     S
C1064  H1066   1.109   .     S
C1064  H1067   1.110   .     S
C1070  H1075   1.107   .     S
C1070  C1071   1.539   .     S
C1070  H1076   1.106   .     S
C1071  H1073   1.106   .     S
C1071  H1074   1.107   .     S
C1071  H1072   1.112   .     S
C1077  C1078   1.536   .     S
C1077  H1082   1.107   .     S
C1077  H1083   1.109   .     S
C1078  H1080   1.110   .     S
C1078  H1079   1.112   .     S
C1078  H1081   1.107   .     S
C1084  C1085   1.532   .     S
C1084  H1090   1.108   .     S
C1084  H1089   1.112   .     S
C1085  H1087   1.104   .     S
C1085  H1088   1.110   .     S
C1085  H1086   1.105   .     S
C1091  H1096   1.111   .     S
C1091  H1097   1.087   .     S
C1091  C1092   1.531   .     S
C1092  H1093   1.110   .     S
C1092  H1095   1.110   .     S
C1092  H1094   1.108   .     S
C1098  H1104   1.110   .     S
C1098  C1099   1.521   .     S
C1098  H1103   1.082   .     S
C1099  H1102   1.109   .     S
C1099  H1100   1.108   .     S
C1099  H1101   1.107   .     S
C1105  C1116   1.444   .     S
C1105  O1151   1.291   .     A
C1105  O873    1.296   1_655 S
C1106  C1115   1.466   .     S
C1106  O1152   1.299   .     A
C1107  H1143   1.076   .     S
C1107  C1109   1.393   .     A
C1107  C1136   1.414   .     A
C1108  H1144   1.078   .     S
C1108  C1110   1.394   .     A
C1108  C1135   1.413   .     A
C1109  O1157   1.387   .     S
C1109  C2375   1.401   1_554 S
C1110  O1168   1.383   .     S
C1110  C2376   1.402   .     S
C1111  C1201   1.535   .     S
C1111  C1116   1.416   .     A
C1112  C1115   1.418   .     A
C1112  C1208   1.517   .     S
C1112  C286    1.403   1_565 S
C1113  C1215   1.527   .     S
C1113  C283    1.414   1_565 S
C1113  C839    1.420   1_655 S
C1114  C1222   1.532   .     S
C1116  C838    1.407   1_655 S
C1117  H1145   1.082   .     S
C1117  C1119   1.417   .     A
C1117  N1148   1.351   .     A
C1118  H1146   1.080   .     S
C1118  C1120   1.421   .     A
C1118  N1147   1.354   .     A
C1119  N1147   1.395   .     A
C1119  C1229   1.514   .     S
C1120  N1148   1.395   .     A
C1120  C1236   1.519   .     S
C1121  O1155   1.304   .     A
C1121  C1123   1.482   .     S
C1121  O877    1.305   1_655 S
C1122  O1156   1.300   .     A
C1122  C1124   1.478   .     S
C1123  C1129   1.406   .     A
C1123  C1127   1.413   .     A
C1124  C1128   1.405   .     A
C1124  C1130   1.402   .     A
C1125  C1133   1.404   .     A
C1125  C1127   1.413   .     A
C1125  H1141   1.077   .     S
C1126  H1142   1.083   .     S
C1126  C1128   1.400   .     A
C1126  C1134   1.408   .     A
C1127  O914    1.402   1_655 S
C1129  C1131   1.409   .     A
C1129  H1140   1.077   .     S
C1130  C1132   1.409   .     A
C1130  H1139   1.075   .     S
C1131  C1133   1.413   .     A
C1131  C1135   1.430   .     A
C1132  C1136   1.430   .     A
C1132  C1134   1.418   .     A
C1133  C2351   1.401   .     S
C1134  C2352   1.402   1_554 S
C1135  C2378   1.424   .     S
C1136  C2377   1.424   1_554 S
Cu1137 O1149   1.961   .     S
Cu1137 O1156   1.916   .     S
Cu1137 N1147   2.027   .     S
Cu1137 O1152   1.971   .     S
Cu1137 O1153   1.939   .     S
Cu1138 O1155   1.916   .     S
Cu1138 O1150   1.961   .     S
Cu1138 O1154   1.939   .     S
Cu1138 N1148   2.027   .     S
Cu1138 O1151   1.971   .     S
Cu1138 Cu861   2.698   1_655 S
O1150  C830    1.299   1_655 S
O1154  C846    1.308   1_655 S
O1157  C1158   1.418   .     S
C1158  H1160   1.114   .     S
C1158  H1159   1.110   .     S
C1158  C1161   1.538   .     S
C1161  C1164   1.526   .     S
C1161  H2404   1.111   1_554 S
C1161  H2405   1.111   1_554 S
H1162  C2403   1.111   .     S
H1163  C2403   1.111   .     S
C1164  H1167   1.110   .     S
C1164  H1165   1.111   .     S
C1164  H1580   1.110   1_564 S
H1166  C1992   1.110   .     S
O1168  C1169   1.415   .     S
C1169  H1171   1.119   .     S
C1169  C1172   1.527   .     S
C1169  H1170   1.112   .     S
C1172  H1173   1.110   .     S
C1172  H1174   1.112   .     S
C1175  H1177   1.111   .     S
C1175  H1178   1.109   .     S
C1175  H1176   1.110   .     S
C1175  C344    1.524   1_565 S
O1179  C1180   1.415   .     S
O1179  C852    1.383   1_655 S
C1180  C1183   1.526   .     S
C1180  H1182   1.119   .     S
C1180  H1181   1.111   .     S
C1183  H1185   1.112   .     S
C1183  C1186   1.526   .     S
C1183  H1184   1.112   .     S
C1186  H1188   1.109   .     S
C1186  H1189   1.111   .     S
C1186  H1187   1.109   .     S
O1190  C1191   1.413   .     S
C1191  H1192   1.106   .     S
C1191  H1193   1.113   .     S
C1191  C1194   1.526   .     S
C1194  H1196   1.111   .     S
C1194  C1197   1.528   .     S
C1194  H1195   1.111   .     S
C1197  H1198   1.108   .     S
C1197  H1199   1.109   .     S
C1197  H1200   1.108   .     S
C1201  C1202   1.526   .     S
C1201  H1206   1.102   .     S
C1201  H1207   1.106   .     S
C1202  H1203   1.111   .     S
C1202  H1204   1.109   .     S
C1202  H1205   1.110   .     S
C1208  H1213   1.107   .     S
C1208  C1209   1.539   .     S
C1208  H1214   1.106   .     S
C1209  H1211   1.106   .     S
C1209  H1212   1.107   .     S
C1209  H1210   1.112   .     S
C1215  C1216   1.536   .     S
C1215  H1220   1.107   .     S
C1215  H1221   1.109   .     S
C1216  H1218   1.110   .     S
C1216  H1217   1.112   .     S
C1216  H1219   1.107   .     S
C1222  C1223   1.532   .     S
C1222  H1228   1.108   .     S
C1222  H1227   1.112   .     S
C1223  H1225   1.104   .     S
C1223  H1226   1.110   .     S
C1223  H1224   1.105   .     S
C1229  H1234   1.111   .     S
C1229  H1235   1.087   .     S
C1229  C1230   1.531   .     S
C1230  H1231   1.110   .     S
C1230  H1233   1.110   .     S
C1230  H1232   1.108   .     S
C1236  H1242   1.110   .     S
C1236  C1237   1.521   .     S
C1236  H1241   1.082   .     S
C1237  H1240   1.109   .     S
C1237  H1238   1.108   .     S
C1237  H1239   1.107   .     S
C1243  C1254   1.444   .     S
C1243  O1289   1.291   .     A
C1243  O1425   1.296   .     S
C1244  C1253   1.466   .     S
C1244  O1290   1.299   .     A
C1244  O1564   1.299   1_455 S
C1245  H1281   1.076   .     S
C1245  C1247   1.393   .     A
C1245  C1274   1.414   .     A
C1246  H1282   1.078   .     S
C1246  C1248   1.394   .     A
C1246  C1273   1.413   .     A
C1247  O1295   1.387   .     S
C1248  O1306   1.383   .     S
C1248  C30     1.402   1_556 S
C1249  C1339   1.535   .     S
C1249  C1254   1.416   .     A
C1249  C2079   1.414   1_545 S
C1250  C1253   1.418   .     A
C1250  C1346   1.517   .     S
C1250  C1666   1.403   .     S
C1251  C1353   1.527   .     S
C1251  C1663   1.414   .     S
C1251  C1391   1.420   .     S
C1252  C1360   1.532   .     S
C1252  C2078   1.403   1_545 S
C1252  C1530   1.407   1_455 S
C1253  C1527   1.420   1_455 S
C1254  C1390   1.407   .     S
C1255  H1283   1.082   .     S
C1255  C1257   1.417   .     A
C1255  N1286   1.351   .     A
C1256  H1284   1.080   .     S
C1256  C1258   1.421   .     A
C1256  N1285   1.354   .     A
C1257  N1285   1.395   .     A
C1257  C1367   1.514   .     S
C1258  N1286   1.395   .     A
C1258  C1374   1.519   .     S
C1259  O1293   1.304   .     A
C1259  C1261   1.482   .     S
C1259  O1429   1.305   .     S
C1260  O1294   1.300   .     A
C1260  C1262   1.478   .     S
C1260  O1568   1.308   1_455 S
C1261  C1267   1.406   .     A
C1261  C1265   1.413   .     A
C1262  C1266   1.405   .     A
C1262  C1268   1.402   .     A
C1263  C1271   1.404   .     A
C1263  C1265   1.413   .     A
C1263  H1279   1.077   .     S
C1264  H1280   1.083   .     S
C1264  C1266   1.400   .     A
C1264  C1272   1.408   .     A
C1265  O1466   1.402   .     S
C1266  O1593   1.383   1_455 S
C1267  C1269   1.409   .     A
C1267  H1278   1.077   .     S
C1268  C1270   1.409   .     A
C1268  H1277   1.075   .     S
C1269  C1271   1.413   .     A
C1269  C1273   1.430   .     A
C1270  C1274   1.430   .     A
C1270  C1272   1.418   .     A
C1271  C5      1.401   1_556 S
C1273  C32     1.424   1_556 S
Cu1275 O1287   1.961   .     S
Cu1275 O1294   1.916   .     S
Cu1275 N1285   2.027   .     S
Cu1275 O1290   1.971   .     S
Cu1275 O1291   1.939   .     S
Cu1275 Cu1552  2.698   1_455 S
Cu1276 O1293   1.916   .     S
Cu1276 O1288   1.961   .     S
Cu1276 O1292   1.939   .     S
Cu1276 N1286   2.027   .     S
Cu1276 O1289   1.971   .     S
Cu1276 Cu1413  2.698   .     S
O1287  C1519   1.296   1_455 S
O1288  C1382   1.299   .     S
O1291  C1535   1.305   1_455 S
O1292  C1398   1.308   .     S
O1295  C1296   1.418   .     S
C1296  H1298   1.114   .     S
C1296  H1297   1.110   .     S
C1296  C1299   1.538   .     S
C1299  C1302   1.526   .     S
H1300  C57     1.111   1_556 S
H1301  C57     1.111   1_556 S
C1302  H1305   1.110   .     S
C1302  H1303   1.111   .     S
H1304  C888    1.110   1_546 S
O1306  C1307   1.415   .     S
C1307  H1309   1.119   .     S
C1307  C1310   1.527   .     S
C1307  H1308   1.112   .     S
C1310  H1311   1.110   .     S
C1310  H1312   1.112   .     S
C1310  C2141   1.524   1_545 S
C1313  H1315   1.111   .     S
C1313  H1316   1.109   .     S
C1313  H1314   1.110   .     S
C1313  C1724   1.524   .     S
O1317  C1318   1.415   .     S
O1317  C1404   1.383   .     S
C1318  C1321   1.526   .     S
C1318  H1320   1.119   .     S
C1318  H1319   1.111   .     S
C1321  H1323   1.112   .     S
C1321  C1324   1.526   .     S
C1321  H1322   1.112   .     S
C1324  H1326   1.109   .     S
C1324  H1327   1.111   .     S
C1324  H1325   1.109   .     S
O1328  C1329   1.413   .     S
O1328  C1541   1.402   1_455 S
C1329  H1330   1.106   .     S
C1329  H1331   1.113   .     S
C1329  C1332   1.526   .     S
C1332  H1334   1.111   .     S
C1332  C1335   1.528   .     S
C1332  H1333   1.111   .     S
C1335  H1336   1.108   .     S
C1335  H1337   1.109   .     S
C1335  H1338   1.108   .     S
C1339  C1340   1.526   .     S
C1339  H1344   1.102   .     S
C1339  H1345   1.106   .     S
C1340  H1341   1.111   .     S
C1340  H1342   1.109   .     S
C1340  H1343   1.110   .     S
C1346  H1351   1.107   .     S
C1346  C1347   1.539   .     S
C1346  H1352   1.106   .     S
C1347  H1349   1.106   .     S
C1347  H1350   1.107   .     S
C1347  H1348   1.112   .     S
C1353  C1354   1.536   .     S
C1353  H1358   1.107   .     S
C1353  H1359   1.109   .     S
C1354  H1356   1.110   .     S
C1354  H1355   1.112   .     S
C1354  H1357   1.107   .     S
C1360  C1361   1.532   .     S
C1360  H1366   1.108   .     S
C1360  H1365   1.112   .     S
C1361  H1363   1.104   .     S
C1361  H1364   1.110   .     S
C1361  H1362   1.105   .     S
C1367  H1372   1.111   .     S
C1367  H1373   1.087   .     S
C1367  C1368   1.531   .     S
C1368  H1369   1.110   .     S
C1368  H1371   1.110   .     S
C1368  H1370   1.108   .     S
C1374  H1380   1.110   .     S
C1374  C1375   1.521   .     S
C1374  H1379   1.082   .     S
C1375  H1378   1.109   .     S
C1375  H1376   1.108   .     S
C1375  H1377   1.107   .     S
C1381  C1392   1.444   .     S
C1381  O1427   1.291   .     A
C1381  O1563   1.296   .     S
C1382  C1391   1.466   .     S
C1382  O1428   1.299   .     A
C1383  H1419   1.076   .     S
C1383  C1385   1.393   .     A
C1383  C1412   1.414   .     A
C1384  H1420   1.078   .     S
C1384  C1386   1.394   .     A
C1384  C1411   1.413   .     A
C1385  O1433   1.387   .     S
C1386  O1444   1.383   .     S
C1386  C168    1.402   1_556 S
C1387  C1477   1.535   .     S
C1387  C1392   1.416   .     A
C1387  C2217   1.414   1_545 S
C1388  C1391   1.418   .     A
C1388  C1484   1.517   .     S
C1388  C1804   1.403   .     S
C1389  C1491   1.527   .     S
C1389  C1801   1.414   .     S
C1389  C1529   1.420   .     S
C1390  C1498   1.532   .     S
C1390  C2216   1.403   1_545 S
C1392  C1528   1.407   .     S
C1393  H1421   1.082   .     S
C1393  C1395   1.417   .     A
C1393  N1424   1.351   .     A
C1394  H1422   1.080   .     S
C1394  C1396   1.421   .     A
C1394  N1423   1.354   .     A
C1395  N1423   1.395   .     A
C1395  C1505   1.514   .     S
C1396  N1424   1.395   .     A
C1396  C1512   1.519   .     S
C1397  O1431   1.304   .     A
C1397  C1399   1.482   .     S
C1397  O1567   1.305   .     S
C1398  O1432   1.300   .     A
C1398  C1400   1.478   .     S
C1399  C1405   1.406   .     A
C1399  C1403   1.413   .     A
C1400  C1404   1.405   .     A
C1400  C1406   1.402   .     A
C1401  C1409   1.404   .     A
C1401  C1403   1.413   .     A
C1401  H1417   1.077   .     S
C1402  H1418   1.083   .     S
C1402  C1404   1.400   .     A
C1402  C1410   1.408   .     A
C1403  O1604   1.402   .     S
C1405  C1407   1.409   .     A
C1405  H1416   1.077   .     S
C1406  C1408   1.409   .     A
C1406  H1415   1.075   .     S
C1407  C1409   1.413   .     A
C1407  C1411   1.430   .     A
C1408  C1412   1.430   .     A
C1408  C1410   1.418   .     A
C1409  C143    1.401   1_556 S
C1411  C170    1.424   1_556 S
Cu1413 O1425   1.961   .     S
Cu1413 O1432   1.916   .     S
Cu1413 N1423   2.027   .     S
Cu1413 O1428   1.971   .     S
Cu1413 O1429   1.939   .     S
Cu1414 O1431   1.916   .     S
Cu1414 O1426   1.961   .     S
Cu1414 O1430   1.939   .     S
Cu1414 N1424   2.027   .     S
Cu1414 O1427   1.971   .     S
Cu1414 Cu1551  2.698   .     S
O1426  C1520   1.299   .     S
O1430  C1536   1.308   .     S
O1433  C1434   1.418   .     S
C1434  H1436   1.114   .     S
C1434  H1435   1.110   .     S
C1434  C1437   1.538   .     S
C1437  C1440   1.526   .     S
H1438  C195    1.111   1_556 S
H1439  C195    1.111   1_556 S
C1440  H1443   1.110   .     S
C1440  H1441   1.111   .     S
H1442  C1026   1.110   1_546 S
O1444  C1445   1.415   .     S
C1445  H1447   1.119   .     S
C1445  C1448   1.527   .     S
C1445  H1446   1.112   .     S
C1448  H1449   1.110   .     S
C1448  H1450   1.112   .     S
C1448  C2279   1.524   1_545 S
C1451  H1453   1.111   .     S
C1451  H1454   1.109   .     S
C1451  H1452   1.110   .     S
C1451  C1862   1.524   .     S
O1455  C1456   1.415   .     S
O1455  C1542   1.383   .     S
C1456  C1459   1.526   .     S
C1456  H1458   1.119   .     S
C1456  H1457   1.111   .     S
C1459  H1461   1.112   .     S
C1459  C1462   1.526   .     S
C1459  H1460   1.112   .     S
C1462  H1464   1.109   .     S
C1462  H1465   1.111   .     S
C1462  H1463   1.109   .     S
O1466  C1467   1.413   .     S
C1467  H1468   1.106   .     S
C1467  H1469   1.113   .     S
C1467  C1470   1.526   .     S
C1470  H1472   1.111   .     S
C1470  C1473   1.528   .     S
C1470  H1471   1.111   .     S
C1473  H1474   1.108   .     S
C1473  H1475   1.109   .     S
C1473  H1476   1.108   .     S
C1477  C1478   1.526   .     S
C1477  H1482   1.102   .     S
C1477  H1483   1.106   .     S
C1478  H1479   1.111   .     S
C1478  H1480   1.109   .     S
C1478  H1481   1.110   .     S
C1484  H1489   1.107   .     S
C1484  C1485   1.539   .     S
C1484  H1490   1.106   .     S
C1485  H1487   1.106   .     S
C1485  H1488   1.107   .     S
C1485  H1486   1.112   .     S
C1491  C1492   1.536   .     S
C1491  H1496   1.107   .     S
C1491  H1497   1.109   .     S
C1492  H1494   1.110   .     S
C1492  H1493   1.112   .     S
C1492  H1495   1.107   .     S
C1498  C1499   1.532   .     S
C1498  H1504   1.108   .     S
C1498  H1503   1.112   .     S
C1499  H1501   1.104   .     S
C1499  H1502   1.110   .     S
C1499  H1500   1.105   .     S
C1505  H1510   1.111   .     S
C1505  H1511   1.087   .     S
C1505  C1506   1.531   .     S
C1506  H1507   1.110   .     S
C1506  H1509   1.110   .     S
C1506  H1508   1.108   .     S
C1512  H1518   1.110   .     S
C1512  C1513   1.521   .     S
C1512  H1517   1.082   .     S
C1513  H1516   1.109   .     S
C1513  H1514   1.108   .     S
C1513  H1515   1.107   .     S
C1519  C1530   1.444   .     S
C1519  O1565   1.291   .     A
C1519  O1287   1.296   1_655 S
C1520  C1529   1.466   .     S
C1520  O1566   1.299   .     A
C1521  H1557   1.076   .     S
C1521  C1523   1.393   .     A
C1521  C1550   1.414   .     A
C1522  H1558   1.078   .     S
C1522  C1524   1.394   .     A
C1522  C1549   1.413   .     A
C1523  O1571   1.387   .     S
C1524  O1582   1.383   .     S
C1524  C306    1.402   1_556 S
C1525  C1615   1.535   .     S
C1525  C1530   1.416   .     A
C1525  C2355   1.414   1_545 S
C1526  C1529   1.418   .     A
C1526  C1622   1.517   .     S
C1526  C1942   1.403   .     S
C1527  C1629   1.527   .     S
C1527  C1939   1.414   .     S
C1527  C1253   1.420   1_655 S
C1528  C1636   1.532   .     S
C1528  C2354   1.403   1_545 S
C1530  C1252   1.407   1_655 S
C1531  H1559   1.082   .     S
C1531  C1533   1.417   .     A
C1531  N1562   1.351   .     A
C1532  H1560   1.080   .     S
C1532  C1534   1.421   .     A
C1532  N1561   1.354   .     A
C1533  N1561   1.395   .     A
C1533  C1643   1.514   .     S
C1534  N1562   1.395   .     A
C1534  C1650   1.519   .     S
C1535  O1569   1.304   .     A
C1535  C1537   1.482   .     S
C1535  O1291   1.305   1_655 S
C1536  O1570   1.300   .     A
C1536  C1538   1.478   .     S
C1537  C1543   1.406   .     A
C1537  C1541   1.413   .     A
C1538  C1542   1.405   .     A
C1538  C1544   1.402   .     A
C1539  C1547   1.404   .     A
C1539  C1541   1.413   .     A
C1539  H1555   1.077   .     S
C1540  H1556   1.083   .     S
C1540  C1542   1.400   .     A
C1540  C1548   1.408   .     A
C1541  O1328   1.402   1_655 S
C1543  C1545   1.409   .     A
C1543  H1554   1.077   .     S
C1544  C1546   1.409   .     A
C1544  H1553   1.075   .     S
C1545  C1547   1.413   .     A
C1545  C1549   1.430   .     A
C1546  C1550   1.430   .     A
C1546  C1548   1.418   .     A
C1547  C281    1.401   1_556 S
C1549  C308    1.424   1_556 S
Cu1551 O1563   1.961   .     S
Cu1551 O1570   1.916   .     S
Cu1551 N1561   2.027   .     S
Cu1551 O1566   1.971   .     S
Cu1551 O1567   1.939   .     S
Cu1552 O1569   1.916   .     S
Cu1552 O1564   1.961   .     S
Cu1552 O1568   1.939   .     S
Cu1552 N1562   2.027   .     S
Cu1552 O1565   1.971   .     S
Cu1552 Cu1275  2.698   1_655 S
O1564  C1244   1.299   1_655 S
O1568  C1260   1.308   1_655 S
O1571  C1572   1.418   .     S
C1572  H1574   1.114   .     S
C1572  H1573   1.110   .     S
C1572  C1575   1.538   .     S
C1575  C1578   1.526   .     S
H1576  C333    1.111   1_556 S
H1577  C333    1.111   1_556 S
C1578  H1581   1.110   .     S
C1578  H1579   1.111   .     S
H1580  C1164   1.110   1_546 S
O1582  C1583   1.415   .     S
C1583  H1585   1.119   .     S
C1583  C1586   1.527   .     S
C1583  H1584   1.112   .     S
C1586  H1587   1.110   .     S
C1586  H1588   1.112   .     S
C1586  C2417   1.524   1_545 S
C1589  H1591   1.111   .     S
C1589  H1592   1.109   .     S
C1589  H1590   1.110   .     S
C1589  C2000   1.524   .     S
O1593  C1594   1.415   .     S
O1593  C1266   1.383   1_655 S
C1594  C1597   1.526   .     S
C1594  H1596   1.119   .     S
C1594  H1595   1.111   .     S
C1597  H1599   1.112   .     S
C1597  C1600   1.526   .     S
C1597  H1598   1.112   .     S
C1600  H1602   1.109   .     S
C1600  H1603   1.111   .     S
C1600  H1601   1.109   .     S
O1604  C1605   1.413   .     S
C1605  H1606   1.106   .     S
C1605  H1607   1.113   .     S
C1605  C1608   1.526   .     S
C1608  H1610   1.111   .     S
C1608  C1611   1.528   .     S
C1608  H1609   1.111   .     S
C1611  H1612   1.108   .     S
C1611  H1613   1.109   .     S
C1611  H1614   1.108   .     S
C1615  C1616   1.526   .     S
C1615  H1620   1.102   .     S
C1615  H1621   1.106   .     S
C1616  H1617   1.111   .     S
C1616  H1618   1.109   .     S
C1616  H1619   1.110   .     S
C1622  H1627   1.107   .     S
C1622  C1623   1.539   .     S
C1622  H1628   1.106   .     S
C1623  H1625   1.106   .     S
C1623  H1626   1.107   .     S
C1623  H1624   1.112   .     S
C1629  C1630   1.536   .     S
C1629  H1634   1.107   .     S
C1629  H1635   1.109   .     S
C1630  H1632   1.110   .     S
C1630  H1631   1.112   .     S
C1630  H1633   1.107   .     S
C1636  C1637   1.532   .     S
C1636  H1642   1.108   .     S
C1636  H1641   1.112   .     S
C1637  H1639   1.104   .     S
C1637  H1640   1.110   .     S
C1637  H1638   1.105   .     S
C1643  H1648   1.111   .     S
C1643  H1649   1.087   .     S
C1643  C1644   1.531   .     S
C1644  H1645   1.110   .     S
C1644  H1647   1.110   .     S
C1644  H1646   1.108   .     S
C1650  H1656   1.110   .     S
C1650  C1651   1.521   .     S
C1650  H1655   1.082   .     S
C1651  H1654   1.109   .     S
C1651  H1652   1.108   .     S
C1651  H1653   1.107   .     S
C1657  C1668   1.444   .     S
C1657  O1703   1.291   .     A
C1657  O1839   1.296   .     S
C1658  C1667   1.466   .     S
C1658  O1704   1.299   .     A
C1658  O1978   1.299   1_455 S
C1659  H1695   1.076   .     S
C1659  C1661   1.393   .     A
C1659  C1688   1.414   .     A
C1660  H1696   1.078   .     S
C1660  C1662   1.394   .     A
C1660  C1687   1.413   .     A
C1661  O1709   1.387   .     S
C1662  O1720   1.383   .     S
C1662  C444    1.402   1_556 S
C1663  C1753   1.535   .     S
C1663  C1668   1.416   .     A
C1664  C1667   1.418   .     A
C1664  C1760   1.517   .     S
C1664  C2080   1.403   .     S
C1665  C1767   1.527   .     S
C1665  C2077   1.414   .     S
C1665  C1805   1.420   .     S
C1666  C1774   1.532   .     S
C1666  C1944   1.407   1_455 S
C1667  C1941   1.420   1_455 S
C1668  C1804   1.407   .     S
C1669  H1697   1.082   .     S
C1669  C1671   1.417   .     A
C1669  N1700   1.351   .     A
C1670  H1698   1.080   .     S
C1670  C1672   1.421   .     A
C1670  N1699   1.354   .     A
C1671  N1699   1.395   .     A
C1671  C1781   1.514   .     S
C1672  N1700   1.395   .     A
C1672  C1788   1.519   .     S
C1673  O1707   1.304   .     A
C1673  C1675   1.482   .     S
C1673  O1843   1.305   .     S
C1674  O1708   1.300   .     A
C1674  C1676   1.478   .     S
C1674  O1982   1.308   1_455 S
C1675  C1681   1.406   .     A
C1675  C1679   1.413   .     A
C1676  C1680   1.405   .     A
C1676  C1682   1.402   .     A
C1677  C1685   1.404   .     A
C1677  C1679   1.413   .     A
C1677  H1693   1.077   .     S
C1678  H1694   1.083   .     S
C1678  C1680   1.400   .     A
C1678  C1686   1.408   .     A
C1679  O1880   1.402   .     S
C1680  O2007   1.383   1_455 S
C1681  C1683   1.409   .     A
C1681  H1692   1.077   .     S
C1682  C1684   1.409   .     A
C1682  H1691   1.075   .     S
C1683  C1685   1.413   .     A
C1683  C1687   1.430   .     A
C1684  C1688   1.430   .     A
C1684  C1686   1.418   .     A
C1685  C419    1.401   1_556 S
C1687  C446    1.424   1_556 S
Cu1689 O1701   1.961   .     S
Cu1689 O1708   1.916   .     S
Cu1689 N1699   2.027   .     S
Cu1689 O1704   1.971   .     S
Cu1689 O1705   1.939   .     S
Cu1689 Cu1966  2.698   1_455 S
Cu1690 O1707   1.916   .     S
Cu1690 O1702   1.961   .     S
Cu1690 O1706   1.939   .     S
Cu1690 N1700   2.027   .     S
Cu1690 O1703   1.971   .     S
Cu1690 Cu1827  2.698   .     S
O1701  C1933   1.296   1_455 S
O1702  C1796   1.299   .     S
O1705  C1949   1.305   1_455 S
O1706  C1812   1.308   .     S
O1709  C1710   1.418   .     S
C1710  H1712   1.114   .     S
C1710  H1711   1.110   .     S
C1710  C1713   1.538   .     S
C1713  C1716   1.526   .     S
H1714  C471    1.111   1_556 S
H1715  C471    1.111   1_556 S
C1716  H1719   1.110   .     S
C1716  H1717   1.111   .     S
H1718  C60     1.110   1_556 S
O1720  C1721   1.415   .     S
C1721  H1723   1.119   .     S
C1721  C1724   1.527   .     S
C1721  H1722   1.112   .     S
C1724  H1725   1.110   .     S
C1724  H1726   1.112   .     S
C1727  H1729   1.111   .     S
C1727  H1730   1.109   .     S
C1727  H1728   1.110   .     S
C1727  C2138   1.524   .     S
O1731  C1732   1.415   .     S
O1731  C1818   1.383   .     S
C1732  C1735   1.526   .     S
C1732  H1734   1.119   .     S
C1732  H1733   1.111   .     S
C1735  H1737   1.112   .     S
C1735  C1738   1.526   .     S
C1735  H1736   1.112   .     S
C1738  H1740   1.109   .     S
C1738  H1741   1.111   .     S
C1738  H1739   1.109   .     S
O1742  C1743   1.413   .     S
O1742  C1955   1.402   1_455 S
C1743  H1744   1.106   .     S
C1743  H1745   1.113   .     S
C1743  C1746   1.526   .     S
C1746  H1748   1.111   .     S
C1746  C1749   1.528   .     S
C1746  H1747   1.111   .     S
C1749  H1750   1.108   .     S
C1749  H1751   1.109   .     S
C1749  H1752   1.108   .     S
C1753  C1754   1.526   .     S
C1753  H1758   1.102   .     S
C1753  H1759   1.106   .     S
C1754  H1755   1.111   .     S
C1754  H1756   1.109   .     S
C1754  H1757   1.110   .     S
C1760  H1765   1.107   .     S
C1760  C1761   1.539   .     S
C1760  H1766   1.106   .     S
C1761  H1763   1.106   .     S
C1761  H1764   1.107   .     S
C1761  H1762   1.112   .     S
C1767  C1768   1.536   .     S
C1767  H1772   1.107   .     S
C1767  H1773   1.109   .     S
C1768  H1770   1.110   .     S
C1768  H1769   1.112   .     S
C1768  H1771   1.107   .     S
C1774  C1775   1.532   .     S
C1774  H1780   1.108   .     S
C1774  H1779   1.112   .     S
C1775  H1777   1.104   .     S
C1775  H1778   1.110   .     S
C1775  H1776   1.105   .     S
C1781  H1786   1.111   .     S
C1781  H1787   1.087   .     S
C1781  C1782   1.531   .     S
C1782  H1783   1.110   .     S
C1782  H1785   1.110   .     S
C1782  H1784   1.108   .     S
C1788  H1794   1.110   .     S
C1788  C1789   1.521   .     S
C1788  H1793   1.082   .     S
C1789  H1792   1.109   .     S
C1789  H1790   1.108   .     S
C1789  H1791   1.107   .     S
C1795  C1806   1.444   .     S
C1795  O1841   1.291   .     A
C1795  O1977   1.296   .     S
C1796  C1805   1.466   .     S
C1796  O1842   1.299   .     A
C1797  H1833   1.076   .     S
C1797  C1799   1.393   .     A
C1797  C1826   1.414   .     A
C1798  H1834   1.078   .     S
C1798  C1800   1.394   .     A
C1798  C1825   1.413   .     A
C1799  O1847   1.387   .     S
C1800  O1858   1.383   .     S
C1800  C582    1.402   1_556 S
C1801  C1891   1.535   .     S
C1801  C1806   1.416   .     A
C1802  C1805   1.418   .     A
C1802  C1898   1.517   .     S
C1802  C2218   1.403   .     S
C1803  C1905   1.527   .     S
C1803  C2215   1.414   .     S
C1803  C1943   1.420   .     S
C1804  C1912   1.532   .     S
C1806  C1942   1.407   .     S
C1807  H1835   1.082   .     S
C1807  C1809   1.417   .     A
C1807  N1838   1.351   .     A
C1808  H1836   1.080   .     S
C1808  C1810   1.421   .     A
C1808  N1837   1.354   .     A
C1809  N1837   1.395   .     A
C1809  C1919   1.514   .     S
C1810  N1838   1.395   .     A
C1810  C1926   1.519   .     S
C1811  O1845   1.304   .     A
C1811  C1813   1.482   .     S
C1811  O1981   1.305   .     S
C1812  O1846   1.300   .     A
C1812  C1814   1.478   .     S
C1813  C1819   1.406   .     A
C1813  C1817   1.413   .     A
C1814  C1818   1.405   .     A
C1814  C1820   1.402   .     A
C1815  C1823   1.404   .     A
C1815  C1817   1.413   .     A
C1815  H1831   1.077   .     S
C1816  H1832   1.083   .     S
C1816  C1818   1.400   .     A
C1816  C1824   1.408   .     A
C1817  O2018   1.402   .     S
C1819  C1821   1.409   .     A
C1819  H1830   1.077   .     S
C1820  C1822   1.409   .     A
C1820  H1829   1.075   .     S
C1821  C1823   1.413   .     A
C1821  C1825   1.430   .     A
C1822  C1826   1.430   .     A
C1822  C1824   1.418   .     A
C1823  C557    1.401   1_556 S
C1825  C584    1.424   1_556 S
Cu1827 O1839   1.961   .     S
Cu1827 O1846   1.916   .     S
Cu1827 N1837   2.027   .     S
Cu1827 O1842   1.971   .     S
Cu1827 O1843   1.939   .     S
Cu1828 O1845   1.916   .     S
Cu1828 O1840   1.961   .     S
Cu1828 O1844   1.939   .     S
Cu1828 N1838   2.027   .     S
Cu1828 O1841   1.971   .     S
Cu1828 Cu1965  2.698   .     S
O1840  C1934   1.299   .     S
O1844  C1950   1.308   .     S
O1847  C1848   1.418   .     S
C1848  H1850   1.114   .     S
C1848  H1849   1.110   .     S
C1848  C1851   1.538   .     S
C1851  C1854   1.526   .     S
H1852  C609    1.111   1_556 S
H1853  C609    1.111   1_556 S
C1854  H1857   1.110   .     S
C1854  H1855   1.111   .     S
H1856  C198    1.110   1_556 S
O1858  C1859   1.415   .     S
C1859  H1861   1.119   .     S
C1859  C1862   1.527   .     S
C1859  H1860   1.112   .     S
C1862  H1863   1.110   .     S
C1862  H1864   1.112   .     S
C1865  H1867   1.111   .     S
C1865  H1868   1.109   .     S
C1865  H1866   1.110   .     S
C1865  C2276   1.524   .     S
O1869  C1870   1.415   .     S
O1869  C1956   1.383   .     S
C1870  C1873   1.526   .     S
C1870  H1872   1.119   .     S
C1870  H1871   1.111   .     S
C1873  H1875   1.112   .     S
C1873  C1876   1.526   .     S
C1873  H1874   1.112   .     S
C1876  H1878   1.109   .     S
C1876  H1879   1.111   .     S
C1876  H1877   1.109   .     S
O1880  C1881   1.413   .     S
C1881  H1882   1.106   .     S
C1881  H1883   1.113   .     S
C1881  C1884   1.526   .     S
C1884  H1886   1.111   .     S
C1884  C1887   1.528   .     S
C1884  H1885   1.111   .     S
C1887  H1888   1.108   .     S
C1887  H1889   1.109   .     S
C1887  H1890   1.108   .     S
C1891  C1892   1.526   .     S
C1891  H1896   1.102   .     S
C1891  H1897   1.106   .     S
C1892  H1893   1.111   .     S
C1892  H1894   1.109   .     S
C1892  H1895   1.110   .     S
C1898  H1903   1.107   .     S
C1898  C1899   1.539   .     S
C1898  H1904   1.106   .     S
C1899  H1901   1.106   .     S
C1899  H1902   1.107   .     S
C1899  H1900   1.112   .     S
C1905  C1906   1.536   .     S
C1905  H1910   1.107   .     S
C1905  H1911   1.109   .     S
C1906  H1908   1.110   .     S
C1906  H1907   1.112   .     S
C1906  H1909   1.107   .     S
C1912  C1913   1.532   .     S
C1912  H1918   1.108   .     S
C1912  H1917   1.112   .     S
C1913  H1915   1.104   .     S
C1913  H1916   1.110   .     S
C1913  H1914   1.105   .     S
C1919  H1924   1.111   .     S
C1919  H1925   1.087   .     S
C1919  C1920   1.531   .     S
C1920  H1921   1.110   .     S
C1920  H1923   1.110   .     S
C1920  H1922   1.108   .     S
C1926  H1932   1.110   .     S
C1926  C1927   1.521   .     S
C1926  H1931   1.082   .     S
C1927  H1930   1.109   .     S
C1927  H1928   1.108   .     S
C1927  H1929   1.107   .     S
C1933  C1944   1.444   .     S
C1933  O1979   1.291   .     A
C1933  O1701   1.296   1_655 S
C1934  C1943   1.466   .     S
C1934  O1980   1.299   .     A
C1935  H1971   1.076   .     S
C1935  C1937   1.393   .     A
C1935  C1964   1.414   .     A
C1936  H1972   1.078   .     S
C1936  C1938   1.394   .     A
C1936  C1963   1.413   .     A
C1937  O1985   1.387   .     S
C1938  O1996   1.383   .     S
C1938  C720    1.402   1_556 S
C1939  C2029   1.535   .     S
C1939  C1944   1.416   .     A
C1940  C1943   1.418   .     A
C1940  C2036   1.517   .     S
C1940  C2356   1.403   .     S
C1941  C2043   1.527   .     S
C1941  C2353   1.414   .     S
C1941  C1667   1.420   1_655 S
C1942  C2050   1.532   .     S
C1944  C1666   1.407   1_655 S
C1945  H1973   1.082   .     S
C1945  C1947   1.417   .     A
C1945  N1976   1.351   .     A
C1946  H1974   1.080   .     S
C1946  C1948   1.421   .     A
C1946  N1975   1.354   .     A
C1947  N1975   1.395   .     A
C1947  C2057   1.514   .     S
C1948  N1976   1.395   .     A
C1948  C2064   1.519   .     S
C1949  O1983   1.304   .     A
C1949  C1951   1.482   .     S
C1949  O1705   1.305   1_655 S
C1950  O1984   1.300   .     A
C1950  C1952   1.478   .     S
C1951  C1957   1.406   .     A
C1951  C1955   1.413   .     A
C1952  C1956   1.405   .     A
C1952  C1958   1.402   .     A
C1953  C1961   1.404   .     A
C1953  C1955   1.413   .     A
C1953  H1969   1.077   .     S
C1954  H1970   1.083   .     S
C1954  C1956   1.400   .     A
C1954  C1962   1.408   .     A
C1955  O1742   1.402   1_655 S
C1957  C1959   1.409   .     A
C1957  H1968   1.077   .     S
C1958  C1960   1.409   .     A
C1958  H1967   1.075   .     S
C1959  C1961   1.413   .     A
C1959  C1963   1.430   .     A
C1960  C1964   1.430   .     A
C1960  C1962   1.418   .     A
C1961  C695    1.401   1_556 S
C1963  C722    1.424   1_556 S
Cu1965 O1977   1.961   .     S
Cu1965 O1984   1.916   .     S
Cu1965 N1975   2.027   .     S
Cu1965 O1980   1.971   .     S
Cu1965 O1981   1.939   .     S
Cu1966 O1983   1.916   .     S
Cu1966 O1978   1.961   .     S
Cu1966 O1982   1.939   .     S
Cu1966 N1976   2.027   .     S
Cu1966 O1979   1.971   .     S
Cu1966 Cu1689  2.698   1_655 S
O1978  C1658   1.299   1_655 S
O1982  C1674   1.308   1_655 S
O1985  C1986   1.418   .     S
C1986  H1988   1.114   .     S
C1986  H1987   1.110   .     S
C1986  C1989   1.538   .     S
C1989  C1992   1.526   .     S
H1990  C747    1.111   1_556 S
H1991  C747    1.111   1_556 S
C1992  H1995   1.110   .     S
C1992  H1993   1.111   .     S
H1994  C336    1.110   1_556 S
O1996  C1997   1.415   .     S
C1997  H1999   1.119   .     S
C1997  C2000   1.527   .     S
C1997  H1998   1.112   .     S
C2000  H2001   1.110   .     S
C2000  H2002   1.112   .     S
C2003  H2005   1.111   .     S
C2003  H2006   1.109   .     S
C2003  H2004   1.110   .     S
C2003  C2414   1.524   .     S
O2007  C2008   1.415   .     S
O2007  C1680   1.383   1_655 S
C2008  C2011   1.526   .     S
C2008  H2010   1.119   .     S
C2008  H2009   1.111   .     S
C2011  H2013   1.112   .     S
C2011  C2014   1.526   .     S
C2011  H2012   1.112   .     S
C2014  H2016   1.109   .     S
C2014  H2017   1.111   .     S
C2014  H2015   1.109   .     S
O2018  C2019   1.413   .     S
C2019  H2020   1.106   .     S
C2019  H2021   1.113   .     S
C2019  C2022   1.526   .     S
C2022  H2024   1.111   .     S
C2022  C2025   1.528   .     S
C2022  H2023   1.111   .     S
C2025  H2026   1.108   .     S
C2025  H2027   1.109   .     S
C2025  H2028   1.108   .     S
C2029  C2030   1.526   .     S
C2029  H2034   1.102   .     S
C2029  H2035   1.106   .     S
C2030  H2031   1.111   .     S
C2030  H2032   1.109   .     S
C2030  H2033   1.110   .     S
C2036  H2041   1.107   .     S
C2036  C2037   1.539   .     S
C2036  H2042   1.106   .     S
C2037  H2039   1.106   .     S
C2037  H2040   1.107   .     S
C2037  H2038   1.112   .     S
C2043  C2044   1.536   .     S
C2043  H2048   1.107   .     S
C2043  H2049   1.109   .     S
C2044  H2046   1.110   .     S
C2044  H2045   1.112   .     S
C2044  H2047   1.107   .     S
C2050  C2051   1.532   .     S
C2050  H2056   1.108   .     S
C2050  H2055   1.112   .     S
C2051  H2053   1.104   .     S
C2051  H2054   1.110   .     S
C2051  H2052   1.105   .     S
C2057  H2062   1.111   .     S
C2057  H2063   1.087   .     S
C2057  C2058   1.531   .     S
C2058  H2059   1.110   .     S
C2058  H2061   1.110   .     S
C2058  H2060   1.108   .     S
C2064  H2070   1.110   .     S
C2064  C2065   1.521   .     S
C2064  H2069   1.082   .     S
C2065  H2068   1.109   .     S
C2065  H2066   1.108   .     S
C2065  H2067   1.107   .     S
C2071  C2082   1.444   .     S
C2071  O2117   1.291   .     A
C2071  O2253   1.296   .     S
C2072  C2081   1.466   .     S
C2072  O2118   1.299   .     A
C2072  O2392   1.299   1_455 S
C2073  H2109   1.076   .     S
C2073  C2075   1.393   .     A
C2073  C2102   1.414   .     A
C2074  H2110   1.078   .     S
C2074  C2076   1.394   .     A
C2074  C2101   1.413   .     A
C2075  O2123   1.387   .     S
C2076  O2134   1.383   .     S
C2076  C858    1.402   1_556 S
C2077  C2167   1.535   .     S
C2077  C2082   1.416   .     A
C2078  C2081   1.418   .     A
C2078  C2174   1.517   .     S
C2078  C1252   1.403   1_565 S
C2079  C2181   1.527   .     S
C2079  C1249   1.414   1_565 S
C2079  C2219   1.420   .     S
C2080  C2188   1.532   .     S
C2080  C2358   1.407   1_455 S
C2081  C2355   1.420   1_455 S
C2082  C2218   1.407   .     S
C2083  H2111   1.082   .     S
C2083  C2085   1.417   .     A
C2083  N2114   1.351   .     A
C2084  H2112   1.080   .     S
C2084  C2086   1.421   .     A
C2084  N2113   1.354   .     A
C2085  N2113   1.395   .     A
C2085  C2195   1.514   .     S
C2086  N2114   1.395   .     A
C2086  C2202   1.519   .     S
C2087  O2121   1.304   .     A
C2087  C2089   1.482   .     S
C2087  O2257   1.305   .     S
C2088  O2122   1.300   .     A
C2088  C2090   1.478   .     S
C2088  O2396   1.308   1_455 S
C2089  C2095   1.406   .     A
C2089  C2093   1.413   .     A
C2090  C2094   1.405   .     A
C2090  C2096   1.402   .     A
C2091  C2099   1.404   .     A
C2091  C2093   1.413   .     A
C2091  H2107   1.077   .     S
C2092  H2108   1.083   .     S
C2092  C2094   1.400   .     A
C2092  C2100   1.408   .     A
C2093  O2294   1.402   .     S
C2094  O2421   1.383   1_455 S
C2095  C2097   1.409   .     A
C2095  H2106   1.077   .     S
C2096  C2098   1.409   .     A
C2096  H2105   1.075   .     S
C2097  C2099   1.413   .     A
C2097  C2101   1.430   .     A
C2098  C2102   1.430   .     A
C2098  C2100   1.418   .     A
C2099  C833    1.401   1_556 S
C2101  C860    1.424   1_556 S
Cu2103 O2115   1.961   .     S
Cu2103 O2122   1.916   .     S
Cu2103 N2113   2.027   .     S
Cu2103 O2118   1.971   .     S
Cu2103 O2119   1.939   .     S
Cu2103 Cu2380  2.698   1_455 S
Cu2104 O2121   1.916   .     S
Cu2104 O2116   1.961   .     S
Cu2104 O2120   1.939   .     S
Cu2104 N2114   2.027   .     S
Cu2104 O2117   1.971   .     S
Cu2104 Cu2241  2.698   .     S
O2115  C2347   1.296   1_455 S
O2116  C2210   1.299   .     S
O2119  C2363   1.305   1_455 S
O2120  C2226   1.308   .     S
O2123  C2124   1.418   .     S
C2124  H2126   1.114   .     S
C2124  H2125   1.110   .     S
C2124  C2127   1.538   .     S
C2127  C2130   1.526   .     S
H2128  C885    1.111   1_556 S
H2129  C885    1.111   1_556 S
C2130  H2133   1.110   .     S
C2130  H2131   1.111   .     S
C2130  H62     1.110   1_565 S
H2132  C474    1.110   1_556 S
O2134  C2135   1.415   .     S
C2135  H2137   1.119   .     S
C2135  C2138   1.527   .     S
C2135  H2136   1.112   .     S
C2138  H2139   1.110   .     S
C2138  H2140   1.112   .     S
C2141  H2143   1.111   .     S
C2141  H2144   1.109   .     S
C2141  H2142   1.110   .     S
C2141  C1310   1.524   1_565 S
O2145  C2146   1.415   .     S
O2145  C2232   1.383   .     S
C2146  C2149   1.526   .     S
C2146  H2148   1.119   .     S
C2146  H2147   1.111   .     S
C2149  H2151   1.112   .     S
C2149  C2152   1.526   .     S
C2149  H2150   1.112   .     S
C2152  H2154   1.109   .     S
C2152  H2155   1.111   .     S
C2152  H2153   1.109   .     S
O2156  C2157   1.413   .     S
O2156  C2369   1.402   1_455 S
C2157  H2158   1.106   .     S
C2157  H2159   1.113   .     S
C2157  C2160   1.526   .     S
C2160  H2162   1.111   .     S
C2160  C2163   1.528   .     S
C2160  H2161   1.111   .     S
C2163  H2164   1.108   .     S
C2163  H2165   1.109   .     S
C2163  H2166   1.108   .     S
C2167  C2168   1.526   .     S
C2167  H2172   1.102   .     S
C2167  H2173   1.106   .     S
C2168  H2169   1.111   .     S
C2168  H2170   1.109   .     S
C2168  H2171   1.110   .     S
C2174  H2179   1.107   .     S
C2174  C2175   1.539   .     S
C2174  H2180   1.106   .     S
C2175  H2177   1.106   .     S
C2175  H2178   1.107   .     S
C2175  H2176   1.112   .     S
C2181  C2182   1.536   .     S
C2181  H2186   1.107   .     S
C2181  H2187   1.109   .     S
C2182  H2184   1.110   .     S
C2182  H2183   1.112   .     S
C2182  H2185   1.107   .     S
C2188  C2189   1.532   .     S
C2188  H2194   1.108   .     S
C2188  H2193   1.112   .     S
C2189  H2191   1.104   .     S
C2189  H2192   1.110   .     S
C2189  H2190   1.105   .     S
C2195  H2200   1.111   .     S
C2195  H2201   1.087   .     S
C2195  C2196   1.531   .     S
C2196  H2197   1.110   .     S
C2196  H2199   1.110   .     S
C2196  H2198   1.108   .     S
C2202  H2208   1.110   .     S
C2202  C2203   1.521   .     S
C2202  H2207   1.082   .     S
C2203  H2206   1.109   .     S
C2203  H2204   1.108   .     S
C2203  H2205   1.107   .     S
C2209  C2220   1.444   .     S
C2209  O2255   1.291   .     A
C2209  O2391   1.296   .     S
C2210  C2219   1.466   .     S
C2210  O2256   1.299   .     A
C2211  H2247   1.076   .     S
C2211  C2213   1.393   .     A
C2211  C2240   1.414   .     A
C2212  H2248   1.078   .     S
C2212  C2214   1.394   .     A
C2212  C2239   1.413   .     A
C2213  O2261   1.387   .     S
C2214  O2272   1.383   .     S
C2214  C996    1.402   1_556 S
C2215  C2305   1.535   .     S
C2215  C2220   1.416   .     A
C2216  C2219   1.418   .     A
C2216  C2312   1.517   .     S
C2216  C1390   1.403   1_565 S
C2217  C2319   1.527   .     S
C2217  C1387   1.414   1_565 S
C2217  C2357   1.420   .     S
C2218  C2326   1.532   .     S
C2220  C2356   1.407   .     S
C2221  H2249   1.082   .     S
C2221  C2223   1.417   .     A
C2221  N2252   1.351   .     A
C2222  H2250   1.080   .     S
C2222  C2224   1.421   .     A
C2222  N2251   1.354   .     A
C2223  N2251   1.395   .     A
C2223  C2333   1.514   .     S
C2224  N2252   1.395   .     A
C2224  C2340   1.519   .     S
C2225  O2259   1.304   .     A
C2225  C2227   1.482   .     S
C2225  O2395   1.305   .     S
C2226  O2260   1.300   .     A
C2226  C2228   1.478   .     S
C2227  C2233   1.406   .     A
C2227  C2231   1.413   .     A
C2228  C2232   1.405   .     A
C2228  C2234   1.402   .     A
C2229  C2237   1.404   .     A
C2229  C2231   1.413   .     A
C2229  H2245   1.077   .     S
C2230  H2246   1.083   .     S
C2230  C2232   1.400   .     A
C2230  C2238   1.408   .     A
C2231  O2432   1.402   .     S
C2233  C2235   1.409   .     A
C2233  H2244   1.077   .     S
C2234  C2236   1.409   .     A
C2234  H2243   1.075   .     S
C2235  C2237   1.413   .     A
C2235  C2239   1.430   .     A
C2236  C2240   1.430   .     A
C2236  C2238   1.418   .     A
C2237  C971    1.401   1_556 S
C2239  C998    1.424   1_556 S
Cu2241 O2253   1.961   .     S
Cu2241 O2260   1.916   .     S
Cu2241 N2251   2.027   .     S
Cu2241 O2256   1.971   .     S
Cu2241 O2257   1.939   .     S
Cu2242 O2259   1.916   .     S
Cu2242 O2254   1.961   .     S
Cu2242 O2258   1.939   .     S
Cu2242 N2252   2.027   .     S
Cu2242 O2255   1.971   .     S
Cu2242 Cu2379  2.698   .     S
O2254  C2348   1.299   .     S
O2258  C2364   1.308   .     S
O2261  C2262   1.418   .     S
C2262  H2264   1.114   .     S
C2262  H2263   1.110   .     S
C2262  C2265   1.538   .     S
C2265  C2268   1.526   .     S
H2266  C1023   1.111   1_556 S
H2267  C1023   1.111   1_556 S
C2268  H2271   1.110   .     S
C2268  H2269   1.111   .     S
C2268  H200    1.110   1_565 S
H2270  C612    1.110   1_556 S
O2272  C2273   1.415   .     S
C2273  H2275   1.119   .     S
C2273  C2276   1.527   .     S
C2273  H2274   1.112   .     S
C2276  H2277   1.110   .     S
C2276  H2278   1.112   .     S
C2279  H2281   1.111   .     S
C2279  H2282   1.109   .     S
C2279  H2280   1.110   .     S
C2279  C1448   1.524   1_565 S
O2283  C2284   1.415   .     S
O2283  C2370   1.383   .     S
C2284  C2287   1.526   .     S
C2284  H2286   1.119   .     S
C2284  H2285   1.111   .     S
C2287  H2289   1.112   .     S
C2287  C2290   1.526   .     S
C2287  H2288   1.112   .     S
C2290  H2292   1.109   .     S
C2290  H2293   1.111   .     S
C2290  H2291   1.109   .     S
O2294  C2295   1.413   .     S
C2295  H2296   1.106   .     S
C2295  H2297   1.113   .     S
C2295  C2298   1.526   .     S
C2298  H2300   1.111   .     S
C2298  C2301   1.528   .     S
C2298  H2299   1.111   .     S
C2301  H2302   1.108   .     S
C2301  H2303   1.109   .     S
C2301  H2304   1.108   .     S
C2305  C2306   1.526   .     S
C2305  H2310   1.102   .     S
C2305  H2311   1.106   .     S
C2306  H2307   1.111   .     S
C2306  H2308   1.109   .     S
C2306  H2309   1.110   .     S
C2312  H2317   1.107   .     S
C2312  C2313   1.539   .     S
C2312  H2318   1.106   .     S
C2313  H2315   1.106   .     S
C2313  H2316   1.107   .     S
C2313  H2314   1.112   .     S
C2319  C2320   1.536   .     S
C2319  H2324   1.107   .     S
C2319  H2325   1.109   .     S
C2320  H2322   1.110   .     S
C2320  H2321   1.112   .     S
C2320  H2323   1.107   .     S
C2326  C2327   1.532   .     S
C2326  H2332   1.108   .     S
C2326  H2331   1.112   .     S
C2327  H2329   1.104   .     S
C2327  H2330   1.110   .     S
C2327  H2328   1.105   .     S
C2333  H2338   1.111   .     S
C2333  H2339   1.087   .     S
C2333  C2334   1.531   .     S
C2334  H2335   1.110   .     S
C2334  H2337   1.110   .     S
C2334  H2336   1.108   .     S
C2340  H2346   1.110   .     S
C2340  C2341   1.521   .     S
C2340  H2345   1.082   .     S
C2341  H2344   1.109   .     S
C2341  H2342   1.108   .     S
C2341  H2343   1.107   .     S
C2347  C2358   1.444   .     S
C2347  O2393   1.291   .     A
C2347  O2115   1.296   1_655 S
C2348  C2357   1.466   .     S
C2348  O2394   1.299   .     A
C2349  H2385   1.076   .     S
C2349  C2351   1.393   .     A
C2349  C2378   1.414   .     A
C2350  H2386   1.078   .     S
C2350  C2352   1.394   .     A
C2350  C2377   1.413   .     A
C2351  O2399   1.387   .     S
C2352  O2410   1.383   .     S
C2352  C1134   1.402   1_556 S
C2353  C2443   1.535   .     S
C2353  C2358   1.416   .     A
C2354  C2357   1.418   .     A
C2354  C2450   1.517   .     S
C2354  C1528   1.403   1_565 S
C2355  C2457   1.527   .     S
C2355  C1525   1.414   1_565 S
C2355  C2081   1.420   1_655 S
C2356  C2464   1.532   .     S
C2358  C2080   1.407   1_655 S
C2359  H2387   1.082   .     S
C2359  C2361   1.417   .     A
C2359  N2390   1.351   .     A
C2360  H2388   1.080   .     S
C2360  C2362   1.421   .     A
C2360  N2389   1.354   .     A
C2361  N2389   1.395   .     A
C2361  C2471   1.514   .     S
C2362  N2390   1.395   .     A
C2362  C2478   1.519   .     S
C2363  O2397   1.304   .     A
C2363  C2365   1.482   .     S
C2363  O2119   1.305   1_655 S
C2364  O2398   1.300   .     A
C2364  C2366   1.478   .     S
C2365  C2371   1.406   .     A
C2365  C2369   1.413   .     A
C2366  C2370   1.405   .     A
C2366  C2372   1.402   .     A
C2367  C2375   1.404   .     A
C2367  C2369   1.413   .     A
C2367  H2383   1.077   .     S
C2368  H2384   1.083   .     S
C2368  C2370   1.400   .     A
C2368  C2376   1.408   .     A
C2369  O2156   1.402   1_655 S
C2371  C2373   1.409   .     A
C2371  H2382   1.077   .     S
C2372  C2374   1.409   .     A
C2372  H2381   1.075   .     S
C2373  C2375   1.413   .     A
C2373  C2377   1.430   .     A
C2374  C2378   1.430   .     A
C2374  C2376   1.418   .     A
C2375  C1109   1.401   1_556 S
C2377  C1136   1.424   1_556 S
Cu2379 O2391   1.961   .     S
Cu2379 O2398   1.916   .     S
Cu2379 N2389   2.027   .     S
Cu2379 O2394   1.971   .     S
Cu2379 O2395   1.939   .     S
Cu2380 O2397   1.916   .     S
Cu2380 O2392   1.961   .     S
Cu2380 O2396   1.939   .     S
Cu2380 N2390   2.027   .     S
Cu2380 O2393   1.971   .     S
Cu2380 Cu2103  2.698   1_655 S
O2392  C2072   1.299   1_655 S
O2396  C2088   1.308   1_655 S
O2399  C2400   1.418   .     S
C2400  H2402   1.114   .     S
C2400  H2401   1.110   .     S
C2400  C2403   1.538   .     S
C2403  C2406   1.526   .     S
H2404  C1161   1.111   1_556 S
H2405  C1161   1.111   1_556 S
C2406  H2409   1.110   .     S
C2406  H2407   1.111   .     S
C2406  H338    1.110   1_565 S
H2408  C750    1.110   1_556 S
O2410  C2411   1.415   .     S
C2411  H2413   1.119   .     S
C2411  C2414   1.527   .     S
C2411  H2412   1.112   .     S
C2414  H2415   1.110   .     S
C2414  H2416   1.112   .     S
C2417  H2419   1.111   .     S
C2417  H2420   1.109   .     S
C2417  H2418   1.110   .     S
C2417  C1586   1.524   1_565 S
O2421  C2422   1.415   .     S
O2421  C2094   1.383   1_655 S
C2422  C2425   1.526   .     S
C2422  H2424   1.119   .     S
C2422  H2423   1.111   .     S
C2425  H2427   1.112   .     S
C2425  C2428   1.526   .     S
C2425  H2426   1.112   .     S
C2428  H2430   1.109   .     S
C2428  H2431   1.111   .     S
C2428  H2429   1.109   .     S
O2432  C2433   1.413   .     S
C2433  H2434   1.106   .     S
C2433  H2435   1.113   .     S
C2433  C2436   1.526   .     S
C2436  H2438   1.111   .     S
C2436  C2439   1.528   .     S
C2436  H2437   1.111   .     S
C2439  H2440   1.108   .     S
C2439  H2441   1.109   .     S
C2439  H2442   1.108   .     S
C2443  C2444   1.526   .     S
C2443  H2448   1.102   .     S
C2443  H2449   1.106   .     S
C2444  H2445   1.111   .     S
C2444  H2446   1.109   .     S
C2444  H2447   1.110   .     S
C2450  H2455   1.107   .     S
C2450  C2451   1.539   .     S
C2450  H2456   1.106   .     S
C2451  H2453   1.106   .     S
C2451  H2454   1.107   .     S
C2451  H2452   1.112   .     S
C2457  C2458   1.536   .     S
C2457  H2462   1.107   .     S
C2457  H2463   1.109   .     S
C2458  H2460   1.110   .     S
C2458  H2459   1.112   .     S
C2458  H2461   1.107   .     S
C2464  C2465   1.532   .     S
C2464  H2470   1.108   .     S
C2464  H2469   1.112   .     S
C2465  H2467   1.104   .     S
C2465  H2468   1.110   .     S
C2465  H2466   1.105   .     S
C2471  H2476   1.111   .     S
C2471  H2477   1.087   .     S
C2471  C2472   1.531   .     S
C2472  H2473   1.110   .     S
C2472  H2475   1.110   .     S
C2472  H2474   1.108   .     S
C2478  H2484   1.110   .     S
C2478  C2479   1.521   .     S
C2478  H2483   1.082   .     S
C2479  H2482   1.109   .     S
C2479  H2480   1.108   .     S
C2479  H2481   1.107   .     S
