data_str_m2_o1_o18_pcu_sym.128
_audit_creation_date              2020-01-03
_audit_creation_method            'Materials Studio'
_symmetry_space_group_name_H-M    'P1'
_symmetry_Int_Tables_number       1
_symmetry_cell_setting            triclinic
loop_
_symmetry_equiv_pos_as_xyz
  x,y,z
_cell_length_a                    28.7484
_cell_length_b                    32.4313
_cell_length_c                    31.0931
_cell_angle_alpha                 88.7432
_cell_angle_beta                  73.3860
_cell_angle_gamma                 90.8822
loop_
_atom_site_label
_atom_site_type_symbol
_atom_site_fract_x
_atom_site_fract_y
_atom_site_fract_z
_atom_site_U_iso_or_equiv
_atom_site_adp_type
_atom_site_occupancy
O1     O     0.03958   0.10655   0.25000   0.00000  Uiso   1.00
O2     O     0.29375   0.22678   0.25000   0.00000  Uiso   1.00
O3     O     0.29372   0.10654   0.25001   0.00000  Uiso   1.00
O4     O     0.03961   0.22679   0.25000   0.00000  Uiso   1.00
C5     C     0.33308   0.08743   0.25010   0.00000  Uiso   1.00
C6     C     0.00027   0.24590   0.24986   0.00000  Uiso   1.00
O7     O     0.01852   0.16668   0.31492   0.00000  Uiso   1.00
O8     O     0.31481   0.16666   0.18509   0.00000  Uiso   1.00
O9     O     0.27267   0.16667   0.31492   0.00000  Uiso   1.00
O10    O     0.06067   0.16667   0.18508   0.00000  Uiso   1.00
C11    C     0.30575   0.16626   0.33606   0.00000  Uiso   1.00
C12    C     0.02778   0.16825   0.16387   0.00000  Uiso   1.00
Cu13   Cu    0.04689   0.16667   0.25000   0.00000  Uiso   1.00
Cu14   Cu    0.28645   0.16666   0.25000   0.00000  Uiso   1.00
C15    C     0.29054   0.16732   0.38526   0.00000  Uiso   1.00
C16    C     0.04441   0.17676   0.11502   0.00000  Uiso   1.00
C17    C     0.30922   0.16297   0.45619   0.00000  Uiso   1.00
C18    C     0.03101   0.20572   0.04722   0.00000  Uiso   1.00
C19    C     0.32414   0.16144   0.40962   0.00000  Uiso   1.00
C20    C     0.01301   0.19289   0.09214   0.00000  Uiso   1.00
C21    C     0.24215   0.17538   0.40798   0.00000  Uiso   1.00
C22    C     0.09394   0.17375   0.09234   0.00000  Uiso   1.00
C23    C     0.22750   0.18151   0.45448   0.00000  Uiso   1.00
C24    C     0.11335   0.18908   0.04798   0.00000  Uiso   1.00
C25    C     0.26114   0.17248   0.47877   0.00000  Uiso   1.00
C26    C     0.08069   0.20318   0.02478   0.00000  Uiso   1.00
C27    C     0.17963   0.19380   0.47784   0.00000  Uiso   1.00
C28    C     0.16398   0.18858   0.02541   0.00000  Uiso   1.00
C29    C     0.19970   0.18377   0.04862   0.00000  Uiso   1.00
C30    C     0.14700   0.21190   0.45612   0.00000  Uiso   1.00
C31    C     0.24703   0.17425   0.02525   0.00000  Uiso   1.00
C32    C     0.09801   0.21558   0.47977   0.00000  Uiso   1.00
H33    H     0.27340   0.16968   0.04364   0.00000  Uiso   1.00
H34    H     0.07335   0.22900   0.46297   0.00000  Uiso   1.00
H35    H     0.11689   0.15866   0.10962   0.00000  Uiso   1.00
H36    H     0.21608   0.17617   0.38902   0.00000  Uiso   1.00
H37    H     0.30817   0.19645   0.10918   0.00000  Uiso   1.00
H38    H     0.02835   0.15488   0.39281   0.00000  Uiso   1.00
H39    H     0.00209   0.15709   0.47455   0.00000  Uiso   1.00
H40    H     0.00625   0.21830   0.03010   0.00000  Uiso   1.00
C41    C     0.29781   0.02108   0.23606   0.00000  Uiso   1.00
C42    C     0.03572   0.31224   0.26363   0.00000  Uiso   1.00
H43    H     0.27064   0.03704   0.22451   0.00000  Uiso   1.00
H44    H     0.06299   0.29627   0.27504   0.00000  Uiso   1.00
C45    C     0.29809   0.31174   0.23594   0.00000  Uiso   1.00
C46    C     0.03539   0.02158   0.26382   0.00000  Uiso   1.00
H47    H     0.27075   0.29540   0.22469   0.00000  Uiso   1.00
H48    H     0.06274   0.03792   0.27506   0.00000  Uiso   1.00
C49    C     0.00044   0.29055   0.24967   0.00000  Uiso   1.00
C50    C     0.33299   0.04278   0.25015   0.00000  Uiso   1.00
C51    C     0.18401   0.13477   0.27002   0.00000  Uiso   1.00
C52    C     0.14917   0.19914   0.23097   0.00000  Uiso   1.00
C53    C     0.13491   0.13486   0.26935   0.00000  Uiso   1.00
C54    C     0.19849   0.19849   0.23078   0.00000  Uiso   1.00
H55    H     0.11064   0.10966   0.28543   0.00000  Uiso   1.00
H56    H     0.22283   0.22373   0.21494   0.00000  Uiso   1.00
N57    N     0.11736   0.16668   0.24999   0.00000  Uiso   1.00
N58    N     0.21597   0.16666   0.25001   0.00000  Uiso   1.00
N59    N     0.19170   0.19773   0.09338   0.00000  Uiso   1.00
O60    O     0.18116   0.23621   0.10112   0.00000  Uiso   1.00
O61    O     0.20707   0.17625   0.12223   0.00000  Uiso   1.00
N62    N     0.16369   0.23219   0.41272   0.00000  Uiso   1.00
O63    O     0.20160   0.25687   0.40342   0.00000  Uiso   1.00
O64    O     0.13727   0.23087   0.38502   0.00000  Uiso   1.00
N65    N     0.19899   0.10085   0.29261   0.00000  Uiso   1.00
O66    O     0.19005   0.06347   0.28231   0.00000  Uiso   1.00
O67    O     0.20733   0.10658   0.33099   0.00000  Uiso   1.00
N68    N     0.13360   0.23514   0.21195   0.00000  Uiso   1.00
O69    O     0.14848   0.27141   0.22024   0.00000  Uiso   1.00
O70    O     0.11418   0.23190   0.17925   0.00000  Uiso   1.00
O71    O     0.37291   0.10655   0.25000   0.00000  Uiso   1.00
O72    O     0.62709   0.22678   0.25000   0.00000  Uiso   1.00
O73    O     0.62706   0.10654   0.25001   0.00000  Uiso   1.00
O74    O     0.37294   0.22679   0.25000   0.00000  Uiso   1.00
C75    C     0.66641   0.08743   0.25010   0.00000  Uiso   1.00
C76    C     0.33360   0.24590   0.24986   0.00000  Uiso   1.00
O77    O     0.35186   0.16668   0.31492   0.00000  Uiso   1.00
O78    O     0.64814   0.16666   0.18509   0.00000  Uiso   1.00
O79    O     0.60600   0.16667   0.31492   0.00000  Uiso   1.00
O80    O     0.39400   0.16667   0.18508   0.00000  Uiso   1.00
C81    C     0.63908   0.16626   0.33606   0.00000  Uiso   1.00
C82    C     0.36111   0.16825   0.16387   0.00000  Uiso   1.00
Cu83   Cu    0.38022   0.16667   0.25000   0.00000  Uiso   1.00
Cu84   Cu    0.61978   0.16666   0.25000   0.00000  Uiso   1.00
C85    C     0.62387   0.16732   0.38526   0.00000  Uiso   1.00
C86    C     0.37774   0.17676   0.11502   0.00000  Uiso   1.00
C87    C     0.64255   0.16297   0.45619   0.00000  Uiso   1.00
C88    C     0.36435   0.20572   0.04722   0.00000  Uiso   1.00
C89    C     0.65747   0.16144   0.40962   0.00000  Uiso   1.00
C90    C     0.34634   0.19289   0.09214   0.00000  Uiso   1.00
C91    C     0.57548   0.17538   0.40798   0.00000  Uiso   1.00
C92    C     0.42727   0.17375   0.09234   0.00000  Uiso   1.00
C93    C     0.56083   0.18151   0.45448   0.00000  Uiso   1.00
C94    C     0.44668   0.18908   0.04798   0.00000  Uiso   1.00
C95    C     0.59448   0.17248   0.47877   0.00000  Uiso   1.00
C96    C     0.41402   0.20318   0.02478   0.00000  Uiso   1.00
C97    C     0.51297   0.19380   0.47784   0.00000  Uiso   1.00
C98    C     0.49731   0.18858   0.02541   0.00000  Uiso   1.00
C99    C     0.53303   0.18377   0.04862   0.00000  Uiso   1.00
C100   C     0.48033   0.21190   0.45612   0.00000  Uiso   1.00
C101   C     0.58036   0.17425   0.02525   0.00000  Uiso   1.00
C102   C     0.43135   0.21558   0.47977   0.00000  Uiso   1.00
H103   H     0.60673   0.16968   0.04364   0.00000  Uiso   1.00
H104   H     0.40668   0.22900   0.46297   0.00000  Uiso   1.00
H105   H     0.45023   0.15866   0.10962   0.00000  Uiso   1.00
H106   H     0.54942   0.17617   0.38902   0.00000  Uiso   1.00
H107   H     0.64150   0.19645   0.10918   0.00000  Uiso   1.00
H108   H     0.36169   0.15488   0.39281   0.00000  Uiso   1.00
H109   H     0.33542   0.15709   0.47455   0.00000  Uiso   1.00
H110   H     0.33958   0.21830   0.03010   0.00000  Uiso   1.00
C111   C     0.63114   0.02108   0.23606   0.00000  Uiso   1.00
C112   C     0.36905   0.31224   0.26363   0.00000  Uiso   1.00
H113   H     0.60397   0.03704   0.22451   0.00000  Uiso   1.00
H114   H     0.39632   0.29627   0.27504   0.00000  Uiso   1.00
C115   C     0.63143   0.31174   0.23594   0.00000  Uiso   1.00
C116   C     0.36872   0.02158   0.26382   0.00000  Uiso   1.00
H117   H     0.60408   0.29540   0.22469   0.00000  Uiso   1.00
H118   H     0.39607   0.03792   0.27506   0.00000  Uiso   1.00
C119   C     0.33377   0.29055   0.24967   0.00000  Uiso   1.00
C120   C     0.66632   0.04278   0.25015   0.00000  Uiso   1.00
C121   C     0.51735   0.13477   0.27002   0.00000  Uiso   1.00
C122   C     0.48251   0.19914   0.23097   0.00000  Uiso   1.00
C123   C     0.46825   0.13486   0.26935   0.00000  Uiso   1.00
C124   C     0.53182   0.19849   0.23078   0.00000  Uiso   1.00
H125   H     0.44397   0.10966   0.28543   0.00000  Uiso   1.00
H126   H     0.55616   0.22373   0.21494   0.00000  Uiso   1.00
N127   N     0.45069   0.16668   0.24999   0.00000  Uiso   1.00
N128   N     0.54931   0.16666   0.25001   0.00000  Uiso   1.00
N129   N     0.52503   0.19773   0.09338   0.00000  Uiso   1.00
O130   O     0.51449   0.23621   0.10112   0.00000  Uiso   1.00
O131   O     0.54040   0.17625   0.12223   0.00000  Uiso   1.00
N132   N     0.49702   0.23219   0.41272   0.00000  Uiso   1.00
O133   O     0.53493   0.25687   0.40342   0.00000  Uiso   1.00
O134   O     0.47060   0.23087   0.38502   0.00000  Uiso   1.00
N135   N     0.53232   0.10085   0.29261   0.00000  Uiso   1.00
O136   O     0.52338   0.06347   0.28231   0.00000  Uiso   1.00
O137   O     0.54066   0.10658   0.33099   0.00000  Uiso   1.00
N138   N     0.46693   0.23514   0.21195   0.00000  Uiso   1.00
O139   O     0.48181   0.27141   0.22024   0.00000  Uiso   1.00
O140   O     0.44752   0.23190   0.17925   0.00000  Uiso   1.00
O141   O     0.70625   0.10655   0.25000   0.00000  Uiso   1.00
O142   O     0.96042   0.22678   0.25000   0.00000  Uiso   1.00
O143   O     0.96039   0.10654   0.25001   0.00000  Uiso   1.00
O144   O     0.70628   0.22679   0.25000   0.00000  Uiso   1.00
C145   C     0.99974   0.08743   0.25010   0.00000  Uiso   1.00
C146   C     0.66694   0.24590   0.24986   0.00000  Uiso   1.00
O147   O     0.68519   0.16668   0.31492   0.00000  Uiso   1.00
O148   O     0.98148   0.16666   0.18509   0.00000  Uiso   1.00
O149   O     0.93933   0.16667   0.31492   0.00000  Uiso   1.00
O150   O     0.72733   0.16667   0.18508   0.00000  Uiso   1.00
C151   C     0.97241   0.16626   0.33606   0.00000  Uiso   1.00
C152   C     0.69445   0.16825   0.16387   0.00000  Uiso   1.00
Cu153  Cu    0.71355   0.16667   0.25000   0.00000  Uiso   1.00
Cu154  Cu    0.95311   0.16666   0.25000   0.00000  Uiso   1.00
C155   C     0.95720   0.16732   0.38526   0.00000  Uiso   1.00
C156   C     0.71107   0.17676   0.11502   0.00000  Uiso   1.00
C157   C     0.97589   0.16297   0.45619   0.00000  Uiso   1.00
C158   C     0.69768   0.20572   0.04722   0.00000  Uiso   1.00
C159   C     0.99080   0.16144   0.40962   0.00000  Uiso   1.00
C160   C     0.67967   0.19289   0.09214   0.00000  Uiso   1.00
C161   C     0.90882   0.17538   0.40798   0.00000  Uiso   1.00
C162   C     0.76061   0.17375   0.09234   0.00000  Uiso   1.00
C163   C     0.89416   0.18151   0.45448   0.00000  Uiso   1.00
C164   C     0.78002   0.18908   0.04798   0.00000  Uiso   1.00
C165   C     0.92781   0.17248   0.47877   0.00000  Uiso   1.00
C166   C     0.74736   0.20318   0.02478   0.00000  Uiso   1.00
C167   C     0.84630   0.19380   0.47784   0.00000  Uiso   1.00
C168   C     0.83065   0.18858   0.02541   0.00000  Uiso   1.00
C169   C     0.86637   0.18377   0.04862   0.00000  Uiso   1.00
C170   C     0.81367   0.21190   0.45612   0.00000  Uiso   1.00
C171   C     0.91369   0.17425   0.02525   0.00000  Uiso   1.00
C172   C     0.76468   0.21558   0.47977   0.00000  Uiso   1.00
H173   H     0.94006   0.16968   0.04364   0.00000  Uiso   1.00
H174   H     0.74001   0.22900   0.46297   0.00000  Uiso   1.00
H175   H     0.78356   0.15866   0.10962   0.00000  Uiso   1.00
H176   H     0.88275   0.17617   0.38902   0.00000  Uiso   1.00
H177   H     0.97483   0.19645   0.10918   0.00000  Uiso   1.00
H178   H     0.69502   0.15488   0.39281   0.00000  Uiso   1.00
H179   H     0.66875   0.15709   0.47455   0.00000  Uiso   1.00
H180   H     0.67291   0.21830   0.03010   0.00000  Uiso   1.00
C181   C     0.96447   0.02108   0.23606   0.00000  Uiso   1.00
C182   C     0.70239   0.31224   0.26363   0.00000  Uiso   1.00
H183   H     0.93731   0.03704   0.22451   0.00000  Uiso   1.00
H184   H     0.72966   0.29627   0.27504   0.00000  Uiso   1.00
C185   C     0.96476   0.31174   0.23594   0.00000  Uiso   1.00
C186   C     0.70205   0.02158   0.26382   0.00000  Uiso   1.00
H187   H     0.93742   0.29540   0.22469   0.00000  Uiso   1.00
H188   H     0.72941   0.03792   0.27506   0.00000  Uiso   1.00
C189   C     0.66711   0.29055   0.24967   0.00000  Uiso   1.00
C190   C     0.99966   0.04278   0.25015   0.00000  Uiso   1.00
C191   C     0.85068   0.13477   0.27002   0.00000  Uiso   1.00
C192   C     0.81584   0.19914   0.23097   0.00000  Uiso   1.00
C193   C     0.80158   0.13486   0.26935   0.00000  Uiso   1.00
C194   C     0.86516   0.19849   0.23078   0.00000  Uiso   1.00
H195   H     0.77730   0.10966   0.28543   0.00000  Uiso   1.00
H196   H     0.88949   0.22373   0.21494   0.00000  Uiso   1.00
N197   N     0.78403   0.16668   0.24999   0.00000  Uiso   1.00
N198   N     0.88264   0.16666   0.25001   0.00000  Uiso   1.00
N199   N     0.85837   0.19773   0.09338   0.00000  Uiso   1.00
O200   O     0.84783   0.23621   0.10112   0.00000  Uiso   1.00
O201   O     0.87374   0.17625   0.12223   0.00000  Uiso   1.00
N202   N     0.83036   0.23219   0.41272   0.00000  Uiso   1.00
O203   O     0.86826   0.25687   0.40342   0.00000  Uiso   1.00
O204   O     0.80394   0.23087   0.38502   0.00000  Uiso   1.00
N205   N     0.86566   0.10085   0.29261   0.00000  Uiso   1.00
O206   O     0.85672   0.06347   0.28231   0.00000  Uiso   1.00
O207   O     0.87400   0.10658   0.33099   0.00000  Uiso   1.00
N208   N     0.80027   0.23514   0.21195   0.00000  Uiso   1.00
O209   O     0.81514   0.27141   0.22024   0.00000  Uiso   1.00
O210   O     0.78085   0.23190   0.17925   0.00000  Uiso   1.00
O211   O     0.03958   0.43989   0.25000   0.00000  Uiso   1.00
O212   O     0.29375   0.56011   0.25000   0.00000  Uiso   1.00
O213   O     0.29372   0.43988   0.25001   0.00000  Uiso   1.00
O214   O     0.03961   0.56012   0.25000   0.00000  Uiso   1.00
C215   C     0.33308   0.42076   0.25010   0.00000  Uiso   1.00
C216   C     0.00027   0.57924   0.24986   0.00000  Uiso   1.00
O217   O     0.01852   0.50001   0.31492   0.00000  Uiso   1.00
O218   O     0.31481   0.49999   0.18509   0.00000  Uiso   1.00
O219   O     0.27267   0.50000   0.31492   0.00000  Uiso   1.00
O220   O     0.06067   0.50000   0.18508   0.00000  Uiso   1.00
C221   C     0.30575   0.49960   0.33606   0.00000  Uiso   1.00
C222   C     0.02778   0.50158   0.16387   0.00000  Uiso   1.00
Cu223  Cu    0.04689   0.50001   0.25000   0.00000  Uiso   1.00
Cu224  Cu    0.28645   0.49999   0.25000   0.00000  Uiso   1.00
C225   C     0.29054   0.50066   0.38526   0.00000  Uiso   1.00
C226   C     0.04441   0.51009   0.11502   0.00000  Uiso   1.00
C227   C     0.30922   0.49630   0.45619   0.00000  Uiso   1.00
C228   C     0.03101   0.53905   0.04722   0.00000  Uiso   1.00
C229   C     0.32414   0.49477   0.40962   0.00000  Uiso   1.00
C230   C     0.01301   0.52622   0.09214   0.00000  Uiso   1.00
C231   C     0.24215   0.50872   0.40798   0.00000  Uiso   1.00
C232   C     0.09394   0.50708   0.09234   0.00000  Uiso   1.00
C233   C     0.22750   0.51484   0.45448   0.00000  Uiso   1.00
C234   C     0.11335   0.52241   0.04798   0.00000  Uiso   1.00
C235   C     0.26114   0.50582   0.47877   0.00000  Uiso   1.00
C236   C     0.08069   0.53651   0.02478   0.00000  Uiso   1.00
C237   C     0.17963   0.52713   0.47784   0.00000  Uiso   1.00
C238   C     0.16398   0.52191   0.02541   0.00000  Uiso   1.00
C239   C     0.19970   0.51710   0.04862   0.00000  Uiso   1.00
C240   C     0.14700   0.54523   0.45612   0.00000  Uiso   1.00
C241   C     0.24703   0.50758   0.02525   0.00000  Uiso   1.00
C242   C     0.09801   0.54891   0.47977   0.00000  Uiso   1.00
H243   H     0.27340   0.50301   0.04364   0.00000  Uiso   1.00
H244   H     0.07335   0.56233   0.46297   0.00000  Uiso   1.00
H245   H     0.11689   0.49200   0.10962   0.00000  Uiso   1.00
H246   H     0.21608   0.50950   0.38902   0.00000  Uiso   1.00
H247   H     0.30817   0.52978   0.10918   0.00000  Uiso   1.00
H248   H     0.02835   0.48821   0.39281   0.00000  Uiso   1.00
H249   H     0.00209   0.49042   0.47455   0.00000  Uiso   1.00
H250   H     0.00625   0.55164   0.03010   0.00000  Uiso   1.00
C251   C     0.29781   0.35441   0.23606   0.00000  Uiso   1.00
C252   C     0.03572   0.64558   0.26363   0.00000  Uiso   1.00
H253   H     0.27064   0.37038   0.22451   0.00000  Uiso   1.00
H254   H     0.06299   0.62961   0.27504   0.00000  Uiso   1.00
C255   C     0.29809   0.64507   0.23594   0.00000  Uiso   1.00
C256   C     0.03539   0.35491   0.26382   0.00000  Uiso   1.00
H257   H     0.27075   0.62873   0.22469   0.00000  Uiso   1.00
H258   H     0.06274   0.37125   0.27506   0.00000  Uiso   1.00
C259   C     0.00044   0.62388   0.24967   0.00000  Uiso   1.00
C260   C     0.33299   0.37611   0.25015   0.00000  Uiso   1.00
C261   C     0.18401   0.46810   0.27002   0.00000  Uiso   1.00
C262   C     0.14917   0.53247   0.23097   0.00000  Uiso   1.00
C263   C     0.13491   0.46819   0.26935   0.00000  Uiso   1.00
C264   C     0.19849   0.53182   0.23078   0.00000  Uiso   1.00
H265   H     0.11064   0.44299   0.28543   0.00000  Uiso   1.00
H266   H     0.22283   0.55707   0.21494   0.00000  Uiso   1.00
N267   N     0.11736   0.50001   0.24999   0.00000  Uiso   1.00
N268   N     0.21597   0.49999   0.25001   0.00000  Uiso   1.00
N269   N     0.19170   0.53106   0.09338   0.00000  Uiso   1.00
O270   O     0.18116   0.56954   0.10112   0.00000  Uiso   1.00
O271   O     0.20707   0.50958   0.12223   0.00000  Uiso   1.00
N272   N     0.16369   0.56552   0.41272   0.00000  Uiso   1.00
O273   O     0.20160   0.59020   0.40342   0.00000  Uiso   1.00
O274   O     0.13727   0.56421   0.38502   0.00000  Uiso   1.00
N275   N     0.19899   0.43418   0.29261   0.00000  Uiso   1.00
O276   O     0.19005   0.39680   0.28231   0.00000  Uiso   1.00
O277   O     0.20733   0.43991   0.33099   0.00000  Uiso   1.00
N278   N     0.13360   0.56847   0.21195   0.00000  Uiso   1.00
O279   O     0.14848   0.60474   0.22024   0.00000  Uiso   1.00
O280   O     0.11418   0.56523   0.17925   0.00000  Uiso   1.00
O281   O     0.37291   0.43989   0.25000   0.00000  Uiso   1.00
O282   O     0.62709   0.56011   0.25000   0.00000  Uiso   1.00
O283   O     0.62706   0.43988   0.25001   0.00000  Uiso   1.00
O284   O     0.37294   0.56012   0.25000   0.00000  Uiso   1.00
C285   C     0.66641   0.42076   0.25010   0.00000  Uiso   1.00
C286   C     0.33360   0.57924   0.24986   0.00000  Uiso   1.00
O287   O     0.35186   0.50001   0.31492   0.00000  Uiso   1.00
O288   O     0.64814   0.49999   0.18509   0.00000  Uiso   1.00
O289   O     0.60600   0.50000   0.31492   0.00000  Uiso   1.00
O290   O     0.39400   0.50000   0.18508   0.00000  Uiso   1.00
C291   C     0.63908   0.49960   0.33606   0.00000  Uiso   1.00
C292   C     0.36111   0.50158   0.16387   0.00000  Uiso   1.00
Cu293  Cu    0.38022   0.50001   0.25000   0.00000  Uiso   1.00
Cu294  Cu    0.61978   0.49999   0.25000   0.00000  Uiso   1.00
C295   C     0.62387   0.50066   0.38526   0.00000  Uiso   1.00
C296   C     0.37774   0.51009   0.11502   0.00000  Uiso   1.00
C297   C     0.64255   0.49630   0.45619   0.00000  Uiso   1.00
C298   C     0.36435   0.53905   0.04722   0.00000  Uiso   1.00
C299   C     0.65747   0.49477   0.40962   0.00000  Uiso   1.00
C300   C     0.34634   0.52622   0.09214   0.00000  Uiso   1.00
C301   C     0.57548   0.50872   0.40798   0.00000  Uiso   1.00
C302   C     0.42727   0.50708   0.09234   0.00000  Uiso   1.00
C303   C     0.56083   0.51484   0.45448   0.00000  Uiso   1.00
C304   C     0.44668   0.52241   0.04798   0.00000  Uiso   1.00
C305   C     0.59448   0.50582   0.47877   0.00000  Uiso   1.00
C306   C     0.41402   0.53651   0.02478   0.00000  Uiso   1.00
C307   C     0.51297   0.52713   0.47784   0.00000  Uiso   1.00
C308   C     0.49731   0.52191   0.02541   0.00000  Uiso   1.00
C309   C     0.53303   0.51710   0.04862   0.00000  Uiso   1.00
C310   C     0.48033   0.54523   0.45612   0.00000  Uiso   1.00
C311   C     0.58036   0.50758   0.02525   0.00000  Uiso   1.00
C312   C     0.43135   0.54891   0.47977   0.00000  Uiso   1.00
H313   H     0.60673   0.50301   0.04364   0.00000  Uiso   1.00
H314   H     0.40668   0.56233   0.46297   0.00000  Uiso   1.00
H315   H     0.45023   0.49200   0.10962   0.00000  Uiso   1.00
H316   H     0.54942   0.50950   0.38902   0.00000  Uiso   1.00
H317   H     0.64150   0.52978   0.10918   0.00000  Uiso   1.00
H318   H     0.36169   0.48821   0.39281   0.00000  Uiso   1.00
H319   H     0.33542   0.49042   0.47455   0.00000  Uiso   1.00
H320   H     0.33958   0.55164   0.03010   0.00000  Uiso   1.00
C321   C     0.63114   0.35441   0.23606   0.00000  Uiso   1.00
C322   C     0.36905   0.64558   0.26363   0.00000  Uiso   1.00
H323   H     0.60397   0.37038   0.22451   0.00000  Uiso   1.00
H324   H     0.39632   0.62961   0.27504   0.00000  Uiso   1.00
C325   C     0.63143   0.64507   0.23594   0.00000  Uiso   1.00
C326   C     0.36872   0.35491   0.26382   0.00000  Uiso   1.00
H327   H     0.60408   0.62873   0.22469   0.00000  Uiso   1.00
H328   H     0.39607   0.37125   0.27506   0.00000  Uiso   1.00
C329   C     0.33377   0.62388   0.24967   0.00000  Uiso   1.00
C330   C     0.66632   0.37611   0.25015   0.00000  Uiso   1.00
C331   C     0.51735   0.46810   0.27002   0.00000  Uiso   1.00
C332   C     0.48251   0.53247   0.23097   0.00000  Uiso   1.00
C333   C     0.46825   0.46819   0.26935   0.00000  Uiso   1.00
C334   C     0.53182   0.53182   0.23078   0.00000  Uiso   1.00
H335   H     0.44397   0.44299   0.28543   0.00000  Uiso   1.00
H336   H     0.55616   0.55707   0.21494   0.00000  Uiso   1.00
N337   N     0.45069   0.50001   0.24999   0.00000  Uiso   1.00
N338   N     0.54931   0.49999   0.25001   0.00000  Uiso   1.00
N339   N     0.52503   0.53106   0.09338   0.00000  Uiso   1.00
O340   O     0.51449   0.56954   0.10112   0.00000  Uiso   1.00
O341   O     0.54040   0.50958   0.12223   0.00000  Uiso   1.00
N342   N     0.49702   0.56552   0.41272   0.00000  Uiso   1.00
O343   O     0.53493   0.59020   0.40342   0.00000  Uiso   1.00
O344   O     0.47060   0.56421   0.38502   0.00000  Uiso   1.00
N345   N     0.53232   0.43418   0.29261   0.00000  Uiso   1.00
O346   O     0.52338   0.39680   0.28231   0.00000  Uiso   1.00
O347   O     0.54066   0.43991   0.33099   0.00000  Uiso   1.00
N348   N     0.46693   0.56847   0.21195   0.00000  Uiso   1.00
O349   O     0.48181   0.60474   0.22024   0.00000  Uiso   1.00
O350   O     0.44752   0.56523   0.17925   0.00000  Uiso   1.00
O351   O     0.70625   0.43989   0.25000   0.00000  Uiso   1.00
O352   O     0.96042   0.56011   0.25000   0.00000  Uiso   1.00
O353   O     0.96039   0.43988   0.25001   0.00000  Uiso   1.00
O354   O     0.70628   0.56012   0.25000   0.00000  Uiso   1.00
C355   C     0.99974   0.42076   0.25010   0.00000  Uiso   1.00
C356   C     0.66694   0.57924   0.24986   0.00000  Uiso   1.00
O357   O     0.68519   0.50001   0.31492   0.00000  Uiso   1.00
O358   O     0.98148   0.49999   0.18509   0.00000  Uiso   1.00
O359   O     0.93933   0.50000   0.31492   0.00000  Uiso   1.00
O360   O     0.72733   0.50000   0.18508   0.00000  Uiso   1.00
C361   C     0.97241   0.49960   0.33606   0.00000  Uiso   1.00
C362   C     0.69445   0.50158   0.16387   0.00000  Uiso   1.00
Cu363  Cu    0.71355   0.50001   0.25000   0.00000  Uiso   1.00
Cu364  Cu    0.95311   0.49999   0.25000   0.00000  Uiso   1.00
C365   C     0.95720   0.50066   0.38526   0.00000  Uiso   1.00
C366   C     0.71107   0.51009   0.11502   0.00000  Uiso   1.00
C367   C     0.97589   0.49630   0.45619   0.00000  Uiso   1.00
C368   C     0.69768   0.53905   0.04722   0.00000  Uiso   1.00
C369   C     0.99080   0.49477   0.40962   0.00000  Uiso   1.00
C370   C     0.67967   0.52622   0.09214   0.00000  Uiso   1.00
C371   C     0.90882   0.50872   0.40798   0.00000  Uiso   1.00
C372   C     0.76061   0.50708   0.09234   0.00000  Uiso   1.00
C373   C     0.89416   0.51484   0.45448   0.00000  Uiso   1.00
C374   C     0.78002   0.52241   0.04798   0.00000  Uiso   1.00
C375   C     0.92781   0.50582   0.47877   0.00000  Uiso   1.00
C376   C     0.74736   0.53651   0.02478   0.00000  Uiso   1.00
C377   C     0.84630   0.52713   0.47784   0.00000  Uiso   1.00
C378   C     0.83065   0.52191   0.02541   0.00000  Uiso   1.00
C379   C     0.86637   0.51710   0.04862   0.00000  Uiso   1.00
C380   C     0.81367   0.54523   0.45612   0.00000  Uiso   1.00
C381   C     0.91369   0.50758   0.02525   0.00000  Uiso   1.00
C382   C     0.76468   0.54891   0.47977   0.00000  Uiso   1.00
H383   H     0.94006   0.50301   0.04364   0.00000  Uiso   1.00
H384   H     0.74001   0.56233   0.46297   0.00000  Uiso   1.00
H385   H     0.78356   0.49200   0.10962   0.00000  Uiso   1.00
H386   H     0.88275   0.50950   0.38902   0.00000  Uiso   1.00
H387   H     0.97483   0.52978   0.10918   0.00000  Uiso   1.00
H388   H     0.69502   0.48821   0.39281   0.00000  Uiso   1.00
H389   H     0.66875   0.49042   0.47455   0.00000  Uiso   1.00
H390   H     0.67291   0.55164   0.03010   0.00000  Uiso   1.00
C391   C     0.96447   0.35441   0.23606   0.00000  Uiso   1.00
C392   C     0.70239   0.64558   0.26363   0.00000  Uiso   1.00
H393   H     0.93731   0.37038   0.22451   0.00000  Uiso   1.00
H394   H     0.72966   0.62961   0.27504   0.00000  Uiso   1.00
C395   C     0.96476   0.64507   0.23594   0.00000  Uiso   1.00
C396   C     0.70205   0.35491   0.26382   0.00000  Uiso   1.00
H397   H     0.93742   0.62873   0.22469   0.00000  Uiso   1.00
H398   H     0.72941   0.37125   0.27506   0.00000  Uiso   1.00
C399   C     0.66711   0.62388   0.24967   0.00000  Uiso   1.00
C400   C     0.99966   0.37611   0.25015   0.00000  Uiso   1.00
C401   C     0.85068   0.46810   0.27002   0.00000  Uiso   1.00
C402   C     0.81584   0.53247   0.23097   0.00000  Uiso   1.00
C403   C     0.80158   0.46819   0.26935   0.00000  Uiso   1.00
C404   C     0.86516   0.53182   0.23078   0.00000  Uiso   1.00
H405   H     0.77730   0.44299   0.28543   0.00000  Uiso   1.00
H406   H     0.88949   0.55707   0.21494   0.00000  Uiso   1.00
N407   N     0.78403   0.50001   0.24999   0.00000  Uiso   1.00
N408   N     0.88264   0.49999   0.25001   0.00000  Uiso   1.00
N409   N     0.85837   0.53106   0.09338   0.00000  Uiso   1.00
O410   O     0.84783   0.56954   0.10112   0.00000  Uiso   1.00
O411   O     0.87374   0.50958   0.12223   0.00000  Uiso   1.00
N412   N     0.83036   0.56552   0.41272   0.00000  Uiso   1.00
O413   O     0.86826   0.59020   0.40342   0.00000  Uiso   1.00
O414   O     0.80394   0.56421   0.38502   0.00000  Uiso   1.00
N415   N     0.86566   0.43418   0.29261   0.00000  Uiso   1.00
O416   O     0.85672   0.39680   0.28231   0.00000  Uiso   1.00
O417   O     0.87400   0.43991   0.33099   0.00000  Uiso   1.00
N418   N     0.80027   0.56847   0.21195   0.00000  Uiso   1.00
O419   O     0.81514   0.60474   0.22024   0.00000  Uiso   1.00
O420   O     0.78085   0.56523   0.17925   0.00000  Uiso   1.00
O421   O     0.03958   0.77322   0.25000   0.00000  Uiso   1.00
O422   O     0.29375   0.89345   0.25000   0.00000  Uiso   1.00
O423   O     0.29372   0.77321   0.25001   0.00000  Uiso   1.00
O424   O     0.03961   0.89346   0.25000   0.00000  Uiso   1.00
C425   C     0.33308   0.75409   0.25010   0.00000  Uiso   1.00
C426   C     0.00027   0.91257   0.24986   0.00000  Uiso   1.00
O427   O     0.01852   0.83334   0.31492   0.00000  Uiso   1.00
O428   O     0.31481   0.83332   0.18509   0.00000  Uiso   1.00
O429   O     0.27267   0.83333   0.31492   0.00000  Uiso   1.00
O430   O     0.06067   0.83333   0.18508   0.00000  Uiso   1.00
C431   C     0.30575   0.83293   0.33606   0.00000  Uiso   1.00
C432   C     0.02778   0.83492   0.16387   0.00000  Uiso   1.00
Cu433  Cu    0.04689   0.83334   0.25000   0.00000  Uiso   1.00
Cu434  Cu    0.28645   0.83333   0.25000   0.00000  Uiso   1.00
C435   C     0.29054   0.83399   0.38526   0.00000  Uiso   1.00
C436   C     0.04441   0.84342   0.11502   0.00000  Uiso   1.00
C437   C     0.30922   0.82964   0.45619   0.00000  Uiso   1.00
C438   C     0.03101   0.87239   0.04722   0.00000  Uiso   1.00
C439   C     0.32414   0.82810   0.40962   0.00000  Uiso   1.00
C440   C     0.01301   0.85956   0.09214   0.00000  Uiso   1.00
C441   C     0.24215   0.84205   0.40798   0.00000  Uiso   1.00
C442   C     0.09394   0.84041   0.09234   0.00000  Uiso   1.00
C443   C     0.22750   0.84818   0.45448   0.00000  Uiso   1.00
C444   C     0.11335   0.85575   0.04798   0.00000  Uiso   1.00
C445   C     0.26114   0.83915   0.47877   0.00000  Uiso   1.00
C446   C     0.08069   0.86984   0.02478   0.00000  Uiso   1.00
C447   C     0.17963   0.86047   0.47784   0.00000  Uiso   1.00
C448   C     0.16398   0.85524   0.02541   0.00000  Uiso   1.00
C449   C     0.19970   0.85043   0.04862   0.00000  Uiso   1.00
C450   C     0.14700   0.87856   0.45612   0.00000  Uiso   1.00
C451   C     0.24703   0.84091   0.02525   0.00000  Uiso   1.00
C452   C     0.09801   0.88225   0.47977   0.00000  Uiso   1.00
H453   H     0.27340   0.83635   0.04364   0.00000  Uiso   1.00
H454   H     0.07335   0.89566   0.46297   0.00000  Uiso   1.00
H455   H     0.11689   0.82533   0.10962   0.00000  Uiso   1.00
H456   H     0.21608   0.84283   0.38902   0.00000  Uiso   1.00
H457   H     0.30817   0.86311   0.10918   0.00000  Uiso   1.00
H458   H     0.02835   0.82154   0.39281   0.00000  Uiso   1.00
H459   H     0.00209   0.82375   0.47455   0.00000  Uiso   1.00
H460   H     0.00625   0.88497   0.03010   0.00000  Uiso   1.00
C461   C     0.29781   0.68774   0.23606   0.00000  Uiso   1.00
C462   C     0.03572   0.97891   0.26363   0.00000  Uiso   1.00
H463   H     0.27064   0.70371   0.22451   0.00000  Uiso   1.00
H464   H     0.06299   0.96294   0.27504   0.00000  Uiso   1.00
C465   C     0.29809   0.97840   0.23594   0.00000  Uiso   1.00
C466   C     0.03539   0.68825   0.26382   0.00000  Uiso   1.00
H467   H     0.27075   0.96206   0.22469   0.00000  Uiso   1.00
H468   H     0.06274   0.70458   0.27506   0.00000  Uiso   1.00
C469   C     0.00044   0.95721   0.24967   0.00000  Uiso   1.00
C470   C     0.33299   0.70944   0.25015   0.00000  Uiso   1.00
C471   C     0.18401   0.80144   0.27002   0.00000  Uiso   1.00
C472   C     0.14917   0.86580   0.23097   0.00000  Uiso   1.00
C473   C     0.13491   0.80153   0.26935   0.00000  Uiso   1.00
C474   C     0.19849   0.86516   0.23078   0.00000  Uiso   1.00
H475   H     0.11064   0.77633   0.28543   0.00000  Uiso   1.00
H476   H     0.22283   0.89040   0.21494   0.00000  Uiso   1.00
N477   N     0.11736   0.83334   0.24999   0.00000  Uiso   1.00
N478   N     0.21597   0.83332   0.25001   0.00000  Uiso   1.00
N479   N     0.19170   0.86439   0.09338   0.00000  Uiso   1.00
O480   O     0.18116   0.90287   0.10112   0.00000  Uiso   1.00
O481   O     0.20707   0.84292   0.12223   0.00000  Uiso   1.00
N482   N     0.16369   0.89886   0.41272   0.00000  Uiso   1.00
O483   O     0.20160   0.92354   0.40342   0.00000  Uiso   1.00
O484   O     0.13727   0.89754   0.38502   0.00000  Uiso   1.00
N485   N     0.19899   0.76752   0.29261   0.00000  Uiso   1.00
O486   O     0.19005   0.73014   0.28231   0.00000  Uiso   1.00
O487   O     0.20733   0.77325   0.33099   0.00000  Uiso   1.00
N488   N     0.13360   0.90180   0.21195   0.00000  Uiso   1.00
O489   O     0.14848   0.93807   0.22024   0.00000  Uiso   1.00
O490   O     0.11418   0.89856   0.17925   0.00000  Uiso   1.00
O491   O     0.37291   0.77322   0.25000   0.00000  Uiso   1.00
O492   O     0.62709   0.89345   0.25000   0.00000  Uiso   1.00
O493   O     0.62706   0.77321   0.25001   0.00000  Uiso   1.00
O494   O     0.37294   0.89346   0.25000   0.00000  Uiso   1.00
C495   C     0.66641   0.75409   0.25010   0.00000  Uiso   1.00
C496   C     0.33360   0.91257   0.24986   0.00000  Uiso   1.00
O497   O     0.35186   0.83334   0.31492   0.00000  Uiso   1.00
O498   O     0.64814   0.83332   0.18509   0.00000  Uiso   1.00
O499   O     0.60600   0.83333   0.31492   0.00000  Uiso   1.00
O500   O     0.39400   0.83333   0.18508   0.00000  Uiso   1.00
C501   C     0.63908   0.83293   0.33606   0.00000  Uiso   1.00
C502   C     0.36111   0.83492   0.16387   0.00000  Uiso   1.00
Cu503  Cu    0.38022   0.83334   0.25000   0.00000  Uiso   1.00
Cu504  Cu    0.61978   0.83333   0.25000   0.00000  Uiso   1.00
C505   C     0.62387   0.83399   0.38526   0.00000  Uiso   1.00
C506   C     0.37774   0.84342   0.11502   0.00000  Uiso   1.00
C507   C     0.64255   0.82964   0.45619   0.00000  Uiso   1.00
C508   C     0.36435   0.87239   0.04722   0.00000  Uiso   1.00
C509   C     0.65747   0.82810   0.40962   0.00000  Uiso   1.00
C510   C     0.34634   0.85956   0.09214   0.00000  Uiso   1.00
C511   C     0.57548   0.84205   0.40798   0.00000  Uiso   1.00
C512   C     0.42727   0.84041   0.09234   0.00000  Uiso   1.00
C513   C     0.56083   0.84818   0.45448   0.00000  Uiso   1.00
C514   C     0.44668   0.85575   0.04798   0.00000  Uiso   1.00
C515   C     0.59448   0.83915   0.47877   0.00000  Uiso   1.00
C516   C     0.41402   0.86984   0.02478   0.00000  Uiso   1.00
C517   C     0.51297   0.86047   0.47784   0.00000  Uiso   1.00
C518   C     0.49731   0.85524   0.02541   0.00000  Uiso   1.00
C519   C     0.53303   0.85043   0.04862   0.00000  Uiso   1.00
C520   C     0.48033   0.87856   0.45612   0.00000  Uiso   1.00
C521   C     0.58036   0.84091   0.02525   0.00000  Uiso   1.00
C522   C     0.43135   0.88225   0.47977   0.00000  Uiso   1.00
H523   H     0.60673   0.83635   0.04364   0.00000  Uiso   1.00
H524   H     0.40668   0.89566   0.46297   0.00000  Uiso   1.00
H525   H     0.45023   0.82533   0.10962   0.00000  Uiso   1.00
H526   H     0.54942   0.84283   0.38902   0.00000  Uiso   1.00
H527   H     0.64150   0.86311   0.10918   0.00000  Uiso   1.00
H528   H     0.36169   0.82154   0.39281   0.00000  Uiso   1.00
H529   H     0.33542   0.82375   0.47455   0.00000  Uiso   1.00
H530   H     0.33958   0.88497   0.03010   0.00000  Uiso   1.00
C531   C     0.63114   0.68774   0.23606   0.00000  Uiso   1.00
C532   C     0.36905   0.97891   0.26363   0.00000  Uiso   1.00
H533   H     0.60397   0.70371   0.22451   0.00000  Uiso   1.00
H534   H     0.39632   0.96294   0.27504   0.00000  Uiso   1.00
C535   C     0.63143   0.97840   0.23594   0.00000  Uiso   1.00
C536   C     0.36872   0.68825   0.26382   0.00000  Uiso   1.00
H537   H     0.60408   0.96206   0.22469   0.00000  Uiso   1.00
H538   H     0.39607   0.70458   0.27506   0.00000  Uiso   1.00
C539   C     0.33377   0.95721   0.24967   0.00000  Uiso   1.00
C540   C     0.66632   0.70944   0.25015   0.00000  Uiso   1.00
C541   C     0.51735   0.80144   0.27002   0.00000  Uiso   1.00
C542   C     0.48251   0.86580   0.23097   0.00000  Uiso   1.00
C543   C     0.46825   0.80153   0.26935   0.00000  Uiso   1.00
C544   C     0.53182   0.86516   0.23078   0.00000  Uiso   1.00
H545   H     0.44397   0.77633   0.28543   0.00000  Uiso   1.00
H546   H     0.55616   0.89040   0.21494   0.00000  Uiso   1.00
N547   N     0.45069   0.83334   0.24999   0.00000  Uiso   1.00
N548   N     0.54931   0.83332   0.25001   0.00000  Uiso   1.00
N549   N     0.52503   0.86439   0.09338   0.00000  Uiso   1.00
O550   O     0.51449   0.90287   0.10112   0.00000  Uiso   1.00
O551   O     0.54040   0.84292   0.12223   0.00000  Uiso   1.00
N552   N     0.49702   0.89886   0.41272   0.00000  Uiso   1.00
O553   O     0.53493   0.92354   0.40342   0.00000  Uiso   1.00
O554   O     0.47060   0.89754   0.38502   0.00000  Uiso   1.00
N555   N     0.53232   0.76752   0.29261   0.00000  Uiso   1.00
O556   O     0.52338   0.73014   0.28231   0.00000  Uiso   1.00
O557   O     0.54066   0.77325   0.33099   0.00000  Uiso   1.00
N558   N     0.46693   0.90180   0.21195   0.00000  Uiso   1.00
O559   O     0.48181   0.93807   0.22024   0.00000  Uiso   1.00
O560   O     0.44752   0.89856   0.17925   0.00000  Uiso   1.00
O561   O     0.70625   0.77322   0.25000   0.00000  Uiso   1.00
O562   O     0.96042   0.89345   0.25000   0.00000  Uiso   1.00
O563   O     0.96039   0.77321   0.25001   0.00000  Uiso   1.00
O564   O     0.70628   0.89346   0.25000   0.00000  Uiso   1.00
C565   C     0.99974   0.75409   0.25010   0.00000  Uiso   1.00
C566   C     0.66694   0.91257   0.24986   0.00000  Uiso   1.00
O567   O     0.68519   0.83334   0.31492   0.00000  Uiso   1.00
O568   O     0.98148   0.83332   0.18509   0.00000  Uiso   1.00
O569   O     0.93933   0.83333   0.31492   0.00000  Uiso   1.00
O570   O     0.72733   0.83333   0.18508   0.00000  Uiso   1.00
C571   C     0.97241   0.83293   0.33606   0.00000  Uiso   1.00
C572   C     0.69445   0.83492   0.16387   0.00000  Uiso   1.00
Cu573  Cu    0.71355   0.83334   0.25000   0.00000  Uiso   1.00
Cu574  Cu    0.95311   0.83333   0.25000   0.00000  Uiso   1.00
C575   C     0.95720   0.83399   0.38526   0.00000  Uiso   1.00
C576   C     0.71107   0.84342   0.11502   0.00000  Uiso   1.00
C577   C     0.97589   0.82964   0.45619   0.00000  Uiso   1.00
C578   C     0.69768   0.87239   0.04722   0.00000  Uiso   1.00
C579   C     0.99080   0.82810   0.40962   0.00000  Uiso   1.00
C580   C     0.67967   0.85956   0.09214   0.00000  Uiso   1.00
C581   C     0.90882   0.84205   0.40798   0.00000  Uiso   1.00
C582   C     0.76061   0.84041   0.09234   0.00000  Uiso   1.00
C583   C     0.89416   0.84818   0.45448   0.00000  Uiso   1.00
C584   C     0.78002   0.85575   0.04798   0.00000  Uiso   1.00
C585   C     0.92781   0.83915   0.47877   0.00000  Uiso   1.00
C586   C     0.74736   0.86984   0.02478   0.00000  Uiso   1.00
C587   C     0.84630   0.86047   0.47784   0.00000  Uiso   1.00
C588   C     0.83065   0.85524   0.02541   0.00000  Uiso   1.00
C589   C     0.86637   0.85043   0.04862   0.00000  Uiso   1.00
C590   C     0.81367   0.87856   0.45612   0.00000  Uiso   1.00
C591   C     0.91369   0.84091   0.02525   0.00000  Uiso   1.00
C592   C     0.76468   0.88225   0.47977   0.00000  Uiso   1.00
H593   H     0.94006   0.83635   0.04364   0.00000  Uiso   1.00
H594   H     0.74001   0.89566   0.46297   0.00000  Uiso   1.00
H595   H     0.78356   0.82533   0.10962   0.00000  Uiso   1.00
H596   H     0.88275   0.84283   0.38902   0.00000  Uiso   1.00
H597   H     0.97483   0.86311   0.10918   0.00000  Uiso   1.00
H598   H     0.69502   0.82154   0.39281   0.00000  Uiso   1.00
H599   H     0.66875   0.82375   0.47455   0.00000  Uiso   1.00
H600   H     0.67291   0.88497   0.03010   0.00000  Uiso   1.00
C601   C     0.96447   0.68774   0.23606   0.00000  Uiso   1.00
C602   C     0.70239   0.97891   0.26363   0.00000  Uiso   1.00
H603   H     0.93731   0.70371   0.22451   0.00000  Uiso   1.00
H604   H     0.72966   0.96294   0.27504   0.00000  Uiso   1.00
C605   C     0.96476   0.97840   0.23594   0.00000  Uiso   1.00
C606   C     0.70205   0.68825   0.26382   0.00000  Uiso   1.00
H607   H     0.93742   0.96206   0.22469   0.00000  Uiso   1.00
H608   H     0.72941   0.70458   0.27506   0.00000  Uiso   1.00
C609   C     0.66711   0.95721   0.24967   0.00000  Uiso   1.00
C610   C     0.99966   0.70944   0.25015   0.00000  Uiso   1.00
C611   C     0.85068   0.80144   0.27002   0.00000  Uiso   1.00
C612   C     0.81584   0.86580   0.23097   0.00000  Uiso   1.00
C613   C     0.80158   0.80153   0.26935   0.00000  Uiso   1.00
C614   C     0.86516   0.86516   0.23078   0.00000  Uiso   1.00
H615   H     0.77730   0.77633   0.28543   0.00000  Uiso   1.00
H616   H     0.88949   0.89040   0.21494   0.00000  Uiso   1.00
N617   N     0.78403   0.83334   0.24999   0.00000  Uiso   1.00
N618   N     0.88264   0.83332   0.25001   0.00000  Uiso   1.00
N619   N     0.85837   0.86439   0.09338   0.00000  Uiso   1.00
O620   O     0.84783   0.90287   0.10112   0.00000  Uiso   1.00
O621   O     0.87374   0.84292   0.12223   0.00000  Uiso   1.00
N622   N     0.83036   0.89886   0.41272   0.00000  Uiso   1.00
O623   O     0.86826   0.92354   0.40342   0.00000  Uiso   1.00
O624   O     0.80394   0.89754   0.38502   0.00000  Uiso   1.00
N625   N     0.86566   0.76752   0.29261   0.00000  Uiso   1.00
O626   O     0.85672   0.73014   0.28231   0.00000  Uiso   1.00
O627   O     0.87400   0.77325   0.33099   0.00000  Uiso   1.00
N628   N     0.80027   0.90180   0.21195   0.00000  Uiso   1.00
O629   O     0.81514   0.93807   0.22024   0.00000  Uiso   1.00
O630   O     0.78085   0.89856   0.17925   0.00000  Uiso   1.00
O631   O     0.03958   0.10655   0.75000   0.00000  Uiso   1.00
O632   O     0.29375   0.22678   0.75000   0.00000  Uiso   1.00
O633   O     0.29372   0.10654   0.75001   0.00000  Uiso   1.00
O634   O     0.03961   0.22679   0.75000   0.00000  Uiso   1.00
C635   C     0.33308   0.08743   0.75010   0.00000  Uiso   1.00
C636   C     0.00027   0.24590   0.74986   0.00000  Uiso   1.00
O637   O     0.01852   0.16668   0.81492   0.00000  Uiso   1.00
O638   O     0.31481   0.16666   0.68509   0.00000  Uiso   1.00
O639   O     0.27267   0.16667   0.81492   0.00000  Uiso   1.00
O640   O     0.06067   0.16667   0.68508   0.00000  Uiso   1.00
C641   C     0.30575   0.16626   0.83606   0.00000  Uiso   1.00
C642   C     0.02778   0.16825   0.66387   0.00000  Uiso   1.00
Cu643  Cu    0.04689   0.16667   0.75000   0.00000  Uiso   1.00
Cu644  Cu    0.28645   0.16666   0.75000   0.00000  Uiso   1.00
C645   C     0.29054   0.16732   0.88526   0.00000  Uiso   1.00
C646   C     0.04441   0.17676   0.61502   0.00000  Uiso   1.00
C647   C     0.30922   0.16297   0.95619   0.00000  Uiso   1.00
C648   C     0.03101   0.20572   0.54722   0.00000  Uiso   1.00
C649   C     0.32414   0.16144   0.90962   0.00000  Uiso   1.00
C650   C     0.01301   0.19289   0.59214   0.00000  Uiso   1.00
C651   C     0.24215   0.17538   0.90798   0.00000  Uiso   1.00
C652   C     0.09394   0.17375   0.59234   0.00000  Uiso   1.00
C653   C     0.22750   0.18151   0.95448   0.00000  Uiso   1.00
C654   C     0.11335   0.18908   0.54798   0.00000  Uiso   1.00
C655   C     0.26114   0.17248   0.97877   0.00000  Uiso   1.00
C656   C     0.08069   0.20318   0.52478   0.00000  Uiso   1.00
C657   C     0.17963   0.19380   0.97784   0.00000  Uiso   1.00
C658   C     0.16398   0.18858   0.52541   0.00000  Uiso   1.00
C659   C     0.19970   0.18377   0.54862   0.00000  Uiso   1.00
C660   C     0.14700   0.21190   0.95612   0.00000  Uiso   1.00
C661   C     0.24703   0.17425   0.52525   0.00000  Uiso   1.00
C662   C     0.09801   0.21558   0.97977   0.00000  Uiso   1.00
H663   H     0.27340   0.16968   0.54364   0.00000  Uiso   1.00
H664   H     0.07335   0.22900   0.96297   0.00000  Uiso   1.00
H665   H     0.11689   0.15866   0.60962   0.00000  Uiso   1.00
H666   H     0.21608   0.17617   0.88902   0.00000  Uiso   1.00
H667   H     0.30817   0.19645   0.60918   0.00000  Uiso   1.00
H668   H     0.02835   0.15488   0.89281   0.00000  Uiso   1.00
H669   H     0.00209   0.15709   0.97455   0.00000  Uiso   1.00
H670   H     0.00625   0.21830   0.53010   0.00000  Uiso   1.00
C671   C     0.29781   0.02108   0.73606   0.00000  Uiso   1.00
C672   C     0.03572   0.31224   0.76363   0.00000  Uiso   1.00
H673   H     0.27064   0.03704   0.72451   0.00000  Uiso   1.00
H674   H     0.06299   0.29627   0.77504   0.00000  Uiso   1.00
C675   C     0.29809   0.31174   0.73594   0.00000  Uiso   1.00
C676   C     0.03539   0.02158   0.76382   0.00000  Uiso   1.00
H677   H     0.27075   0.29540   0.72469   0.00000  Uiso   1.00
H678   H     0.06274   0.03792   0.77506   0.00000  Uiso   1.00
C679   C     0.00044   0.29055   0.74967   0.00000  Uiso   1.00
C680   C     0.33299   0.04278   0.75015   0.00000  Uiso   1.00
C681   C     0.18401   0.13477   0.77002   0.00000  Uiso   1.00
C682   C     0.14917   0.19914   0.73097   0.00000  Uiso   1.00
C683   C     0.13491   0.13486   0.76935   0.00000  Uiso   1.00
C684   C     0.19849   0.19849   0.73078   0.00000  Uiso   1.00
H685   H     0.11064   0.10966   0.78543   0.00000  Uiso   1.00
H686   H     0.22283   0.22373   0.71494   0.00000  Uiso   1.00
N687   N     0.11736   0.16668   0.74999   0.00000  Uiso   1.00
N688   N     0.21597   0.16666   0.75001   0.00000  Uiso   1.00
N689   N     0.19170   0.19773   0.59338   0.00000  Uiso   1.00
O690   O     0.18116   0.23621   0.60112   0.00000  Uiso   1.00
O691   O     0.20707   0.17625   0.62223   0.00000  Uiso   1.00
N692   N     0.16369   0.23219   0.91272   0.00000  Uiso   1.00
O693   O     0.20160   0.25687   0.90342   0.00000  Uiso   1.00
O694   O     0.13727   0.23087   0.88502   0.00000  Uiso   1.00
N695   N     0.19899   0.10085   0.79261   0.00000  Uiso   1.00
O696   O     0.19005   0.06347   0.78231   0.00000  Uiso   1.00
O697   O     0.20733   0.10658   0.83099   0.00000  Uiso   1.00
N698   N     0.13360   0.23514   0.71195   0.00000  Uiso   1.00
O699   O     0.14848   0.27141   0.72024   0.00000  Uiso   1.00
O700   O     0.11418   0.23190   0.67925   0.00000  Uiso   1.00
O701   O     0.37291   0.10655   0.75000   0.00000  Uiso   1.00
O702   O     0.62709   0.22678   0.75000   0.00000  Uiso   1.00
O703   O     0.62706   0.10654   0.75001   0.00000  Uiso   1.00
O704   O     0.37294   0.22679   0.75000   0.00000  Uiso   1.00
C705   C     0.66641   0.08743   0.75010   0.00000  Uiso   1.00
C706   C     0.33360   0.24590   0.74986   0.00000  Uiso   1.00
O707   O     0.35186   0.16668   0.81492   0.00000  Uiso   1.00
O708   O     0.64814   0.16666   0.68509   0.00000  Uiso   1.00
O709   O     0.60600   0.16667   0.81492   0.00000  Uiso   1.00
O710   O     0.39400   0.16667   0.68508   0.00000  Uiso   1.00
C711   C     0.63908   0.16626   0.83606   0.00000  Uiso   1.00
C712   C     0.36111   0.16825   0.66387   0.00000  Uiso   1.00
Cu713  Cu    0.38022   0.16667   0.75000   0.00000  Uiso   1.00
Cu714  Cu    0.61978   0.16666   0.75000   0.00000  Uiso   1.00
C715   C     0.62387   0.16732   0.88526   0.00000  Uiso   1.00
C716   C     0.37774   0.17676   0.61502   0.00000  Uiso   1.00
C717   C     0.64255   0.16297   0.95619   0.00000  Uiso   1.00
C718   C     0.36435   0.20572   0.54722   0.00000  Uiso   1.00
C719   C     0.65747   0.16144   0.90962   0.00000  Uiso   1.00
C720   C     0.34634   0.19289   0.59214   0.00000  Uiso   1.00
C721   C     0.57548   0.17538   0.90798   0.00000  Uiso   1.00
C722   C     0.42727   0.17375   0.59234   0.00000  Uiso   1.00
C723   C     0.56083   0.18151   0.95448   0.00000  Uiso   1.00
C724   C     0.44668   0.18908   0.54798   0.00000  Uiso   1.00
C725   C     0.59448   0.17248   0.97877   0.00000  Uiso   1.00
C726   C     0.41402   0.20318   0.52478   0.00000  Uiso   1.00
C727   C     0.51297   0.19380   0.97784   0.00000  Uiso   1.00
C728   C     0.49731   0.18858   0.52541   0.00000  Uiso   1.00
C729   C     0.53303   0.18377   0.54862   0.00000  Uiso   1.00
C730   C     0.48033   0.21190   0.95612   0.00000  Uiso   1.00
C731   C     0.58036   0.17425   0.52525   0.00000  Uiso   1.00
C732   C     0.43135   0.21558   0.97977   0.00000  Uiso   1.00
H733   H     0.60673   0.16968   0.54364   0.00000  Uiso   1.00
H734   H     0.40668   0.22900   0.96297   0.00000  Uiso   1.00
H735   H     0.45023   0.15866   0.60962   0.00000  Uiso   1.00
H736   H     0.54942   0.17617   0.88902   0.00000  Uiso   1.00
H737   H     0.64150   0.19645   0.60918   0.00000  Uiso   1.00
H738   H     0.36169   0.15488   0.89281   0.00000  Uiso   1.00
H739   H     0.33542   0.15709   0.97455   0.00000  Uiso   1.00
H740   H     0.33958   0.21830   0.53010   0.00000  Uiso   1.00
C741   C     0.63114   0.02108   0.73606   0.00000  Uiso   1.00
C742   C     0.36905   0.31224   0.76363   0.00000  Uiso   1.00
H743   H     0.60397   0.03704   0.72451   0.00000  Uiso   1.00
H744   H     0.39632   0.29627   0.77504   0.00000  Uiso   1.00
C745   C     0.63143   0.31174   0.73594   0.00000  Uiso   1.00
C746   C     0.36872   0.02158   0.76382   0.00000  Uiso   1.00
H747   H     0.60408   0.29540   0.72469   0.00000  Uiso   1.00
H748   H     0.39607   0.03792   0.77506   0.00000  Uiso   1.00
C749   C     0.33377   0.29055   0.74967   0.00000  Uiso   1.00
C750   C     0.66632   0.04278   0.75015   0.00000  Uiso   1.00
C751   C     0.51735   0.13477   0.77002   0.00000  Uiso   1.00
C752   C     0.48251   0.19914   0.73097   0.00000  Uiso   1.00
C753   C     0.46825   0.13486   0.76935   0.00000  Uiso   1.00
C754   C     0.53182   0.19849   0.73078   0.00000  Uiso   1.00
H755   H     0.44397   0.10966   0.78543   0.00000  Uiso   1.00
H756   H     0.55616   0.22373   0.71494   0.00000  Uiso   1.00
N757   N     0.45069   0.16668   0.74999   0.00000  Uiso   1.00
N758   N     0.54931   0.16666   0.75001   0.00000  Uiso   1.00
N759   N     0.52503   0.19773   0.59338   0.00000  Uiso   1.00
O760   O     0.51449   0.23621   0.60112   0.00000  Uiso   1.00
O761   O     0.54040   0.17625   0.62223   0.00000  Uiso   1.00
N762   N     0.49702   0.23219   0.91272   0.00000  Uiso   1.00
O763   O     0.53493   0.25687   0.90342   0.00000  Uiso   1.00
O764   O     0.47060   0.23087   0.88502   0.00000  Uiso   1.00
N765   N     0.53232   0.10085   0.79261   0.00000  Uiso   1.00
O766   O     0.52338   0.06347   0.78231   0.00000  Uiso   1.00
O767   O     0.54066   0.10658   0.83099   0.00000  Uiso   1.00
N768   N     0.46693   0.23514   0.71195   0.00000  Uiso   1.00
O769   O     0.48181   0.27141   0.72024   0.00000  Uiso   1.00
O770   O     0.44752   0.23190   0.67925   0.00000  Uiso   1.00
O771   O     0.70625   0.10655   0.75000   0.00000  Uiso   1.00
O772   O     0.96042   0.22678   0.75000   0.00000  Uiso   1.00
O773   O     0.96039   0.10654   0.75001   0.00000  Uiso   1.00
O774   O     0.70628   0.22679   0.75000   0.00000  Uiso   1.00
C775   C     0.99974   0.08743   0.75010   0.00000  Uiso   1.00
C776   C     0.66694   0.24590   0.74986   0.00000  Uiso   1.00
O777   O     0.68519   0.16668   0.81492   0.00000  Uiso   1.00
O778   O     0.98148   0.16666   0.68509   0.00000  Uiso   1.00
O779   O     0.93933   0.16667   0.81492   0.00000  Uiso   1.00
O780   O     0.72733   0.16667   0.68508   0.00000  Uiso   1.00
C781   C     0.97241   0.16626   0.83606   0.00000  Uiso   1.00
C782   C     0.69445   0.16825   0.66387   0.00000  Uiso   1.00
Cu783  Cu    0.71355   0.16667   0.75000   0.00000  Uiso   1.00
Cu784  Cu    0.95311   0.16666   0.75000   0.00000  Uiso   1.00
C785   C     0.95720   0.16732   0.88526   0.00000  Uiso   1.00
C786   C     0.71107   0.17676   0.61502   0.00000  Uiso   1.00
C787   C     0.97589   0.16297   0.95619   0.00000  Uiso   1.00
C788   C     0.69768   0.20572   0.54722   0.00000  Uiso   1.00
C789   C     0.99080   0.16144   0.90962   0.00000  Uiso   1.00
C790   C     0.67967   0.19289   0.59214   0.00000  Uiso   1.00
C791   C     0.90882   0.17538   0.90798   0.00000  Uiso   1.00
C792   C     0.76061   0.17375   0.59234   0.00000  Uiso   1.00
C793   C     0.89416   0.18151   0.95448   0.00000  Uiso   1.00
C794   C     0.78002   0.18908   0.54798   0.00000  Uiso   1.00
C795   C     0.92781   0.17248   0.97877   0.00000  Uiso   1.00
C796   C     0.74736   0.20318   0.52478   0.00000  Uiso   1.00
C797   C     0.84630   0.19380   0.97784   0.00000  Uiso   1.00
C798   C     0.83065   0.18858   0.52541   0.00000  Uiso   1.00
C799   C     0.86637   0.18377   0.54862   0.00000  Uiso   1.00
C800   C     0.81367   0.21190   0.95612   0.00000  Uiso   1.00
C801   C     0.91369   0.17425   0.52525   0.00000  Uiso   1.00
C802   C     0.76468   0.21558   0.97977   0.00000  Uiso   1.00
H803   H     0.94006   0.16968   0.54364   0.00000  Uiso   1.00
H804   H     0.74001   0.22900   0.96297   0.00000  Uiso   1.00
H805   H     0.78356   0.15866   0.60962   0.00000  Uiso   1.00
H806   H     0.88275   0.17617   0.88902   0.00000  Uiso   1.00
H807   H     0.97483   0.19645   0.60918   0.00000  Uiso   1.00
H808   H     0.69502   0.15488   0.89281   0.00000  Uiso   1.00
H809   H     0.66875   0.15709   0.97455   0.00000  Uiso   1.00
H810   H     0.67291   0.21830   0.53010   0.00000  Uiso   1.00
C811   C     0.96447   0.02108   0.73606   0.00000  Uiso   1.00
C812   C     0.70239   0.31224   0.76363   0.00000  Uiso   1.00
H813   H     0.93731   0.03704   0.72451   0.00000  Uiso   1.00
H814   H     0.72966   0.29627   0.77504   0.00000  Uiso   1.00
C815   C     0.96476   0.31174   0.73594   0.00000  Uiso   1.00
C816   C     0.70205   0.02158   0.76382   0.00000  Uiso   1.00
H817   H     0.93742   0.29540   0.72469   0.00000  Uiso   1.00
H818   H     0.72941   0.03792   0.77506   0.00000  Uiso   1.00
C819   C     0.66711   0.29055   0.74967   0.00000  Uiso   1.00
C820   C     0.99966   0.04278   0.75015   0.00000  Uiso   1.00
C821   C     0.85068   0.13477   0.77002   0.00000  Uiso   1.00
C822   C     0.81584   0.19914   0.73097   0.00000  Uiso   1.00
C823   C     0.80158   0.13486   0.76935   0.00000  Uiso   1.00
C824   C     0.86516   0.19849   0.73078   0.00000  Uiso   1.00
H825   H     0.77730   0.10966   0.78543   0.00000  Uiso   1.00
H826   H     0.88949   0.22373   0.71494   0.00000  Uiso   1.00
N827   N     0.78403   0.16668   0.74999   0.00000  Uiso   1.00
N828   N     0.88264   0.16666   0.75001   0.00000  Uiso   1.00
N829   N     0.85837   0.19773   0.59338   0.00000  Uiso   1.00
O830   O     0.84783   0.23621   0.60112   0.00000  Uiso   1.00
O831   O     0.87374   0.17625   0.62223   0.00000  Uiso   1.00
N832   N     0.83036   0.23219   0.91272   0.00000  Uiso   1.00
O833   O     0.86826   0.25687   0.90342   0.00000  Uiso   1.00
O834   O     0.80394   0.23087   0.88502   0.00000  Uiso   1.00
N835   N     0.86566   0.10085   0.79261   0.00000  Uiso   1.00
O836   O     0.85672   0.06347   0.78231   0.00000  Uiso   1.00
O837   O     0.87400   0.10658   0.83099   0.00000  Uiso   1.00
N838   N     0.80027   0.23514   0.71195   0.00000  Uiso   1.00
O839   O     0.81514   0.27141   0.72024   0.00000  Uiso   1.00
O840   O     0.78085   0.23190   0.67925   0.00000  Uiso   1.00
O841   O     0.03958   0.43989   0.75000   0.00000  Uiso   1.00
O842   O     0.29375   0.56011   0.75000   0.00000  Uiso   1.00
O843   O     0.29372   0.43988   0.75001   0.00000  Uiso   1.00
O844   O     0.03961   0.56012   0.75000   0.00000  Uiso   1.00
C845   C     0.33308   0.42076   0.75010   0.00000  Uiso   1.00
C846   C     0.00027   0.57924   0.74986   0.00000  Uiso   1.00
O847   O     0.01852   0.50001   0.81492   0.00000  Uiso   1.00
O848   O     0.31481   0.49999   0.68509   0.00000  Uiso   1.00
O849   O     0.27267   0.50000   0.81492   0.00000  Uiso   1.00
O850   O     0.06067   0.50000   0.68508   0.00000  Uiso   1.00
C851   C     0.30575   0.49960   0.83606   0.00000  Uiso   1.00
C852   C     0.02778   0.50158   0.66387   0.00000  Uiso   1.00
Cu853  Cu    0.04689   0.50001   0.75000   0.00000  Uiso   1.00
Cu854  Cu    0.28645   0.49999   0.75000   0.00000  Uiso   1.00
C855   C     0.29054   0.50066   0.88526   0.00000  Uiso   1.00
C856   C     0.04441   0.51009   0.61502   0.00000  Uiso   1.00
C857   C     0.30922   0.49630   0.95619   0.00000  Uiso   1.00
C858   C     0.03101   0.53905   0.54722   0.00000  Uiso   1.00
C859   C     0.32414   0.49477   0.90962   0.00000  Uiso   1.00
C860   C     0.01301   0.52622   0.59214   0.00000  Uiso   1.00
C861   C     0.24215   0.50872   0.90798   0.00000  Uiso   1.00
C862   C     0.09394   0.50708   0.59234   0.00000  Uiso   1.00
C863   C     0.22750   0.51484   0.95448   0.00000  Uiso   1.00
C864   C     0.11335   0.52241   0.54798   0.00000  Uiso   1.00
C865   C     0.26114   0.50582   0.97877   0.00000  Uiso   1.00
C866   C     0.08069   0.53651   0.52478   0.00000  Uiso   1.00
C867   C     0.17963   0.52713   0.97784   0.00000  Uiso   1.00
C868   C     0.16398   0.52191   0.52541   0.00000  Uiso   1.00
C869   C     0.19970   0.51710   0.54862   0.00000  Uiso   1.00
C870   C     0.14700   0.54523   0.95612   0.00000  Uiso   1.00
C871   C     0.24703   0.50758   0.52525   0.00000  Uiso   1.00
C872   C     0.09801   0.54891   0.97977   0.00000  Uiso   1.00
H873   H     0.27340   0.50301   0.54364   0.00000  Uiso   1.00
H874   H     0.07335   0.56233   0.96297   0.00000  Uiso   1.00
H875   H     0.11689   0.49200   0.60962   0.00000  Uiso   1.00
H876   H     0.21608   0.50950   0.88902   0.00000  Uiso   1.00
H877   H     0.30817   0.52978   0.60918   0.00000  Uiso   1.00
H878   H     0.02835   0.48821   0.89281   0.00000  Uiso   1.00
H879   H     0.00209   0.49042   0.97455   0.00000  Uiso   1.00
H880   H     0.00625   0.55164   0.53010   0.00000  Uiso   1.00
C881   C     0.29781   0.35441   0.73606   0.00000  Uiso   1.00
C882   C     0.03572   0.64558   0.76363   0.00000  Uiso   1.00
H883   H     0.27064   0.37038   0.72451   0.00000  Uiso   1.00
H884   H     0.06299   0.62961   0.77504   0.00000  Uiso   1.00
C885   C     0.29809   0.64507   0.73594   0.00000  Uiso   1.00
C886   C     0.03539   0.35491   0.76382   0.00000  Uiso   1.00
H887   H     0.27075   0.62873   0.72469   0.00000  Uiso   1.00
H888   H     0.06274   0.37125   0.77506   0.00000  Uiso   1.00
C889   C     0.00044   0.62388   0.74967   0.00000  Uiso   1.00
C890   C     0.33299   0.37611   0.75015   0.00000  Uiso   1.00
C891   C     0.18401   0.46810   0.77002   0.00000  Uiso   1.00
C892   C     0.14917   0.53247   0.73097   0.00000  Uiso   1.00
C893   C     0.13491   0.46819   0.76935   0.00000  Uiso   1.00
C894   C     0.19849   0.53182   0.73078   0.00000  Uiso   1.00
H895   H     0.11064   0.44299   0.78543   0.00000  Uiso   1.00
H896   H     0.22283   0.55707   0.71494   0.00000  Uiso   1.00
N897   N     0.11736   0.50001   0.74999   0.00000  Uiso   1.00
N898   N     0.21597   0.49999   0.75001   0.00000  Uiso   1.00
N899   N     0.19170   0.53106   0.59338   0.00000  Uiso   1.00
O900   O     0.18116   0.56954   0.60112   0.00000  Uiso   1.00
O901   O     0.20707   0.50958   0.62223   0.00000  Uiso   1.00
N902   N     0.16369   0.56552   0.91272   0.00000  Uiso   1.00
O903   O     0.20160   0.59020   0.90342   0.00000  Uiso   1.00
O904   O     0.13727   0.56421   0.88502   0.00000  Uiso   1.00
N905   N     0.19899   0.43418   0.79261   0.00000  Uiso   1.00
O906   O     0.19005   0.39680   0.78231   0.00000  Uiso   1.00
O907   O     0.20733   0.43991   0.83099   0.00000  Uiso   1.00
N908   N     0.13360   0.56847   0.71195   0.00000  Uiso   1.00
O909   O     0.14848   0.60474   0.72024   0.00000  Uiso   1.00
O910   O     0.11418   0.56523   0.67925   0.00000  Uiso   1.00
O911   O     0.37291   0.43989   0.75000   0.00000  Uiso   1.00
O912   O     0.62709   0.56011   0.75000   0.00000  Uiso   1.00
O913   O     0.62706   0.43988   0.75001   0.00000  Uiso   1.00
O914   O     0.37294   0.56012   0.75000   0.00000  Uiso   1.00
C915   C     0.66641   0.42076   0.75010   0.00000  Uiso   1.00
C916   C     0.33360   0.57924   0.74986   0.00000  Uiso   1.00
O917   O     0.35186   0.50001   0.81492   0.00000  Uiso   1.00
O918   O     0.64814   0.49999   0.68509   0.00000  Uiso   1.00
O919   O     0.60600   0.50000   0.81492   0.00000  Uiso   1.00
O920   O     0.39400   0.50000   0.68508   0.00000  Uiso   1.00
C921   C     0.63908   0.49960   0.83606   0.00000  Uiso   1.00
C922   C     0.36111   0.50158   0.66387   0.00000  Uiso   1.00
Cu923  Cu    0.38022   0.50001   0.75000   0.00000  Uiso   1.00
Cu924  Cu    0.61978   0.49999   0.75000   0.00000  Uiso   1.00
C925   C     0.62387   0.50066   0.88526   0.00000  Uiso   1.00
C926   C     0.37774   0.51009   0.61502   0.00000  Uiso   1.00
C927   C     0.64255   0.49630   0.95619   0.00000  Uiso   1.00
C928   C     0.36435   0.53905   0.54722   0.00000  Uiso   1.00
C929   C     0.65747   0.49477   0.90962   0.00000  Uiso   1.00
C930   C     0.34634   0.52622   0.59214   0.00000  Uiso   1.00
C931   C     0.57548   0.50872   0.90798   0.00000  Uiso   1.00
C932   C     0.42727   0.50708   0.59234   0.00000  Uiso   1.00
C933   C     0.56083   0.51484   0.95448   0.00000  Uiso   1.00
C934   C     0.44668   0.52241   0.54798   0.00000  Uiso   1.00
C935   C     0.59448   0.50582   0.97877   0.00000  Uiso   1.00
C936   C     0.41402   0.53651   0.52478   0.00000  Uiso   1.00
C937   C     0.51297   0.52713   0.97784   0.00000  Uiso   1.00
C938   C     0.49731   0.52191   0.52541   0.00000  Uiso   1.00
C939   C     0.53303   0.51710   0.54862   0.00000  Uiso   1.00
C940   C     0.48033   0.54523   0.95612   0.00000  Uiso   1.00
C941   C     0.58036   0.50758   0.52525   0.00000  Uiso   1.00
C942   C     0.43135   0.54891   0.97977   0.00000  Uiso   1.00
H943   H     0.60673   0.50301   0.54364   0.00000  Uiso   1.00
H944   H     0.40668   0.56233   0.96297   0.00000  Uiso   1.00
H945   H     0.45023   0.49200   0.60962   0.00000  Uiso   1.00
H946   H     0.54942   0.50950   0.88902   0.00000  Uiso   1.00
H947   H     0.64150   0.52978   0.60918   0.00000  Uiso   1.00
H948   H     0.36169   0.48821   0.89281   0.00000  Uiso   1.00
H949   H     0.33542   0.49042   0.97455   0.00000  Uiso   1.00
H950   H     0.33958   0.55164   0.53010   0.00000  Uiso   1.00
C951   C     0.63114   0.35441   0.73606   0.00000  Uiso   1.00
C952   C     0.36905   0.64558   0.76363   0.00000  Uiso   1.00
H953   H     0.60397   0.37038   0.72451   0.00000  Uiso   1.00
H954   H     0.39632   0.62961   0.77504   0.00000  Uiso   1.00
C955   C     0.63143   0.64507   0.73594   0.00000  Uiso   1.00
C956   C     0.36872   0.35491   0.76382   0.00000  Uiso   1.00
H957   H     0.60408   0.62873   0.72469   0.00000  Uiso   1.00
H958   H     0.39607   0.37125   0.77506   0.00000  Uiso   1.00
C959   C     0.33377   0.62388   0.74967   0.00000  Uiso   1.00
C960   C     0.66632   0.37611   0.75015   0.00000  Uiso   1.00
C961   C     0.51735   0.46810   0.77002   0.00000  Uiso   1.00
C962   C     0.48251   0.53247   0.73097   0.00000  Uiso   1.00
C963   C     0.46825   0.46819   0.76935   0.00000  Uiso   1.00
C964   C     0.53182   0.53182   0.73078   0.00000  Uiso   1.00
H965   H     0.44397   0.44299   0.78543   0.00000  Uiso   1.00
H966   H     0.55616   0.55707   0.71494   0.00000  Uiso   1.00
N967   N     0.45069   0.50001   0.74999   0.00000  Uiso   1.00
N968   N     0.54931   0.49999   0.75001   0.00000  Uiso   1.00
N969   N     0.52503   0.53106   0.59338   0.00000  Uiso   1.00
O970   O     0.51449   0.56954   0.60112   0.00000  Uiso   1.00
O971   O     0.54040   0.50958   0.62223   0.00000  Uiso   1.00
N972   N     0.49702   0.56552   0.91272   0.00000  Uiso   1.00
O973   O     0.53493   0.59020   0.90342   0.00000  Uiso   1.00
O974   O     0.47060   0.56421   0.88502   0.00000  Uiso   1.00
N975   N     0.53232   0.43418   0.79261   0.00000  Uiso   1.00
O976   O     0.52338   0.39680   0.78231   0.00000  Uiso   1.00
O977   O     0.54066   0.43991   0.83099   0.00000  Uiso   1.00
N978   N     0.46693   0.56847   0.71195   0.00000  Uiso   1.00
O979   O     0.48181   0.60474   0.72024   0.00000  Uiso   1.00
O980   O     0.44752   0.56523   0.67925   0.00000  Uiso   1.00
O981   O     0.70625   0.43989   0.75000   0.00000  Uiso   1.00
O982   O     0.96042   0.56011   0.75000   0.00000  Uiso   1.00
O983   O     0.96039   0.43988   0.75001   0.00000  Uiso   1.00
O984   O     0.70628   0.56012   0.75000   0.00000  Uiso   1.00
C985   C     0.99974   0.42076   0.75010   0.00000  Uiso   1.00
C986   C     0.66694   0.57924   0.74986   0.00000  Uiso   1.00
O987   O     0.68519   0.50001   0.81492   0.00000  Uiso   1.00
O988   O     0.98148   0.49999   0.68509   0.00000  Uiso   1.00
O989   O     0.93933   0.50000   0.81492   0.00000  Uiso   1.00
O990   O     0.72733   0.50000   0.68508   0.00000  Uiso   1.00
C991   C     0.97241   0.49960   0.83606   0.00000  Uiso   1.00
C992   C     0.69445   0.50158   0.66387   0.00000  Uiso   1.00
Cu993  Cu    0.71355   0.50001   0.75000   0.00000  Uiso   1.00
Cu994  Cu    0.95311   0.49999   0.75000   0.00000  Uiso   1.00
C995   C     0.95720   0.50066   0.88526   0.00000  Uiso   1.00
C996   C     0.71107   0.51009   0.61502   0.00000  Uiso   1.00
C997   C     0.97589   0.49630   0.95619   0.00000  Uiso   1.00
C998   C     0.69768   0.53905   0.54722   0.00000  Uiso   1.00
C999   C     0.99080   0.49477   0.90962   0.00000  Uiso   1.00
C1000  C     0.67967   0.52622   0.59214   0.00000  Uiso   1.00
C1001  C     0.90882   0.50872   0.90798   0.00000  Uiso   1.00
C1002  C     0.76061   0.50708   0.59234   0.00000  Uiso   1.00
C1003  C     0.89416   0.51484   0.95448   0.00000  Uiso   1.00
C1004  C     0.78002   0.52241   0.54798   0.00000  Uiso   1.00
C1005  C     0.92781   0.50582   0.97877   0.00000  Uiso   1.00
C1006  C     0.74736   0.53651   0.52478   0.00000  Uiso   1.00
C1007  C     0.84630   0.52713   0.97784   0.00000  Uiso   1.00
C1008  C     0.83065   0.52191   0.52541   0.00000  Uiso   1.00
C1009  C     0.86637   0.51710   0.54862   0.00000  Uiso   1.00
C1010  C     0.81367   0.54523   0.95612   0.00000  Uiso   1.00
C1011  C     0.91369   0.50758   0.52525   0.00000  Uiso   1.00
C1012  C     0.76468   0.54891   0.97977   0.00000  Uiso   1.00
H1013  H     0.94006   0.50301   0.54364   0.00000  Uiso   1.00
H1014  H     0.74001   0.56233   0.96297   0.00000  Uiso   1.00
H1015  H     0.78356   0.49200   0.60962   0.00000  Uiso   1.00
H1016  H     0.88275   0.50950   0.88902   0.00000  Uiso   1.00
H1017  H     0.97483   0.52978   0.60918   0.00000  Uiso   1.00
H1018  H     0.69502   0.48821   0.89281   0.00000  Uiso   1.00
H1019  H     0.66875   0.49042   0.97455   0.00000  Uiso   1.00
H1020  H     0.67291   0.55164   0.53010   0.00000  Uiso   1.00
C1021  C     0.96447   0.35441   0.73606   0.00000  Uiso   1.00
C1022  C     0.70239   0.64558   0.76363   0.00000  Uiso   1.00
H1023  H     0.93731   0.37038   0.72451   0.00000  Uiso   1.00
H1024  H     0.72966   0.62961   0.77504   0.00000  Uiso   1.00
C1025  C     0.96476   0.64507   0.73594   0.00000  Uiso   1.00
C1026  C     0.70205   0.35491   0.76382   0.00000  Uiso   1.00
H1027  H     0.93742   0.62873   0.72469   0.00000  Uiso   1.00
H1028  H     0.72941   0.37125   0.77506   0.00000  Uiso   1.00
C1029  C     0.66711   0.62388   0.74967   0.00000  Uiso   1.00
C1030  C     0.99966   0.37611   0.75015   0.00000  Uiso   1.00
C1031  C     0.85068   0.46810   0.77002   0.00000  Uiso   1.00
C1032  C     0.81584   0.53247   0.73097   0.00000  Uiso   1.00
C1033  C     0.80158   0.46819   0.76935   0.00000  Uiso   1.00
C1034  C     0.86516   0.53182   0.73078   0.00000  Uiso   1.00
H1035  H     0.77730   0.44299   0.78543   0.00000  Uiso   1.00
H1036  H     0.88949   0.55707   0.71494   0.00000  Uiso   1.00
N1037  N     0.78403   0.50001   0.74999   0.00000  Uiso   1.00
N1038  N     0.88264   0.49999   0.75001   0.00000  Uiso   1.00
N1039  N     0.85837   0.53106   0.59338   0.00000  Uiso   1.00
O1040  O     0.84783   0.56954   0.60112   0.00000  Uiso   1.00
O1041  O     0.87374   0.50958   0.62223   0.00000  Uiso   1.00
N1042  N     0.83036   0.56552   0.91272   0.00000  Uiso   1.00
O1043  O     0.86826   0.59020   0.90342   0.00000  Uiso   1.00
O1044  O     0.80394   0.56421   0.88502   0.00000  Uiso   1.00
N1045  N     0.86566   0.43418   0.79261   0.00000  Uiso   1.00
O1046  O     0.85672   0.39680   0.78231   0.00000  Uiso   1.00
O1047  O     0.87400   0.43991   0.83099   0.00000  Uiso   1.00
N1048  N     0.80027   0.56847   0.71195   0.00000  Uiso   1.00
O1049  O     0.81514   0.60474   0.72024   0.00000  Uiso   1.00
O1050  O     0.78085   0.56523   0.67925   0.00000  Uiso   1.00
O1051  O     0.03958   0.77322   0.75000   0.00000  Uiso   1.00
O1052  O     0.29375   0.89345   0.75000   0.00000  Uiso   1.00
O1053  O     0.29372   0.77321   0.75001   0.00000  Uiso   1.00
O1054  O     0.03961   0.89346   0.75000   0.00000  Uiso   1.00
C1055  C     0.33308   0.75409   0.75010   0.00000  Uiso   1.00
C1056  C     0.00027   0.91257   0.74986   0.00000  Uiso   1.00
O1057  O     0.01852   0.83334   0.81492   0.00000  Uiso   1.00
O1058  O     0.31481   0.83332   0.68509   0.00000  Uiso   1.00
O1059  O     0.27267   0.83333   0.81492   0.00000  Uiso   1.00
O1060  O     0.06067   0.83333   0.68508   0.00000  Uiso   1.00
C1061  C     0.30575   0.83293   0.83606   0.00000  Uiso   1.00
C1062  C     0.02778   0.83492   0.66387   0.00000  Uiso   1.00
Cu1063 Cu    0.04689   0.83334   0.75000   0.00000  Uiso   1.00
Cu1064 Cu    0.28645   0.83333   0.75000   0.00000  Uiso   1.00
C1065  C     0.29054   0.83399   0.88526   0.00000  Uiso   1.00
C1066  C     0.04441   0.84342   0.61502   0.00000  Uiso   1.00
C1067  C     0.30922   0.82964   0.95619   0.00000  Uiso   1.00
C1068  C     0.03101   0.87239   0.54722   0.00000  Uiso   1.00
C1069  C     0.32414   0.82810   0.90962   0.00000  Uiso   1.00
C1070  C     0.01301   0.85956   0.59214   0.00000  Uiso   1.00
C1071  C     0.24215   0.84205   0.90798   0.00000  Uiso   1.00
C1072  C     0.09394   0.84041   0.59234   0.00000  Uiso   1.00
C1073  C     0.22750   0.84818   0.95448   0.00000  Uiso   1.00
C1074  C     0.11335   0.85575   0.54798   0.00000  Uiso   1.00
C1075  C     0.26114   0.83915   0.97877   0.00000  Uiso   1.00
C1076  C     0.08069   0.86984   0.52478   0.00000  Uiso   1.00
C1077  C     0.17963   0.86047   0.97784   0.00000  Uiso   1.00
C1078  C     0.16398   0.85524   0.52541   0.00000  Uiso   1.00
C1079  C     0.19970   0.85043   0.54862   0.00000  Uiso   1.00
C1080  C     0.14700   0.87856   0.95612   0.00000  Uiso   1.00
C1081  C     0.24703   0.84091   0.52525   0.00000  Uiso   1.00
C1082  C     0.09801   0.88225   0.97977   0.00000  Uiso   1.00
H1083  H     0.27340   0.83635   0.54364   0.00000  Uiso   1.00
H1084  H     0.07335   0.89566   0.96297   0.00000  Uiso   1.00
H1085  H     0.11689   0.82533   0.60962   0.00000  Uiso   1.00
H1086  H     0.21608   0.84283   0.88902   0.00000  Uiso   1.00
H1087  H     0.30817   0.86311   0.60918   0.00000  Uiso   1.00
H1088  H     0.02835   0.82154   0.89281   0.00000  Uiso   1.00
H1089  H     0.00209   0.82375   0.97455   0.00000  Uiso   1.00
H1090  H     0.00625   0.88497   0.53010   0.00000  Uiso   1.00
C1091  C     0.29781   0.68774   0.73606   0.00000  Uiso   1.00
C1092  C     0.03572   0.97891   0.76363   0.00000  Uiso   1.00
H1093  H     0.27064   0.70371   0.72451   0.00000  Uiso   1.00
H1094  H     0.06299   0.96294   0.77504   0.00000  Uiso   1.00
C1095  C     0.29809   0.97840   0.73594   0.00000  Uiso   1.00
C1096  C     0.03539   0.68825   0.76382   0.00000  Uiso   1.00
H1097  H     0.27075   0.96206   0.72469   0.00000  Uiso   1.00
H1098  H     0.06274   0.70458   0.77506   0.00000  Uiso   1.00
C1099  C     0.00044   0.95721   0.74967   0.00000  Uiso   1.00
C1100  C     0.33299   0.70944   0.75015   0.00000  Uiso   1.00
C1101  C     0.18401   0.80144   0.77002   0.00000  Uiso   1.00
C1102  C     0.14917   0.86580   0.73097   0.00000  Uiso   1.00
C1103  C     0.13491   0.80153   0.76935   0.00000  Uiso   1.00
C1104  C     0.19849   0.86516   0.73078   0.00000  Uiso   1.00
H1105  H     0.11064   0.77633   0.78543   0.00000  Uiso   1.00
H1106  H     0.22283   0.89040   0.71494   0.00000  Uiso   1.00
N1107  N     0.11736   0.83334   0.74999   0.00000  Uiso   1.00
N1108  N     0.21597   0.83332   0.75001   0.00000  Uiso   1.00
N1109  N     0.19170   0.86439   0.59338   0.00000  Uiso   1.00
O1110  O     0.18116   0.90287   0.60112   0.00000  Uiso   1.00
O1111  O     0.20707   0.84292   0.62223   0.00000  Uiso   1.00
N1112  N     0.16369   0.89886   0.91272   0.00000  Uiso   1.00
O1113  O     0.20160   0.92354   0.90342   0.00000  Uiso   1.00
O1114  O     0.13727   0.89754   0.88502   0.00000  Uiso   1.00
N1115  N     0.19899   0.76752   0.79261   0.00000  Uiso   1.00
O1116  O     0.19005   0.73014   0.78231   0.00000  Uiso   1.00
O1117  O     0.20733   0.77325   0.83099   0.00000  Uiso   1.00
N1118  N     0.13360   0.90180   0.71195   0.00000  Uiso   1.00
O1119  O     0.14848   0.93807   0.72024   0.00000  Uiso   1.00
O1120  O     0.11418   0.89856   0.67925   0.00000  Uiso   1.00
O1121  O     0.37291   0.77322   0.75000   0.00000  Uiso   1.00
O1122  O     0.62709   0.89345   0.75000   0.00000  Uiso   1.00
O1123  O     0.62706   0.77321   0.75001   0.00000  Uiso   1.00
O1124  O     0.37294   0.89346   0.75000   0.00000  Uiso   1.00
C1125  C     0.66641   0.75409   0.75010   0.00000  Uiso   1.00
C1126  C     0.33360   0.91257   0.74986   0.00000  Uiso   1.00
O1127  O     0.35186   0.83334   0.81492   0.00000  Uiso   1.00
O1128  O     0.64814   0.83332   0.68509   0.00000  Uiso   1.00
O1129  O     0.60600   0.83333   0.81492   0.00000  Uiso   1.00
O1130  O     0.39400   0.83333   0.68508   0.00000  Uiso   1.00
C1131  C     0.63908   0.83293   0.83606   0.00000  Uiso   1.00
C1132  C     0.36111   0.83492   0.66387   0.00000  Uiso   1.00
Cu1133 Cu    0.38022   0.83334   0.75000   0.00000  Uiso   1.00
Cu1134 Cu    0.61978   0.83333   0.75000   0.00000  Uiso   1.00
C1135  C     0.62387   0.83399   0.88526   0.00000  Uiso   1.00
C1136  C     0.37774   0.84342   0.61502   0.00000  Uiso   1.00
C1137  C     0.64255   0.82964   0.95619   0.00000  Uiso   1.00
C1138  C     0.36435   0.87239   0.54722   0.00000  Uiso   1.00
C1139  C     0.65747   0.82810   0.90962   0.00000  Uiso   1.00
C1140  C     0.34634   0.85956   0.59214   0.00000  Uiso   1.00
C1141  C     0.57548   0.84205   0.90798   0.00000  Uiso   1.00
C1142  C     0.42727   0.84041   0.59234   0.00000  Uiso   1.00
C1143  C     0.56083   0.84818   0.95448   0.00000  Uiso   1.00
C1144  C     0.44668   0.85575   0.54798   0.00000  Uiso   1.00
C1145  C     0.59448   0.83915   0.97877   0.00000  Uiso   1.00
C1146  C     0.41402   0.86984   0.52478   0.00000  Uiso   1.00
C1147  C     0.51297   0.86047   0.97784   0.00000  Uiso   1.00
C1148  C     0.49731   0.85524   0.52541   0.00000  Uiso   1.00
C1149  C     0.53303   0.85043   0.54862   0.00000  Uiso   1.00
C1150  C     0.48033   0.87856   0.95612   0.00000  Uiso   1.00
C1151  C     0.58036   0.84091   0.52525   0.00000  Uiso   1.00
C1152  C     0.43135   0.88225   0.97977   0.00000  Uiso   1.00
H1153  H     0.60673   0.83635   0.54364   0.00000  Uiso   1.00
H1154  H     0.40668   0.89566   0.96297   0.00000  Uiso   1.00
H1155  H     0.45023   0.82533   0.60962   0.00000  Uiso   1.00
H1156  H     0.54942   0.84283   0.88902   0.00000  Uiso   1.00
H1157  H     0.64150   0.86311   0.60918   0.00000  Uiso   1.00
H1158  H     0.36169   0.82154   0.89281   0.00000  Uiso   1.00
H1159  H     0.33542   0.82375   0.97455   0.00000  Uiso   1.00
H1160  H     0.33958   0.88497   0.53010   0.00000  Uiso   1.00
C1161  C     0.63114   0.68774   0.73606   0.00000  Uiso   1.00
C1162  C     0.36905   0.97891   0.76363   0.00000  Uiso   1.00
H1163  H     0.60397   0.70371   0.72451   0.00000  Uiso   1.00
H1164  H     0.39632   0.96294   0.77504   0.00000  Uiso   1.00
C1165  C     0.63143   0.97840   0.73594   0.00000  Uiso   1.00
C1166  C     0.36872   0.68825   0.76382   0.00000  Uiso   1.00
H1167  H     0.60408   0.96206   0.72469   0.00000  Uiso   1.00
H1168  H     0.39607   0.70458   0.77506   0.00000  Uiso   1.00
C1169  C     0.33377   0.95721   0.74967   0.00000  Uiso   1.00
C1170  C     0.66632   0.70944   0.75015   0.00000  Uiso   1.00
C1171  C     0.51735   0.80144   0.77002   0.00000  Uiso   1.00
C1172  C     0.48251   0.86580   0.73097   0.00000  Uiso   1.00
C1173  C     0.46825   0.80153   0.76935   0.00000  Uiso   1.00
C1174  C     0.53182   0.86516   0.73078   0.00000  Uiso   1.00
H1175  H     0.44397   0.77633   0.78543   0.00000  Uiso   1.00
H1176  H     0.55616   0.89040   0.71494   0.00000  Uiso   1.00
N1177  N     0.45069   0.83334   0.74999   0.00000  Uiso   1.00
N1178  N     0.54931   0.83332   0.75001   0.00000  Uiso   1.00
N1179  N     0.52503   0.86439   0.59338   0.00000  Uiso   1.00
O1180  O     0.51449   0.90287   0.60112   0.00000  Uiso   1.00
O1181  O     0.54040   0.84292   0.62223   0.00000  Uiso   1.00
N1182  N     0.49702   0.89886   0.91272   0.00000  Uiso   1.00
O1183  O     0.53493   0.92354   0.90342   0.00000  Uiso   1.00
O1184  O     0.47060   0.89754   0.88502   0.00000  Uiso   1.00
N1185  N     0.53232   0.76752   0.79261   0.00000  Uiso   1.00
O1186  O     0.52338   0.73014   0.78231   0.00000  Uiso   1.00
O1187  O     0.54066   0.77325   0.83099   0.00000  Uiso   1.00
N1188  N     0.46693   0.90180   0.71195   0.00000  Uiso   1.00
O1189  O     0.48181   0.93807   0.72024   0.00000  Uiso   1.00
O1190  O     0.44752   0.89856   0.67925   0.00000  Uiso   1.00
O1191  O     0.70625   0.77322   0.75000   0.00000  Uiso   1.00
O1192  O     0.96042   0.89345   0.75000   0.00000  Uiso   1.00
O1193  O     0.96039   0.77321   0.75001   0.00000  Uiso   1.00
O1194  O     0.70628   0.89346   0.75000   0.00000  Uiso   1.00
C1195  C     0.99974   0.75409   0.75010   0.00000  Uiso   1.00
C1196  C     0.66694   0.91257   0.74986   0.00000  Uiso   1.00
O1197  O     0.68519   0.83334   0.81492   0.00000  Uiso   1.00
O1198  O     0.98148   0.83332   0.68509   0.00000  Uiso   1.00
O1199  O     0.93933   0.83333   0.81492   0.00000  Uiso   1.00
O1200  O     0.72733   0.83333   0.68508   0.00000  Uiso   1.00
C1201  C     0.97241   0.83293   0.83606   0.00000  Uiso   1.00
C1202  C     0.69445   0.83492   0.66387   0.00000  Uiso   1.00
Cu1203 Cu    0.71355   0.83334   0.75000   0.00000  Uiso   1.00
Cu1204 Cu    0.95311   0.83333   0.75000   0.00000  Uiso   1.00
C1205  C     0.95720   0.83399   0.88526   0.00000  Uiso   1.00
C1206  C     0.71107   0.84342   0.61502   0.00000  Uiso   1.00
C1207  C     0.97589   0.82964   0.95619   0.00000  Uiso   1.00
C1208  C     0.69768   0.87239   0.54722   0.00000  Uiso   1.00
C1209  C     0.99080   0.82810   0.90962   0.00000  Uiso   1.00
C1210  C     0.67967   0.85956   0.59214   0.00000  Uiso   1.00
C1211  C     0.90882   0.84205   0.90798   0.00000  Uiso   1.00
C1212  C     0.76061   0.84041   0.59234   0.00000  Uiso   1.00
C1213  C     0.89416   0.84818   0.95448   0.00000  Uiso   1.00
C1214  C     0.78002   0.85575   0.54798   0.00000  Uiso   1.00
C1215  C     0.92781   0.83915   0.97877   0.00000  Uiso   1.00
C1216  C     0.74736   0.86984   0.52478   0.00000  Uiso   1.00
C1217  C     0.84630   0.86047   0.97784   0.00000  Uiso   1.00
C1218  C     0.83065   0.85524   0.52541   0.00000  Uiso   1.00
C1219  C     0.86637   0.85043   0.54862   0.00000  Uiso   1.00
C1220  C     0.81367   0.87856   0.95612   0.00000  Uiso   1.00
C1221  C     0.91369   0.84091   0.52525   0.00000  Uiso   1.00
C1222  C     0.76468   0.88225   0.97977   0.00000  Uiso   1.00
H1223  H     0.94006   0.83635   0.54364   0.00000  Uiso   1.00
H1224  H     0.74001   0.89566   0.96297   0.00000  Uiso   1.00
H1225  H     0.78356   0.82533   0.60962   0.00000  Uiso   1.00
H1226  H     0.88275   0.84283   0.88902   0.00000  Uiso   1.00
H1227  H     0.97483   0.86311   0.60918   0.00000  Uiso   1.00
H1228  H     0.69502   0.82154   0.89281   0.00000  Uiso   1.00
H1229  H     0.66875   0.82375   0.97455   0.00000  Uiso   1.00
H1230  H     0.67291   0.88497   0.53010   0.00000  Uiso   1.00
C1231  C     0.96447   0.68774   0.73606   0.00000  Uiso   1.00
C1232  C     0.70239   0.97891   0.76363   0.00000  Uiso   1.00
H1233  H     0.93731   0.70371   0.72451   0.00000  Uiso   1.00
H1234  H     0.72966   0.96294   0.77504   0.00000  Uiso   1.00
C1235  C     0.96476   0.97840   0.73594   0.00000  Uiso   1.00
C1236  C     0.70205   0.68825   0.76382   0.00000  Uiso   1.00
H1237  H     0.93742   0.96206   0.72469   0.00000  Uiso   1.00
H1238  H     0.72941   0.70458   0.77506   0.00000  Uiso   1.00
C1239  C     0.66711   0.95721   0.74967   0.00000  Uiso   1.00
C1240  C     0.99966   0.70944   0.75015   0.00000  Uiso   1.00
C1241  C     0.85068   0.80144   0.77002   0.00000  Uiso   1.00
C1242  C     0.81584   0.86580   0.73097   0.00000  Uiso   1.00
C1243  C     0.80158   0.80153   0.76935   0.00000  Uiso   1.00
C1244  C     0.86516   0.86516   0.73078   0.00000  Uiso   1.00
H1245  H     0.77730   0.77633   0.78543   0.00000  Uiso   1.00
H1246  H     0.88949   0.89040   0.71494   0.00000  Uiso   1.00
N1247  N     0.78403   0.83334   0.74999   0.00000  Uiso   1.00
N1248  N     0.88264   0.83332   0.75001   0.00000  Uiso   1.00
N1249  N     0.85837   0.86439   0.59338   0.00000  Uiso   1.00
O1250  O     0.84783   0.90287   0.60112   0.00000  Uiso   1.00
O1251  O     0.87374   0.84292   0.62223   0.00000  Uiso   1.00
N1252  N     0.83036   0.89886   0.91272   0.00000  Uiso   1.00
O1253  O     0.86826   0.92354   0.90342   0.00000  Uiso   1.00
O1254  O     0.80394   0.89754   0.88502   0.00000  Uiso   1.00
N1255  N     0.86566   0.76752   0.79261   0.00000  Uiso   1.00
O1256  O     0.85672   0.73014   0.78231   0.00000  Uiso   1.00
O1257  O     0.87400   0.77325   0.83099   0.00000  Uiso   1.00
N1258  N     0.80027   0.90180   0.71195   0.00000  Uiso   1.00
O1259  O     0.81514   0.93807   0.72024   0.00000  Uiso   1.00
O1260  O     0.78085   0.89856   0.67925   0.00000  Uiso   1.00
loop_
_geom_bond_atom_site_label_1
_geom_bond_atom_site_label_2
_geom_bond_distance
_geom_bond_site_symmetry_2
_ccdc_geom_bond_type
O1     Cu13    1.958   .     S
O1     C145    1.293   1_455 S
O2     Cu14    1.958   .     S
O2     C76     1.293   .     S
O3     Cu14    1.964   .     S
O3     C5      1.299   .     A
O4     C6      1.299   .     A
O4     Cu13    1.964   .     S
C5     C50     1.448   .     S
C5     O71     1.293   .     S
C6     C49     1.448   .     S
C6     O142    1.293   1_455 S
O7     Cu13    1.949   .     S
O7     C151    1.300   1_455 S
O8     Cu14    1.949   .     S
O8     C82     1.305   .     S
O9     Cu14    1.943   .     S
O9     C11     1.302   .     A
O10    C12     1.299   .     A
O10    Cu13    1.943   .     S
C11    C15     1.467   .     S
C11    O77     1.300   .     S
C12    C16     1.474   .     S
C12    O148    1.305   1_455 S
Cu13   N57     2.026   .     S
Cu13   Cu154   2.696   1_455 S
Cu14   N58     2.026   .     S
Cu14   Cu83    2.696   .     S
C15    C21     1.400   .     A
C15    C19     1.400   .     A
C16    C20     1.400   .     A
C16    C22     1.403   .     A
C17    C25     1.402   .     A
C17    C19     1.390   .     A
C17    H109    1.084   .     S
C18    C20     1.395   .     A
C18    H40     1.083   .     S
C18    C26     1.403   .     A
C19    H108    1.083   .     S
C20    H177    1.083   1_455 S
C21    H36     1.078   .     S
C21    C23     1.405   .     A
C22    H35     1.079   .     S
C22    C24     1.408   .     A
C23    C27     1.427   .     A
C23    C25     1.417   .     A
C24    C26     1.413   .     A
C24    C28     1.424   .     A
C25    C661    1.388   .     S
C26    C662    1.393   1_554 S
C27    C30     1.429   .     A
C27    C658    1.423   .     S
C28    C29     1.422   .     A
C28    C657    1.423   1_554 S
C29    C31     1.390   .     A
C29    N59     1.429   .     S
C30    N62     1.437   .     S
C30    C32     1.398   .     A
C31    H33     1.082   .     S
C31    C655    1.388   1_554 S
C32    H34     1.085   .     S
C32    C656    1.393   .     S
H37    C90     1.083   .     S
H38    C159    1.083   1_455 S
H39    C157    1.084   1_455 S
C41    H43     1.083   .     S
C41    C50     1.398   .     A
C41    C465    1.384   1_545 S
C42    H44     1.083   .     S
C42    C49     1.398   .     A
C42    C256    1.384   .     S
C45    H47     1.083   .     S
C45    C251    1.384   .     S
C45    C119    1.402   .     S
C46    H48     1.083   .     S
C46    C462    1.384   1_545 S
C46    C190    1.402   1_455 S
C49    C185    1.402   1_455 S
C50    C116    1.402   .     S
C51    N65     1.429   .     S
C51    N58     1.384   .     A
C51    C53     1.418   .     A
C52    N68     1.432   .     S
C52    N57     1.389   .     A
C52    C54     1.417   .     A
C53    H55     1.082   .     S
C53    N57     1.358   .     A
C54    H56     1.082   .     S
C54    N58     1.355   .     A
N59    O60     1.300   .     A
N59    O61     1.301   .     A
N62    O63     1.302   .     A
N62    O64     1.302   .     A
N65    O66     1.301   .     A
N65    O67     1.299   .     A
N68    O70     1.297   .     A
N68    O69     1.301   .     A
O71    Cu83    1.958   .     S
O72    Cu84    1.958   .     S
O72    C146    1.293   .     S
O73    Cu84    1.964   .     S
O73    C75     1.299   .     A
O74    C76     1.299   .     A
O74    Cu83    1.964   .     S
C75    C120    1.448   .     S
C75    O141    1.293   .     S
C76    C119    1.448   .     S
O77    Cu83    1.949   .     S
O78    Cu84    1.949   .     S
O78    C152    1.305   .     S
O79    Cu84    1.943   .     S
O79    C81     1.302   .     A
O80    C82     1.299   .     A
O80    Cu83    1.943   .     S
C81    C85     1.467   .     S
C81    O147    1.300   .     S
C82    C86     1.474   .     S
Cu83   N127    2.026   .     S
Cu84   N128    2.026   .     S
Cu84   Cu153   2.696   .     S
C85    C91     1.400   .     A
C85    C89     1.400   .     A
C86    C90     1.400   .     A
C86    C92     1.403   .     A
C87    C95     1.402   .     A
C87    C89     1.390   .     A
C87    H179    1.084   .     S
C88    C90     1.395   .     A
C88    H110    1.083   .     S
C88    C96     1.403   .     A
C89    H178    1.083   .     S
C91    H106    1.078   .     S
C91    C93     1.405   .     A
C92    H105    1.079   .     S
C92    C94     1.408   .     A
C93    C97     1.427   .     A
C93    C95     1.417   .     A
C94    C96     1.413   .     A
C94    C98     1.424   .     A
C95    C731    1.388   .     S
C96    C732    1.393   1_554 S
C97    C100    1.429   .     A
C97    C728    1.423   .     S
C98    C99     1.422   .     A
C98    C727    1.423   1_554 S
C99    C101    1.390   .     A
C99    N129    1.429   .     S
C100   N132    1.437   .     S
C100   C102    1.398   .     A
C101   H103    1.082   .     S
C101   C725    1.388   1_554 S
C102   H104    1.085   .     S
C102   C726    1.393   .     S
H107   C160    1.083   .     S
C111   H113    1.083   .     S
C111   C120    1.398   .     A
C111   C535    1.384   1_545 S
C112   H114    1.083   .     S
C112   C119    1.398   .     A
C112   C326    1.384   .     S
C115   H117    1.083   .     S
C115   C321    1.384   .     S
C115   C189    1.402   .     S
C116   H118    1.083   .     S
C116   C532    1.384   1_545 S
C120   C186    1.402   .     S
C121   N135    1.429   .     S
C121   N128    1.384   .     A
C121   C123    1.418   .     A
C122   N138    1.432   .     S
C122   N127    1.389   .     A
C122   C124    1.417   .     A
C123   H125    1.082   .     S
C123   N127    1.358   .     A
C124   H126    1.082   .     S
C124   N128    1.355   .     A
N129   O130    1.300   .     A
N129   O131    1.301   .     A
N132   O133    1.302   .     A
N132   O134    1.302   .     A
N135   O136    1.301   .     A
N135   O137    1.299   .     A
N138   O140    1.297   .     A
N138   O139    1.301   .     A
O141   Cu153   1.958   .     S
O142   Cu154   1.958   .     S
O142   C6      1.293   1_655 S
O143   Cu154   1.964   .     S
O143   C145    1.299   .     A
O144   C146    1.299   .     A
O144   Cu153   1.964   .     S
C145   C190    1.448   .     S
C145   O1      1.293   1_655 S
C146   C189    1.448   .     S
O147   Cu153   1.949   .     S
O148   Cu154   1.949   .     S
O148   C12     1.305   1_655 S
O149   Cu154   1.943   .     S
O149   C151    1.302   .     A
O150   C152    1.299   .     A
O150   Cu153   1.943   .     S
C151   C155    1.467   .     S
C151   O7      1.300   1_655 S
C152   C156    1.474   .     S
Cu153  N197    2.026   .     S
Cu154  N198    2.026   .     S
Cu154  Cu13    2.696   1_655 S
C155   C161    1.400   .     A
C155   C159    1.400   .     A
C156   C160    1.400   .     A
C156   C162    1.403   .     A
C157   C165    1.402   .     A
C157   C159    1.390   .     A
C157   H39     1.084   1_655 S
C158   C160    1.395   .     A
C158   H180    1.083   .     S
C158   C166    1.403   .     A
C159   H38     1.083   1_655 S
C161   H176    1.078   .     S
C161   C163    1.405   .     A
C162   H175    1.079   .     S
C162   C164    1.408   .     A
C163   C167    1.427   .     A
C163   C165    1.417   .     A
C164   C166    1.413   .     A
C164   C168    1.424   .     A
C165   C801    1.388   .     S
C166   C802    1.393   1_554 S
C167   C170    1.429   .     A
C167   C798    1.423   .     S
C168   C169    1.422   .     A
C168   C797    1.423   1_554 S
C169   C171    1.390   .     A
C169   N199    1.429   .     S
C170   N202    1.437   .     S
C170   C172    1.398   .     A
C171   H173    1.082   .     S
C171   C795    1.388   1_554 S
C172   H174    1.085   .     S
C172   C796    1.393   .     S
H177   C20     1.083   1_655 S
C181   H183    1.083   .     S
C181   C190    1.398   .     A
C181   C605    1.384   1_545 S
C182   H184    1.083   .     S
C182   C189    1.398   .     A
C182   C396    1.384   .     S
C185   H187    1.083   .     S
C185   C391    1.384   .     S
C185   C49     1.402   1_655 S
C186   H188    1.083   .     S
C186   C602    1.384   1_545 S
C190   C46     1.402   1_655 S
C191   N205    1.429   .     S
C191   N198    1.384   .     A
C191   C193    1.418   .     A
C192   N208    1.432   .     S
C192   N197    1.389   .     A
C192   C194    1.417   .     A
C193   H195    1.082   .     S
C193   N197    1.358   .     A
C194   H196    1.082   .     S
C194   N198    1.355   .     A
N199   O200    1.300   .     A
N199   O201    1.301   .     A
N202   O203    1.302   .     A
N202   O204    1.302   .     A
N205   O206    1.301   .     A
N205   O207    1.299   .     A
N208   O210    1.297   .     A
N208   O209    1.301   .     A
O211   Cu223   1.958   .     S
O211   C355    1.293   1_455 S
O212   Cu224   1.958   .     S
O212   C286    1.293   .     S
O213   Cu224   1.964   .     S
O213   C215    1.299   .     A
O214   C216    1.299   .     A
O214   Cu223   1.964   .     S
C215   C260    1.448   .     S
C215   O281    1.293   .     S
C216   C259    1.448   .     S
C216   O352    1.293   1_455 S
O217   Cu223   1.949   .     S
O217   C361    1.300   1_455 S
O218   Cu224   1.949   .     S
O218   C292    1.305   .     S
O219   Cu224   1.943   .     S
O219   C221    1.302   .     A
O220   C222    1.299   .     A
O220   Cu223   1.943   .     S
C221   C225    1.467   .     S
C221   O287    1.300   .     S
C222   C226    1.474   .     S
C222   O358    1.305   1_455 S
Cu223  N267    2.026   .     S
Cu223  Cu364   2.696   1_455 S
Cu224  N268    2.026   .     S
Cu224  Cu293   2.696   .     S
C225   C231    1.400   .     A
C225   C229    1.400   .     A
C226   C230    1.400   .     A
C226   C232    1.403   .     A
C227   C235    1.402   .     A
C227   C229    1.390   .     A
C227   H319    1.084   .     S
C228   C230    1.395   .     A
C228   H250    1.083   .     S
C228   C236    1.403   .     A
C229   H318    1.083   .     S
C230   H387    1.083   1_455 S
C231   H246    1.078   .     S
C231   C233    1.405   .     A
C232   H245    1.079   .     S
C232   C234    1.408   .     A
C233   C237    1.427   .     A
C233   C235    1.417   .     A
C234   C236    1.413   .     A
C234   C238    1.424   .     A
C235   C871    1.388   .     S
C236   C872    1.393   1_554 S
C237   C240    1.429   .     A
C237   C868    1.423   .     S
C238   C239    1.422   .     A
C238   C867    1.423   1_554 S
C239   C241    1.390   .     A
C239   N269    1.429   .     S
C240   N272    1.437   .     S
C240   C242    1.398   .     A
C241   H243    1.082   .     S
C241   C865    1.388   1_554 S
C242   H244    1.085   .     S
C242   C866    1.393   .     S
H247   C300    1.083   .     S
H248   C369    1.083   1_455 S
H249   C367    1.084   1_455 S
C251   H253    1.083   .     S
C251   C260    1.398   .     A
C252   H254    1.083   .     S
C252   C259    1.398   .     A
C252   C466    1.384   .     S
C255   H257    1.083   .     S
C255   C461    1.384   .     S
C255   C329    1.402   .     S
C256   H258    1.083   .     S
C256   C400    1.402   1_455 S
C259   C395    1.402   1_455 S
C260   C326    1.402   .     S
C261   N275    1.429   .     S
C261   N268    1.384   .     A
C261   C263    1.418   .     A
C262   N278    1.432   .     S
C262   N267    1.389   .     A
C262   C264    1.417   .     A
C263   H265    1.082   .     S
C263   N267    1.358   .     A
C264   H266    1.082   .     S
C264   N268    1.355   .     A
N269   O270    1.300   .     A
N269   O271    1.301   .     A
N272   O273    1.302   .     A
N272   O274    1.302   .     A
N275   O276    1.301   .     A
N275   O277    1.299   .     A
N278   O280    1.297   .     A
N278   O279    1.301   .     A
O281   Cu293   1.958   .     S
O282   Cu294   1.958   .     S
O282   C356    1.293   .     S
O283   Cu294   1.964   .     S
O283   C285    1.299   .     A
O284   C286    1.299   .     A
O284   Cu293   1.964   .     S
C285   C330    1.448   .     S
C285   O351    1.293   .     S
C286   C329    1.448   .     S
O287   Cu293   1.949   .     S
O288   Cu294   1.949   .     S
O288   C362    1.305   .     S
O289   Cu294   1.943   .     S
O289   C291    1.302   .     A
O290   C292    1.299   .     A
O290   Cu293   1.943   .     S
C291   C295    1.467   .     S
C291   O357    1.300   .     S
C292   C296    1.474   .     S
Cu293  N337    2.026   .     S
Cu294  N338    2.026   .     S
Cu294  Cu363   2.696   .     S
C295   C301    1.400   .     A
C295   C299    1.400   .     A
C296   C300    1.400   .     A
C296   C302    1.403   .     A
C297   C305    1.402   .     A
C297   C299    1.390   .     A
C297   H389    1.084   .     S
C298   C300    1.395   .     A
C298   H320    1.083   .     S
C298   C306    1.403   .     A
C299   H388    1.083   .     S
C301   H316    1.078   .     S
C301   C303    1.405   .     A
C302   H315    1.079   .     S
C302   C304    1.408   .     A
C303   C307    1.427   .     A
C303   C305    1.417   .     A
C304   C306    1.413   .     A
C304   C308    1.424   .     A
C305   C941    1.388   .     S
C306   C942    1.393   1_554 S
C307   C310    1.429   .     A
C307   C938    1.423   .     S
C308   C309    1.422   .     A
C308   C937    1.423   1_554 S
C309   C311    1.390   .     A
C309   N339    1.429   .     S
C310   N342    1.437   .     S
C310   C312    1.398   .     A
C311   H313    1.082   .     S
C311   C935    1.388   1_554 S
C312   H314    1.085   .     S
C312   C936    1.393   .     S
H317   C370    1.083   .     S
C321   H323    1.083   .     S
C321   C330    1.398   .     A
C322   H324    1.083   .     S
C322   C329    1.398   .     A
C322   C536    1.384   .     S
C325   H327    1.083   .     S
C325   C531    1.384   .     S
C325   C399    1.402   .     S
C326   H328    1.083   .     S
C330   C396    1.402   .     S
C331   N345    1.429   .     S
C331   N338    1.384   .     A
C331   C333    1.418   .     A
C332   N348    1.432   .     S
C332   N337    1.389   .     A
C332   C334    1.417   .     A
C333   H335    1.082   .     S
C333   N337    1.358   .     A
C334   H336    1.082   .     S
C334   N338    1.355   .     A
N339   O340    1.300   .     A
N339   O341    1.301   .     A
N342   O343    1.302   .     A
N342   O344    1.302   .     A
N345   O346    1.301   .     A
N345   O347    1.299   .     A
N348   O350    1.297   .     A
N348   O349    1.301   .     A
O351   Cu363   1.958   .     S
O352   Cu364   1.958   .     S
O352   C216    1.293   1_655 S
O353   Cu364   1.964   .     S
O353   C355    1.299   .     A
O354   C356    1.299   .     A
O354   Cu363   1.964   .     S
C355   C400    1.448   .     S
C355   O211    1.293   1_655 S
C356   C399    1.448   .     S
O357   Cu363   1.949   .     S
O358   Cu364   1.949   .     S
O358   C222    1.305   1_655 S
O359   Cu364   1.943   .     S
O359   C361    1.302   .     A
O360   C362    1.299   .     A
O360   Cu363   1.943   .     S
C361   C365    1.467   .     S
C361   O217    1.300   1_655 S
C362   C366    1.474   .     S
Cu363  N407    2.026   .     S
Cu364  N408    2.026   .     S
Cu364  Cu223   2.696   1_655 S
C365   C371    1.400   .     A
C365   C369    1.400   .     A
C366   C370    1.400   .     A
C366   C372    1.403   .     A
C367   C375    1.402   .     A
C367   C369    1.390   .     A
C367   H249    1.084   1_655 S
C368   C370    1.395   .     A
C368   H390    1.083   .     S
C368   C376    1.403   .     A
C369   H248    1.083   1_655 S
C371   H386    1.078   .     S
C371   C373    1.405   .     A
C372   H385    1.079   .     S
C372   C374    1.408   .     A
C373   C377    1.427   .     A
C373   C375    1.417   .     A
C374   C376    1.413   .     A
C374   C378    1.424   .     A
C375   C1011   1.388   .     S
C376   C1012   1.393   1_554 S
C377   C380    1.429   .     A
C377   C1008   1.423   .     S
C378   C379    1.422   .     A
C378   C1007   1.423   1_554 S
C379   C381    1.390   .     A
C379   N409    1.429   .     S
C380   N412    1.437   .     S
C380   C382    1.398   .     A
C381   H383    1.082   .     S
C381   C1005   1.388   1_554 S
C382   H384    1.085   .     S
C382   C1006   1.393   .     S
H387   C230    1.083   1_655 S
C391   H393    1.083   .     S
C391   C400    1.398   .     A
C392   H394    1.083   .     S
C392   C399    1.398   .     A
C392   C606    1.384   .     S
C395   H397    1.083   .     S
C395   C601    1.384   .     S
C395   C259    1.402   1_655 S
C396   H398    1.083   .     S
C400   C256    1.402   1_655 S
C401   N415    1.429   .     S
C401   N408    1.384   .     A
C401   C403    1.418   .     A
C402   N418    1.432   .     S
C402   N407    1.389   .     A
C402   C404    1.417   .     A
C403   H405    1.082   .     S
C403   N407    1.358   .     A
C404   H406    1.082   .     S
C404   N408    1.355   .     A
N409   O410    1.300   .     A
N409   O411    1.301   .     A
N412   O413    1.302   .     A
N412   O414    1.302   .     A
N415   O416    1.301   .     A
N415   O417    1.299   .     A
N418   O420    1.297   .     A
N418   O419    1.301   .     A
O421   Cu433   1.958   .     S
O421   C565    1.293   1_455 S
O422   Cu434   1.958   .     S
O422   C496    1.293   .     S
O423   Cu434   1.964   .     S
O423   C425    1.299   .     A
O424   C426    1.299   .     A
O424   Cu433   1.964   .     S
C425   C470    1.448   .     S
C425   O491    1.293   .     S
C426   C469    1.448   .     S
C426   O562    1.293   1_455 S
O427   Cu433   1.949   .     S
O427   C571    1.300   1_455 S
O428   Cu434   1.949   .     S
O428   C502    1.305   .     S
O429   Cu434   1.943   .     S
O429   C431    1.302   .     A
O430   C432    1.299   .     A
O430   Cu433   1.943   .     S
C431   C435    1.467   .     S
C431   O497    1.300   .     S
C432   C436    1.474   .     S
C432   O568    1.305   1_455 S
Cu433  N477    2.026   .     S
Cu433  Cu574   2.696   1_455 S
Cu434  N478    2.026   .     S
Cu434  Cu503   2.696   .     S
C435   C441    1.400   .     A
C435   C439    1.400   .     A
C436   C440    1.400   .     A
C436   C442    1.403   .     A
C437   C445    1.402   .     A
C437   C439    1.390   .     A
C437   H529    1.084   .     S
C438   C440    1.395   .     A
C438   H460    1.083   .     S
C438   C446    1.403   .     A
C439   H528    1.083   .     S
C440   H597    1.083   1_455 S
C441   H456    1.078   .     S
C441   C443    1.405   .     A
C442   H455    1.079   .     S
C442   C444    1.408   .     A
C443   C447    1.427   .     A
C443   C445    1.417   .     A
C444   C446    1.413   .     A
C444   C448    1.424   .     A
C445   C1081   1.388   .     S
C446   C1082   1.393   1_554 S
C447   C450    1.429   .     A
C447   C1078   1.423   .     S
C448   C449    1.422   .     A
C448   C1077   1.423   1_554 S
C449   C451    1.390   .     A
C449   N479    1.429   .     S
C450   N482    1.437   .     S
C450   C452    1.398   .     A
C451   H453    1.082   .     S
C451   C1075   1.388   1_554 S
C452   H454    1.085   .     S
C452   C1076   1.393   .     S
H457   C510    1.083   .     S
H458   C579    1.083   1_455 S
H459   C577    1.084   1_455 S
C461   H463    1.083   .     S
C461   C470    1.398   .     A
C462   H464    1.083   .     S
C462   C469    1.398   .     A
C462   C46     1.384   1_565 S
C465   H467    1.083   .     S
C465   C41     1.384   1_565 S
C465   C539    1.402   .     S
C466   H468    1.083   .     S
C466   C610    1.402   1_455 S
C469   C605    1.402   1_455 S
C470   C536    1.402   .     S
C471   N485    1.429   .     S
C471   N478    1.384   .     A
C471   C473    1.418   .     A
C472   N488    1.432   .     S
C472   N477    1.389   .     A
C472   C474    1.417   .     A
C473   H475    1.082   .     S
C473   N477    1.358   .     A
C474   H476    1.082   .     S
C474   N478    1.355   .     A
N479   O480    1.300   .     A
N479   O481    1.301   .     A
N482   O483    1.302   .     A
N482   O484    1.302   .     A
N485   O486    1.301   .     A
N485   O487    1.299   .     A
N488   O490    1.297   .     A
N488   O489    1.301   .     A
O491   Cu503   1.958   .     S
O492   Cu504   1.958   .     S
O492   C566    1.293   .     S
O493   Cu504   1.964   .     S
O493   C495    1.299   .     A
O494   C496    1.299   .     A
O494   Cu503   1.964   .     S
C495   C540    1.448   .     S
C495   O561    1.293   .     S
C496   C539    1.448   .     S
O497   Cu503   1.949   .     S
O498   Cu504   1.949   .     S
O498   C572    1.305   .     S
O499   Cu504   1.943   .     S
O499   C501    1.302   .     A
O500   C502    1.299   .     A
O500   Cu503   1.943   .     S
C501   C505    1.467   .     S
C501   O567    1.300   .     S
C502   C506    1.474   .     S
Cu503  N547    2.026   .     S
Cu504  N548    2.026   .     S
Cu504  Cu573   2.696   .     S
C505   C511    1.400   .     A
C505   C509    1.400   .     A
C506   C510    1.400   .     A
C506   C512    1.403   .     A
C507   C515    1.402   .     A
C507   C509    1.390   .     A
C507   H599    1.084   .     S
C508   C510    1.395   .     A
C508   H530    1.083   .     S
C508   C516    1.403   .     A
C509   H598    1.083   .     S
C511   H526    1.078   .     S
C511   C513    1.405   .     A
C512   H525    1.079   .     S
C512   C514    1.408   .     A
C513   C517    1.427   .     A
C513   C515    1.417   .     A
C514   C516    1.413   .     A
C514   C518    1.424   .     A
C515   C1151   1.388   .     S
C516   C1152   1.393   1_554 S
C517   C520    1.429   .     A
C517   C1148   1.423   .     S
C518   C519    1.422   .     A
C518   C1147   1.423   1_554 S
C519   C521    1.390   .     A
C519   N549    1.429   .     S
C520   N552    1.437   .     S
C520   C522    1.398   .     A
C521   H523    1.082   .     S
C521   C1145   1.388   1_554 S
C522   H524    1.085   .     S
C522   C1146   1.393   .     S
H527   C580    1.083   .     S
C531   H533    1.083   .     S
C531   C540    1.398   .     A
C532   H534    1.083   .     S
C532   C539    1.398   .     A
C532   C116    1.384   1_565 S
C535   H537    1.083   .     S
C535   C111    1.384   1_565 S
C535   C609    1.402   .     S
C536   H538    1.083   .     S
C540   C606    1.402   .     S
C541   N555    1.429   .     S
C541   N548    1.384   .     A
C541   C543    1.418   .     A
C542   N558    1.432   .     S
C542   N547    1.389   .     A
C542   C544    1.417   .     A
C543   H545    1.082   .     S
C543   N547    1.358   .     A
C544   H546    1.082   .     S
C544   N548    1.355   .     A
N549   O550    1.300   .     A
N549   O551    1.301   .     A
N552   O553    1.302   .     A
N552   O554    1.302   .     A
N555   O556    1.301   .     A
N555   O557    1.299   .     A
N558   O560    1.297   .     A
N558   O559    1.301   .     A
O561   Cu573   1.958   .     S
O562   Cu574   1.958   .     S
O562   C426    1.293   1_655 S
O563   Cu574   1.964   .     S
O563   C565    1.299   .     A
O564   C566    1.299   .     A
O564   Cu573   1.964   .     S
C565   C610    1.448   .     S
C565   O421    1.293   1_655 S
C566   C609    1.448   .     S
O567   Cu573   1.949   .     S
O568   Cu574   1.949   .     S
O568   C432    1.305   1_655 S
O569   Cu574   1.943   .     S
O569   C571    1.302   .     A
O570   C572    1.299   .     A
O570   Cu573   1.943   .     S
C571   C575    1.467   .     S
C571   O427    1.300   1_655 S
C572   C576    1.474   .     S
Cu573  N617    2.026   .     S
Cu574  N618    2.026   .     S
Cu574  Cu433   2.696   1_655 S
C575   C581    1.400   .     A
C575   C579    1.400   .     A
C576   C580    1.400   .     A
C576   C582    1.403   .     A
C577   C585    1.402   .     A
C577   C579    1.390   .     A
C577   H459    1.084   1_655 S
C578   C580    1.395   .     A
C578   H600    1.083   .     S
C578   C586    1.403   .     A
C579   H458    1.083   1_655 S
C581   H596    1.078   .     S
C581   C583    1.405   .     A
C582   H595    1.079   .     S
C582   C584    1.408   .     A
C583   C587    1.427   .     A
C583   C585    1.417   .     A
C584   C586    1.413   .     A
C584   C588    1.424   .     A
C585   C1221   1.388   .     S
C586   C1222   1.393   1_554 S
C587   C590    1.429   .     A
C587   C1218   1.423   .     S
C588   C589    1.422   .     A
C588   C1217   1.423   1_554 S
C589   C591    1.390   .     A
C589   N619    1.429   .     S
C590   N622    1.437   .     S
C590   C592    1.398   .     A
C591   H593    1.082   .     S
C591   C1215   1.388   1_554 S
C592   H594    1.085   .     S
C592   C1216   1.393   .     S
H597   C440    1.083   1_655 S
C601   H603    1.083   .     S
C601   C610    1.398   .     A
C602   H604    1.083   .     S
C602   C609    1.398   .     A
C602   C186    1.384   1_565 S
C605   H607    1.083   .     S
C605   C181    1.384   1_565 S
C605   C469    1.402   1_655 S
C606   H608    1.083   .     S
C610   C466    1.402   1_655 S
C611   N625    1.429   .     S
C611   N618    1.384   .     A
C611   C613    1.418   .     A
C612   N628    1.432   .     S
C612   N617    1.389   .     A
C612   C614    1.417   .     A
C613   H615    1.082   .     S
C613   N617    1.358   .     A
C614   H616    1.082   .     S
C614   N618    1.355   .     A
N619   O620    1.300   .     A
N619   O621    1.301   .     A
N622   O623    1.302   .     A
N622   O624    1.302   .     A
N625   O626    1.301   .     A
N625   O627    1.299   .     A
N628   O630    1.297   .     A
N628   O629    1.301   .     A
O631   Cu643   1.958   .     S
O631   C775    1.293   1_455 S
O632   Cu644   1.958   .     S
O632   C706    1.293   .     S
O633   Cu644   1.964   .     S
O633   C635    1.299   .     A
O634   C636    1.299   .     A
O634   Cu643   1.964   .     S
C635   C680    1.448   .     S
C635   O701    1.293   .     S
C636   C679    1.448   .     S
C636   O772    1.293   1_455 S
O637   Cu643   1.949   .     S
O637   C781    1.300   1_455 S
O638   Cu644   1.949   .     S
O638   C712    1.305   .     S
O639   Cu644   1.943   .     S
O639   C641    1.302   .     A
O640   C642    1.299   .     A
O640   Cu643   1.943   .     S
C641   C645    1.467   .     S
C641   O707    1.300   .     S
C642   C646    1.474   .     S
C642   O778    1.305   1_455 S
Cu643  N687    2.026   .     S
Cu643  Cu784   2.696   1_455 S
Cu644  N688    2.026   .     S
Cu644  Cu713   2.696   .     S
C645   C651    1.400   .     A
C645   C649    1.400   .     A
C646   C650    1.400   .     A
C646   C652    1.403   .     A
C647   C655    1.402   .     A
C647   C649    1.390   .     A
C647   H739    1.084   .     S
C648   C650    1.395   .     A
C648   H670    1.083   .     S
C648   C656    1.403   .     A
C649   H738    1.083   .     S
C650   H807    1.083   1_455 S
C651   H666    1.078   .     S
C651   C653    1.405   .     A
C652   H665    1.079   .     S
C652   C654    1.408   .     A
C653   C657    1.427   .     A
C653   C655    1.417   .     A
C654   C656    1.413   .     A
C654   C658    1.424   .     A
C655   C31     1.388   1_556 S
C657   C660    1.429   .     A
C657   C28     1.423   1_556 S
C658   C659    1.422   .     A
C659   C661    1.390   .     A
C659   N689    1.429   .     S
C660   N692    1.437   .     S
C660   C662    1.398   .     A
C661   H663    1.082   .     S
C662   H664    1.085   .     S
C662   C26     1.393   1_556 S
H667   C720    1.083   .     S
H668   C789    1.083   1_455 S
H669   C787    1.084   1_455 S
C671   H673    1.083   .     S
C671   C680    1.398   .     A
C671   C1095   1.384   1_545 S
C672   H674    1.083   .     S
C672   C679    1.398   .     A
C672   C886    1.384   .     S
C675   H677    1.083   .     S
C675   C881    1.384   .     S
C675   C749    1.402   .     S
C676   H678    1.083   .     S
C676   C1092   1.384   1_545 S
C676   C820    1.402   1_455 S
C679   C815    1.402   1_455 S
C680   C746    1.402   .     S
C681   N695    1.429   .     S
C681   N688    1.384   .     A
C681   C683    1.418   .     A
C682   N698    1.432   .     S
C682   N687    1.389   .     A
C682   C684    1.417   .     A
C683   H685    1.082   .     S
C683   N687    1.358   .     A
C684   H686    1.082   .     S
C684   N688    1.355   .     A
N689   O690    1.300   .     A
N689   O691    1.301   .     A
N692   O693    1.302   .     A
N692   O694    1.302   .     A
N695   O696    1.301   .     A
N695   O697    1.299   .     A
N698   O700    1.297   .     A
N698   O699    1.301   .     A
O701   Cu713   1.958   .     S
O702   Cu714   1.958   .     S
O702   C776    1.293   .     S
O703   Cu714   1.964   .     S
O703   C705    1.299   .     A
O704   C706    1.299   .     A
O704   Cu713   1.964   .     S
C705   C750    1.448   .     S
C705   O771    1.293   .     S
C706   C749    1.448   .     S
O707   Cu713   1.949   .     S
O708   Cu714   1.949   .     S
O708   C782    1.305   .     S
O709   Cu714   1.943   .     S
O709   C711    1.302   .     A
O710   C712    1.299   .     A
O710   Cu713   1.943   .     S
C711   C715    1.467   .     S
C711   O777    1.300   .     S
C712   C716    1.474   .     S
Cu713  N757    2.026   .     S
Cu714  N758    2.026   .     S
Cu714  Cu783   2.696   .     S
C715   C721    1.400   .     A
C715   C719    1.400   .     A
C716   C720    1.400   .     A
C716   C722    1.403   .     A
C717   C725    1.402   .     A
C717   C719    1.390   .     A
C717   H809    1.084   .     S
C718   C720    1.395   .     A
C718   H740    1.083   .     S
C718   C726    1.403   .     A
C719   H808    1.083   .     S
C721   H736    1.078   .     S
C721   C723    1.405   .     A
C722   H735    1.079   .     S
C722   C724    1.408   .     A
C723   C727    1.427   .     A
C723   C725    1.417   .     A
C724   C726    1.413   .     A
C724   C728    1.424   .     A
C725   C101    1.388   1_556 S
C727   C730    1.429   .     A
C727   C98     1.423   1_556 S
C728   C729    1.422   .     A
C729   C731    1.390   .     A
C729   N759    1.429   .     S
C730   N762    1.437   .     S
C730   C732    1.398   .     A
C731   H733    1.082   .     S
C732   H734    1.085   .     S
C732   C96     1.393   1_556 S
H737   C790    1.083   .     S
C741   H743    1.083   .     S
C741   C750    1.398   .     A
C741   C1165   1.384   1_545 S
C742   H744    1.083   .     S
C742   C749    1.398   .     A
C742   C956    1.384   .     S
C745   H747    1.083   .     S
C745   C951    1.384   .     S
C745   C819    1.402   .     S
C746   H748    1.083   .     S
C746   C1162   1.384   1_545 S
C750   C816    1.402   .     S
C751   N765    1.429   .     S
C751   N758    1.384   .     A
C751   C753    1.418   .     A
C752   N768    1.432   .     S
C752   N757    1.389   .     A
C752   C754    1.417   .     A
C753   H755    1.082   .     S
C753   N757    1.358   .     A
C754   H756    1.082   .     S
C754   N758    1.355   .     A
N759   O760    1.300   .     A
N759   O761    1.301   .     A
N762   O763    1.302   .     A
N762   O764    1.302   .     A
N765   O766    1.301   .     A
N765   O767    1.299   .     A
N768   O770    1.297   .     A
N768   O769    1.301   .     A
O771   Cu783   1.958   .     S
O772   Cu784   1.958   .     S
O772   C636    1.293   1_655 S
O773   Cu784   1.964   .     S
O773   C775    1.299   .     A
O774   C776    1.299   .     A
O774   Cu783   1.964   .     S
C775   C820    1.448   .     S
C775   O631    1.293   1_655 S
C776   C819    1.448   .     S
O777   Cu783   1.949   .     S
O778   Cu784   1.949   .     S
O778   C642    1.305   1_655 S
O779   Cu784   1.943   .     S
O779   C781    1.302   .     A
O780   C782    1.299   .     A
O780   Cu783   1.943   .     S
C781   C785    1.467   .     S
C781   O637    1.300   1_655 S
C782   C786    1.474   .     S
Cu783  N827    2.026   .     S
Cu784  N828    2.026   .     S
Cu784  Cu643   2.696   1_655 S
C785   C791    1.400   .     A
C785   C789    1.400   .     A
C786   C790    1.400   .     A
C786   C792    1.403   .     A
C787   C795    1.402   .     A
C787   C789    1.390   .     A
C787   H669    1.084   1_655 S
C788   C790    1.395   .     A
C788   H810    1.083   .     S
C788   C796    1.403   .     A
C789   H668    1.083   1_655 S
C791   H806    1.078   .     S
C791   C793    1.405   .     A
C792   H805    1.079   .     S
C792   C794    1.408   .     A
C793   C797    1.427   .     A
C793   C795    1.417   .     A
C794   C796    1.413   .     A
C794   C798    1.424   .     A
C795   C171    1.388   1_556 S
C797   C800    1.429   .     A
C797   C168    1.423   1_556 S
C798   C799    1.422   .     A
C799   C801    1.390   .     A
C799   N829    1.429   .     S
C800   N832    1.437   .     S
C800   C802    1.398   .     A
C801   H803    1.082   .     S
C802   H804    1.085   .     S
C802   C166    1.393   1_556 S
H807   C650    1.083   1_655 S
C811   H813    1.083   .     S
C811   C820    1.398   .     A
C811   C1235   1.384   1_545 S
C812   H814    1.083   .     S
C812   C819    1.398   .     A
C812   C1026   1.384   .     S
C815   H817    1.083   .     S
C815   C1021   1.384   .     S
C815   C679    1.402   1_655 S
C816   H818    1.083   .     S
C816   C1232   1.384   1_545 S
C820   C676    1.402   1_655 S
C821   N835    1.429   .     S
C821   N828    1.384   .     A
C821   C823    1.418   .     A
C822   N838    1.432   .     S
C822   N827    1.389   .     A
C822   C824    1.417   .     A
C823   H825    1.082   .     S
C823   N827    1.358   .     A
C824   H826    1.082   .     S
C824   N828    1.355   .     A
N829   O830    1.300   .     A
N829   O831    1.301   .     A
N832   O833    1.302   .     A
N832   O834    1.302   .     A
N835   O836    1.301   .     A
N835   O837    1.299   .     A
N838   O840    1.297   .     A
N838   O839    1.301   .     A
O841   Cu853   1.958   .     S
O841   C985    1.293   1_455 S
O842   Cu854   1.958   .     S
O842   C916    1.293   .     S
O843   Cu854   1.964   .     S
O843   C845    1.299   .     A
O844   C846    1.299   .     A
O844   Cu853   1.964   .     S
C845   C890    1.448   .     S
C845   O911    1.293   .     S
C846   C889    1.448   .     S
C846   O982    1.293   1_455 S
O847   Cu853   1.949   .     S
O847   C991    1.300   1_455 S
O848   Cu854   1.949   .     S
O848   C922    1.305   .     S
O849   Cu854   1.943   .     S
O849   C851    1.302   .     A
O850   C852    1.299   .     A
O850   Cu853   1.943   .     S
C851   C855    1.467   .     S
C851   O917    1.300   .     S
C852   C856    1.474   .     S
C852   O988    1.305   1_455 S
Cu853  N897    2.026   .     S
Cu853  Cu994   2.696   1_455 S
Cu854  N898    2.026   .     S
Cu854  Cu923   2.696   .     S
C855   C861    1.400   .     A
C855   C859    1.400   .     A
C856   C860    1.400   .     A
C856   C862    1.403   .     A
C857   C865    1.402   .     A
C857   C859    1.390   .     A
C857   H949    1.084   .     S
C858   C860    1.395   .     A
C858   H880    1.083   .     S
C858   C866    1.403   .     A
C859   H948    1.083   .     S
C860   H1017   1.083   1_455 S
C861   H876    1.078   .     S
C861   C863    1.405   .     A
C862   H875    1.079   .     S
C862   C864    1.408   .     A
C863   C867    1.427   .     A
C863   C865    1.417   .     A
C864   C866    1.413   .     A
C864   C868    1.424   .     A
C865   C241    1.388   1_556 S
C867   C870    1.429   .     A
C867   C238    1.423   1_556 S
C868   C869    1.422   .     A
C869   C871    1.390   .     A
C869   N899    1.429   .     S
C870   N902    1.437   .     S
C870   C872    1.398   .     A
C871   H873    1.082   .     S
C872   H874    1.085   .     S
C872   C236    1.393   1_556 S
H877   C930    1.083   .     S
H878   C999    1.083   1_455 S
H879   C997    1.084   1_455 S
C881   H883    1.083   .     S
C881   C890    1.398   .     A
C882   H884    1.083   .     S
C882   C889    1.398   .     A
C882   C1096   1.384   .     S
C885   H887    1.083   .     S
C885   C1091   1.384   .     S
C885   C959    1.402   .     S
C886   H888    1.083   .     S
C886   C1030   1.402   1_455 S
C889   C1025   1.402   1_455 S
C890   C956    1.402   .     S
C891   N905    1.429   .     S
C891   N898    1.384   .     A
C891   C893    1.418   .     A
C892   N908    1.432   .     S
C892   N897    1.389   .     A
C892   C894    1.417   .     A
C893   H895    1.082   .     S
C893   N897    1.358   .     A
C894   H896    1.082   .     S
C894   N898    1.355   .     A
N899   O900    1.300   .     A
N899   O901    1.301   .     A
N902   O903    1.302   .     A
N902   O904    1.302   .     A
N905   O906    1.301   .     A
N905   O907    1.299   .     A
N908   O910    1.297   .     A
N908   O909    1.301   .     A
O911   Cu923   1.958   .     S
O912   Cu924   1.958   .     S
O912   C986    1.293   .     S
O913   Cu924   1.964   .     S
O913   C915    1.299   .     A
O914   C916    1.299   .     A
O914   Cu923   1.964   .     S
C915   C960    1.448   .     S
C915   O981    1.293   .     S
C916   C959    1.448   .     S
O917   Cu923   1.949   .     S
O918   Cu924   1.949   .     S
O918   C992    1.305   .     S
O919   Cu924   1.943   .     S
O919   C921    1.302   .     A
O920   C922    1.299   .     A
O920   Cu923   1.943   .     S
C921   C925    1.467   .     S
C921   O987    1.300   .     S
C922   C926    1.474   .     S
Cu923  N967    2.026   .     S
Cu924  N968    2.026   .     S
Cu924  Cu993   2.696   .     S
C925   C931    1.400   .     A
C925   C929    1.400   .     A
C926   C930    1.400   .     A
C926   C932    1.403   .     A
C927   C935    1.402   .     A
C927   C929    1.390   .     A
C927   H1019   1.084   .     S
C928   C930    1.395   .     A
C928   H950    1.083   .     S
C928   C936    1.403   .     A
C929   H1018   1.083   .     S
C931   H946    1.078   .     S
C931   C933    1.405   .     A
C932   H945    1.079   .     S
C932   C934    1.408   .     A
C933   C937    1.427   .     A
C933   C935    1.417   .     A
C934   C936    1.413   .     A
C934   C938    1.424   .     A
C935   C311    1.388   1_556 S
C937   C940    1.429   .     A
C937   C308    1.423   1_556 S
C938   C939    1.422   .     A
C939   C941    1.390   .     A
C939   N969    1.429   .     S
C940   N972    1.437   .     S
C940   C942    1.398   .     A
C941   H943    1.082   .     S
C942   H944    1.085   .     S
C942   C306    1.393   1_556 S
H947   C1000   1.083   .     S
C951   H953    1.083   .     S
C951   C960    1.398   .     A
C952   H954    1.083   .     S
C952   C959    1.398   .     A
C952   C1166   1.384   .     S
C955   H957    1.083   .     S
C955   C1161   1.384   .     S
C955   C1029   1.402   .     S
C956   H958    1.083   .     S
C960   C1026   1.402   .     S
C961   N975    1.429   .     S
C961   N968    1.384   .     A
C961   C963    1.418   .     A
C962   N978    1.432   .     S
C962   N967    1.389   .     A
C962   C964    1.417   .     A
C963   H965    1.082   .     S
C963   N967    1.358   .     A
C964   H966    1.082   .     S
C964   N968    1.355   .     A
N969   O970    1.300   .     A
N969   O971    1.301   .     A
N972   O973    1.302   .     A
N972   O974    1.302   .     A
N975   O976    1.301   .     A
N975   O977    1.299   .     A
N978   O980    1.297   .     A
N978   O979    1.301   .     A
O981   Cu993   1.958   .     S
O982   Cu994   1.958   .     S
O982   C846    1.293   1_655 S
O983   Cu994   1.964   .     S
O983   C985    1.299   .     A
O984   C986    1.299   .     A
O984   Cu993   1.964   .     S
C985   C1030   1.448   .     S
C985   O841    1.293   1_655 S
C986   C1029   1.448   .     S
O987   Cu993   1.949   .     S
O988   Cu994   1.949   .     S
O988   C852    1.305   1_655 S
O989   Cu994   1.943   .     S
O989   C991    1.302   .     A
O990   C992    1.299   .     A
O990   Cu993   1.943   .     S
C991   C995    1.467   .     S
C991   O847    1.300   1_655 S
C992   C996    1.474   .     S
Cu993  N1037   2.026   .     S
Cu994  N1038   2.026   .     S
Cu994  Cu853   2.696   1_655 S
C995   C1001   1.400   .     A
C995   C999    1.400   .     A
C996   C1000   1.400   .     A
C996   C1002   1.403   .     A
C997   C1005   1.402   .     A
C997   C999    1.390   .     A
C997   H879    1.084   1_655 S
C998   C1000   1.395   .     A
C998   H1020   1.083   .     S
C998   C1006   1.403   .     A
C999   H878    1.083   1_655 S
C1001  H1016   1.078   .     S
C1001  C1003   1.405   .     A
C1002  H1015   1.079   .     S
C1002  C1004   1.408   .     A
C1003  C1007   1.427   .     A
C1003  C1005   1.417   .     A
C1004  C1006   1.413   .     A
C1004  C1008   1.424   .     A
C1005  C381    1.388   1_556 S
C1007  C1010   1.429   .     A
C1007  C378    1.423   1_556 S
C1008  C1009   1.422   .     A
C1009  C1011   1.390   .     A
C1009  N1039   1.429   .     S
C1010  N1042   1.437   .     S
C1010  C1012   1.398   .     A
C1011  H1013   1.082   .     S
C1012  H1014   1.085   .     S
C1012  C376    1.393   1_556 S
H1017  C860    1.083   1_655 S
C1021  H1023   1.083   .     S
C1021  C1030   1.398   .     A
C1022  H1024   1.083   .     S
C1022  C1029   1.398   .     A
C1022  C1236   1.384   .     S
C1025  H1027   1.083   .     S
C1025  C1231   1.384   .     S
C1025  C889    1.402   1_655 S
C1026  H1028   1.083   .     S
C1030  C886    1.402   1_655 S
C1031  N1045   1.429   .     S
C1031  N1038   1.384   .     A
C1031  C1033   1.418   .     A
C1032  N1048   1.432   .     S
C1032  N1037   1.389   .     A
C1032  C1034   1.417   .     A
C1033  H1035   1.082   .     S
C1033  N1037   1.358   .     A
C1034  H1036   1.082   .     S
C1034  N1038   1.355   .     A
N1039  O1040   1.300   .     A
N1039  O1041   1.301   .     A
N1042  O1043   1.302   .     A
N1042  O1044   1.302   .     A
N1045  O1046   1.301   .     A
N1045  O1047   1.299   .     A
N1048  O1050   1.297   .     A
N1048  O1049   1.301   .     A
O1051  Cu1063  1.958   .     S
O1051  C1195   1.293   1_455 S
O1052  Cu1064  1.958   .     S
O1052  C1126   1.293   .     S
O1053  Cu1064  1.964   .     S
O1053  C1055   1.299   .     A
O1054  C1056   1.299   .     A
O1054  Cu1063  1.964   .     S
C1055  C1100   1.448   .     S
C1055  O1121   1.293   .     S
C1056  C1099   1.448   .     S
C1056  O1192   1.293   1_455 S
O1057  Cu1063  1.949   .     S
O1057  C1201   1.300   1_455 S
O1058  Cu1064  1.949   .     S
O1058  C1132   1.305   .     S
O1059  Cu1064  1.943   .     S
O1059  C1061   1.302   .     A
O1060  C1062   1.299   .     A
O1060  Cu1063  1.943   .     S
C1061  C1065   1.467   .     S
C1061  O1127   1.300   .     S
C1062  C1066   1.474   .     S
C1062  O1198   1.305   1_455 S
Cu1063 N1107   2.026   .     S
Cu1063 Cu1204  2.696   1_455 S
Cu1064 N1108   2.026   .     S
Cu1064 Cu1133  2.696   .     S
C1065  C1071   1.400   .     A
C1065  C1069   1.400   .     A
C1066  C1070   1.400   .     A
C1066  C1072   1.403   .     A
C1067  C1075   1.402   .     A
C1067  C1069   1.390   .     A
C1067  H1159   1.084   .     S
C1068  C1070   1.395   .     A
C1068  H1090   1.083   .     S
C1068  C1076   1.403   .     A
C1069  H1158   1.083   .     S
C1070  H1227   1.083   1_455 S
C1071  H1086   1.078   .     S
C1071  C1073   1.405   .     A
C1072  H1085   1.079   .     S
C1072  C1074   1.408   .     A
C1073  C1077   1.427   .     A
C1073  C1075   1.417   .     A
C1074  C1076   1.413   .     A
C1074  C1078   1.424   .     A
C1075  C451    1.388   1_556 S
C1077  C1080   1.429   .     A
C1077  C448    1.423   1_556 S
C1078  C1079   1.422   .     A
C1079  C1081   1.390   .     A
C1079  N1109   1.429   .     S
C1080  N1112   1.437   .     S
C1080  C1082   1.398   .     A
C1081  H1083   1.082   .     S
C1082  H1084   1.085   .     S
C1082  C446    1.393   1_556 S
H1087  C1140   1.083   .     S
H1088  C1209   1.083   1_455 S
H1089  C1207   1.084   1_455 S
C1091  H1093   1.083   .     S
C1091  C1100   1.398   .     A
C1092  H1094   1.083   .     S
C1092  C1099   1.398   .     A
C1092  C676    1.384   1_565 S
C1095  H1097   1.083   .     S
C1095  C671    1.384   1_565 S
C1095  C1169   1.402   .     S
C1096  H1098   1.083   .     S
C1096  C1240   1.402   1_455 S
C1099  C1235   1.402   1_455 S
C1100  C1166   1.402   .     S
C1101  N1115   1.429   .     S
C1101  N1108   1.384   .     A
C1101  C1103   1.418   .     A
C1102  N1118   1.432   .     S
C1102  N1107   1.389   .     A
C1102  C1104   1.417   .     A
C1103  H1105   1.082   .     S
C1103  N1107   1.358   .     A
C1104  H1106   1.082   .     S
C1104  N1108   1.355   .     A
N1109  O1110   1.300   .     A
N1109  O1111   1.301   .     A
N1112  O1113   1.302   .     A
N1112  O1114   1.302   .     A
N1115  O1116   1.301   .     A
N1115  O1117   1.299   .     A
N1118  O1120   1.297   .     A
N1118  O1119   1.301   .     A
O1121  Cu1133  1.958   .     S
O1122  Cu1134  1.958   .     S
O1122  C1196   1.293   .     S
O1123  Cu1134  1.964   .     S
O1123  C1125   1.299   .     A
O1124  C1126   1.299   .     A
O1124  Cu1133  1.964   .     S
C1125  C1170   1.448   .     S
C1125  O1191   1.293   .     S
C1126  C1169   1.448   .     S
O1127  Cu1133  1.949   .     S
O1128  Cu1134  1.949   .     S
O1128  C1202   1.305   .     S
O1129  Cu1134  1.943   .     S
O1129  C1131   1.302   .     A
O1130  C1132   1.299   .     A
O1130  Cu1133  1.943   .     S
C1131  C1135   1.467   .     S
C1131  O1197   1.300   .     S
C1132  C1136   1.474   .     S
Cu1133 N1177   2.026   .     S
Cu1134 N1178   2.026   .     S
Cu1134 Cu1203  2.696   .     S
C1135  C1141   1.400   .     A
C1135  C1139   1.400   .     A
C1136  C1140   1.400   .     A
C1136  C1142   1.403   .     A
C1137  C1145   1.402   .     A
C1137  C1139   1.390   .     A
C1137  H1229   1.084   .     S
C1138  C1140   1.395   .     A
C1138  H1160   1.083   .     S
C1138  C1146   1.403   .     A
C1139  H1228   1.083   .     S
C1141  H1156   1.078   .     S
C1141  C1143   1.405   .     A
C1142  H1155   1.079   .     S
C1142  C1144   1.408   .     A
C1143  C1147   1.427   .     A
C1143  C1145   1.417   .     A
C1144  C1146   1.413   .     A
C1144  C1148   1.424   .     A
C1145  C521    1.388   1_556 S
C1147  C1150   1.429   .     A
C1147  C518    1.423   1_556 S
C1148  C1149   1.422   .     A
C1149  C1151   1.390   .     A
C1149  N1179   1.429   .     S
C1150  N1182   1.437   .     S
C1150  C1152   1.398   .     A
C1151  H1153   1.082   .     S
C1152  H1154   1.085   .     S
C1152  C516    1.393   1_556 S
H1157  C1210   1.083   .     S
C1161  H1163   1.083   .     S
C1161  C1170   1.398   .     A
C1162  H1164   1.083   .     S
C1162  C1169   1.398   .     A
C1162  C746    1.384   1_565 S
C1165  H1167   1.083   .     S
C1165  C741    1.384   1_565 S
C1165  C1239   1.402   .     S
C1166  H1168   1.083   .     S
C1170  C1236   1.402   .     S
C1171  N1185   1.429   .     S
C1171  N1178   1.384   .     A
C1171  C1173   1.418   .     A
C1172  N1188   1.432   .     S
C1172  N1177   1.389   .     A
C1172  C1174   1.417   .     A
C1173  H1175   1.082   .     S
C1173  N1177   1.358   .     A
C1174  H1176   1.082   .     S
C1174  N1178   1.355   .     A
N1179  O1180   1.300   .     A
N1179  O1181   1.301   .     A
N1182  O1183   1.302   .     A
N1182  O1184   1.302   .     A
N1185  O1186   1.301   .     A
N1185  O1187   1.299   .     A
N1188  O1190   1.297   .     A
N1188  O1189   1.301   .     A
O1191  Cu1203  1.958   .     S
O1192  Cu1204  1.958   .     S
O1192  C1056   1.293   1_655 S
O1193  Cu1204  1.964   .     S
O1193  C1195   1.299   .     A
O1194  C1196   1.299   .     A
O1194  Cu1203  1.964   .     S
C1195  C1240   1.448   .     S
C1195  O1051   1.293   1_655 S
C1196  C1239   1.448   .     S
O1197  Cu1203  1.949   .     S
O1198  Cu1204  1.949   .     S
O1198  C1062   1.305   1_655 S
O1199  Cu1204  1.943   .     S
O1199  C1201   1.302   .     A
O1200  C1202   1.299   .     A
O1200  Cu1203  1.943   .     S
C1201  C1205   1.467   .     S
C1201  O1057   1.300   1_655 S
C1202  C1206   1.474   .     S
Cu1203 N1247   2.026   .     S
Cu1204 N1248   2.026   .     S
Cu1204 Cu1063  2.696   1_655 S
C1205  C1211   1.400   .     A
C1205  C1209   1.400   .     A
C1206  C1210   1.400   .     A
C1206  C1212   1.403   .     A
C1207  C1215   1.402   .     A
C1207  C1209   1.390   .     A
C1207  H1089   1.084   1_655 S
C1208  C1210   1.395   .     A
C1208  H1230   1.083   .     S
C1208  C1216   1.403   .     A
C1209  H1088   1.083   1_655 S
C1211  H1226   1.078   .     S
C1211  C1213   1.405   .     A
C1212  H1225   1.079   .     S
C1212  C1214   1.408   .     A
C1213  C1217   1.427   .     A
C1213  C1215   1.417   .     A
C1214  C1216   1.413   .     A
C1214  C1218   1.424   .     A
C1215  C591    1.388   1_556 S
C1217  C1220   1.429   .     A
C1217  C588    1.423   1_556 S
C1218  C1219   1.422   .     A
C1219  C1221   1.390   .     A
C1219  N1249   1.429   .     S
C1220  N1252   1.437   .     S
C1220  C1222   1.398   .     A
C1221  H1223   1.082   .     S
C1222  H1224   1.085   .     S
C1222  C586    1.393   1_556 S
H1227  C1070   1.083   1_655 S
C1231  H1233   1.083   .     S
C1231  C1240   1.398   .     A
C1232  H1234   1.083   .     S
C1232  C1239   1.398   .     A
C1232  C816    1.384   1_565 S
C1235  H1237   1.083   .     S
C1235  C811    1.384   1_565 S
C1235  C1099   1.402   1_655 S
C1236  H1238   1.083   .     S
C1240  C1096   1.402   1_655 S
C1241  N1255   1.429   .     S
C1241  N1248   1.384   .     A
C1241  C1243   1.418   .     A
C1242  N1258   1.432   .     S
C1242  N1247   1.389   .     A
C1242  C1244   1.417   .     A
C1243  H1245   1.082   .     S
C1243  N1247   1.358   .     A
C1244  H1246   1.082   .     S
C1244  N1248   1.355   .     A
N1249  O1250   1.300   .     A
N1249  O1251   1.301   .     A
N1252  O1253   1.302   .     A
N1252  O1254   1.302   .     A
N1255  O1256   1.301   .     A
N1255  O1257   1.299   .     A
N1258  O1260   1.297   .     A
N1258  O1259   1.301   .     A
