data_str_m2_o1_o17_pcu_sym.85
_audit_creation_date              2020-01-03
_audit_creation_method            'Materials Studio'
_symmetry_space_group_name_H-M    'P1'
_symmetry_Int_Tables_number       1
_symmetry_cell_setting            triclinic
loop_
_symmetry_equiv_pos_as_xyz
  x,y,z
_cell_length_a                    32.6569
_cell_length_b                    28.5185
_cell_length_c                    30.2130
_cell_angle_alpha                 90.0679
_cell_angle_beta                  90.5534
_cell_angle_gamma                 91.7282
loop_
_atom_site_label
_atom_site_type_symbol
_atom_site_fract_x
_atom_site_fract_y
_atom_site_fract_z
_atom_site_U_iso_or_equiv
_atom_site_adp_type
_atom_site_occupancy
O1     O     0.10655   0.20625   0.24999   0.00000  Uiso   1.00
O2     O     0.22679   0.12709   0.25000   0.00000  Uiso   1.00
O3     O     0.22679   0.20625   0.25000   0.00000  Uiso   1.00
O4     O     0.10655   0.12709   0.24999   0.00000  Uiso   1.00
C5     C     0.08734   0.16575   0.25120   0.00000  Uiso   1.00
C6     C     0.24599   0.16758   0.24879   0.00000  Uiso   1.00
O7     O     0.16666   0.20627   0.18513   0.00000  Uiso   1.00
O8     O     0.16668   0.12707   0.31487   0.00000  Uiso   1.00
O9     O     0.16668   0.20627   0.31487   0.00000  Uiso   1.00
O10    O     0.16666   0.12707   0.18513   0.00000  Uiso   1.00
C11    C     0.16705   0.16677   0.16460   0.00000  Uiso   1.00
C12    C     0.16628   0.16656   0.33540   0.00000  Uiso   1.00
Cu13   Cu    0.16667   0.21355   0.25000   0.00000  Uiso   1.00
Cu14   Cu    0.16667   0.11978   0.25000   0.00000  Uiso   1.00
C15    C     0.20334   0.17665   0.40669   0.00000  Uiso   1.00
C16    C     0.12999   0.15669   0.09331   0.00000  Uiso   1.00
C17    C     0.16645   0.16592   0.38353   0.00000  Uiso   1.00
C18    C     0.16689   0.16741   0.11647   0.00000  Uiso   1.00
C19    C     0.13002   0.15340   0.40612   0.00000  Uiso   1.00
C20    C     0.20332   0.17993   0.09388   0.00000  Uiso   1.00
C21    C     0.13025   0.15377   0.45286   0.00000  Uiso   1.00
C22    C     0.20309   0.17956   0.04714   0.00000  Uiso   1.00
C23    C     0.16664   0.16636   0.47649   0.00000  Uiso   1.00
C24    C     0.16669   0.16697   0.02351   0.00000  Uiso   1.00
C25    C     0.20307   0.17803   0.45336   0.00000  Uiso   1.00
C26    C     0.13027   0.15530   0.04663   0.00000  Uiso   1.00
C27    C     0.09467   0.14187   0.47666   0.00000  Uiso   1.00
C28    C     0.23867   0.19145   0.02334   0.00000  Uiso   1.00
C29    C     0.09469   0.14260   0.02242   0.00000  Uiso   1.00
C30    C     0.23865   0.19073   0.47758   0.00000  Uiso   1.00
H31    H     0.06609   0.13185   0.46043   0.00000  Uiso   1.00
H32    H     0.26725   0.20147   0.03957   0.00000  Uiso   1.00
H33    H     0.06621   0.13276   0.03836   0.00000  Uiso   1.00
H34    H     0.26713   0.20057   0.46164   0.00000  Uiso   1.00
C35    C     0.01951   0.12739   0.23163   0.00000  Uiso   1.00
C36    C     0.31383   0.20595   0.26836   0.00000  Uiso   1.00
C37    C     0.31062   0.13257   0.22498   0.00000  Uiso   1.00
C38    C     0.02271   0.20077   0.27501   0.00000  Uiso   1.00
C39    C     0.29081   0.16958   0.24641   0.00000  Uiso   1.00
C40    C     0.04252   0.16376   0.25359   0.00000  Uiso   1.00
C41    C     0.14314   0.02397   0.22035   0.00000  Uiso   1.00
C42    C     0.19020   0.30937   0.27965   0.00000  Uiso   1.00
C43    C     0.19025   0.02567   0.27961   0.00000  Uiso   1.00
C44    C     0.14308   0.30767   0.22038   0.00000  Uiso   1.00
H45    H     0.12441   0.04200   0.19651   0.00000  Uiso   1.00
H46    H     0.20892   0.29134   0.30349   0.00000  Uiso   1.00
H47    H     0.20917   0.04507   0.30331   0.00000  Uiso   1.00
H48    H     0.12417   0.28826   0.19669   0.00000  Uiso   1.00
N49    N     0.16667   0.28402   0.25000   0.00000  Uiso   1.00
N50    N     0.16667   0.04931   0.25000   0.00000  Uiso   1.00
C51    C     0.24332   0.18500   0.38206   0.00000  Uiso   1.00
H52    H     0.26668   0.16065   0.39454   0.00000  Uiso   1.00
H53    H     0.24095   0.17843   0.34605   0.00000  Uiso   1.00
H54    H     0.25445   0.22181   0.38706   0.00000  Uiso   1.00
C55    C     0.09001   0.14836   0.11794   0.00000  Uiso   1.00
H56    H     0.07888   0.11155   0.11295   0.00000  Uiso   1.00
H57    H     0.09238   0.15494   0.15395   0.00000  Uiso   1.00
H58    H     0.06666   0.17270   0.10544   0.00000  Uiso   1.00
C59    C     0.09091   0.13938   0.38092   0.00000  Uiso   1.00
H60    H     0.09387   0.13963   0.34453   0.00000  Uiso   1.00
H61    H     0.08109   0.10310   0.39010   0.00000  Uiso   1.00
H62    H     0.06633   0.16392   0.38914   0.00000  Uiso   1.00
C63    C     0.24242   0.19394   0.11908   0.00000  Uiso   1.00
H64    H     0.23947   0.19370   0.15547   0.00000  Uiso   1.00
H65    H     0.26700   0.16940   0.11086   0.00000  Uiso   1.00
H66    H     0.25225   0.23022   0.10990   0.00000  Uiso   1.00
C67    C     0.03942   0.08244   0.21680   0.00000  Uiso   1.00
H68    H     0.05438   0.06568   0.24562   0.00000  Uiso   1.00
H69    H     0.01779   0.05504   0.20388   0.00000  Uiso   1.00
H70    H     0.06204   0.08998   0.19055   0.00000  Uiso   1.00
C71    C     0.29392   0.25090   0.28318   0.00000  Uiso   1.00
H72    H     0.27895   0.26765   0.25435   0.00000  Uiso   1.00
H73    H     0.27130   0.24338   0.30944   0.00000  Uiso   1.00
H74    H     0.31556   0.27831   0.29608   0.00000  Uiso   1.00
C75    C     0.28768   0.10091   0.19188   0.00000  Uiso   1.00
H76    H     0.25904   0.11613   0.17935   0.00000  Uiso   1.00
H77    H     0.30640   0.09612   0.16180   0.00000  Uiso   1.00
H78    H     0.28027   0.06632   0.20715   0.00000  Uiso   1.00
C79    C     0.04565   0.23243   0.30811   0.00000  Uiso   1.00
H80    H     0.07428   0.21719   0.32065   0.00000  Uiso   1.00
H81    H     0.05308   0.26701   0.29283   0.00000  Uiso   1.00
H82    H     0.02692   0.23723   0.33819   0.00000  Uiso   1.00
O83    O     0.43988   0.20625   0.24999   0.00000  Uiso   1.00
O84    O     0.56012   0.12709   0.25000   0.00000  Uiso   1.00
O85    O     0.56012   0.20625   0.25000   0.00000  Uiso   1.00
O86    O     0.43988   0.12709   0.24999   0.00000  Uiso   1.00
C87    C     0.42067   0.16575   0.25120   0.00000  Uiso   1.00
C88    C     0.57933   0.16758   0.24879   0.00000  Uiso   1.00
O89    O     0.49999   0.20627   0.18513   0.00000  Uiso   1.00
O90    O     0.50001   0.12707   0.31487   0.00000  Uiso   1.00
O91    O     0.50001   0.20627   0.31487   0.00000  Uiso   1.00
O92    O     0.49999   0.12707   0.18513   0.00000  Uiso   1.00
C93    C     0.50038   0.16677   0.16460   0.00000  Uiso   1.00
C94    C     0.49962   0.16656   0.33540   0.00000  Uiso   1.00
Cu95   Cu    0.50000   0.21355   0.25000   0.00000  Uiso   1.00
Cu96   Cu    0.50000   0.11978   0.25000   0.00000  Uiso   1.00
C97    C     0.53667   0.17665   0.40669   0.00000  Uiso   1.00
C98    C     0.46333   0.15669   0.09331   0.00000  Uiso   1.00
C99    C     0.49978   0.16592   0.38353   0.00000  Uiso   1.00
C100   C     0.50022   0.16741   0.11647   0.00000  Uiso   1.00
C101   C     0.46335   0.15340   0.40612   0.00000  Uiso   1.00
C102   C     0.53665   0.17993   0.09388   0.00000  Uiso   1.00
C103   C     0.46358   0.15377   0.45286   0.00000  Uiso   1.00
C104   C     0.53642   0.17956   0.04714   0.00000  Uiso   1.00
C105   C     0.49998   0.16636   0.47649   0.00000  Uiso   1.00
C106   C     0.50003   0.16697   0.02351   0.00000  Uiso   1.00
C107   C     0.53640   0.17803   0.45336   0.00000  Uiso   1.00
C108   C     0.46360   0.15530   0.04663   0.00000  Uiso   1.00
C109   C     0.42800   0.14187   0.47666   0.00000  Uiso   1.00
C110   C     0.57200   0.19145   0.02334   0.00000  Uiso   1.00
C111   C     0.42802   0.14260   0.02242   0.00000  Uiso   1.00
C112   C     0.57198   0.19073   0.47758   0.00000  Uiso   1.00
H113   H     0.39942   0.13185   0.46043   0.00000  Uiso   1.00
H114   H     0.60059   0.20147   0.03957   0.00000  Uiso   1.00
H115   H     0.39954   0.13276   0.03836   0.00000  Uiso   1.00
H116   H     0.60046   0.20057   0.46164   0.00000  Uiso   1.00
C117   C     0.35284   0.12739   0.23163   0.00000  Uiso   1.00
C118   C     0.64716   0.20595   0.26836   0.00000  Uiso   1.00
C119   C     0.64396   0.13257   0.22498   0.00000  Uiso   1.00
C120   C     0.35604   0.20077   0.27501   0.00000  Uiso   1.00
C121   C     0.62414   0.16958   0.24641   0.00000  Uiso   1.00
C122   C     0.37586   0.16376   0.25359   0.00000  Uiso   1.00
C123   C     0.47647   0.02397   0.22035   0.00000  Uiso   1.00
C124   C     0.52353   0.30937   0.27965   0.00000  Uiso   1.00
C125   C     0.52358   0.02567   0.27961   0.00000  Uiso   1.00
C126   C     0.47642   0.30767   0.22038   0.00000  Uiso   1.00
H127   H     0.45775   0.04200   0.19651   0.00000  Uiso   1.00
H128   H     0.54225   0.29134   0.30349   0.00000  Uiso   1.00
H129   H     0.54250   0.04507   0.30331   0.00000  Uiso   1.00
H130   H     0.45750   0.28826   0.19669   0.00000  Uiso   1.00
N131   N     0.50000   0.28402   0.25000   0.00000  Uiso   1.00
N132   N     0.50000   0.04931   0.25000   0.00000  Uiso   1.00
C133   C     0.57665   0.18500   0.38206   0.00000  Uiso   1.00
H134   H     0.60001   0.16065   0.39454   0.00000  Uiso   1.00
H135   H     0.57428   0.17843   0.34605   0.00000  Uiso   1.00
H136   H     0.58778   0.22181   0.38706   0.00000  Uiso   1.00
C137   C     0.42334   0.14836   0.11794   0.00000  Uiso   1.00
H138   H     0.41221   0.11155   0.11295   0.00000  Uiso   1.00
H139   H     0.42571   0.15494   0.15395   0.00000  Uiso   1.00
H140   H     0.39999   0.17270   0.10544   0.00000  Uiso   1.00
C141   C     0.42425   0.13938   0.38092   0.00000  Uiso   1.00
H142   H     0.42720   0.13963   0.34453   0.00000  Uiso   1.00
H143   H     0.41442   0.10310   0.39010   0.00000  Uiso   1.00
H144   H     0.39967   0.16392   0.38914   0.00000  Uiso   1.00
C145   C     0.57576   0.19394   0.11908   0.00000  Uiso   1.00
H146   H     0.57280   0.19370   0.15547   0.00000  Uiso   1.00
H147   H     0.60034   0.16940   0.11086   0.00000  Uiso   1.00
H148   H     0.58558   0.23022   0.10990   0.00000  Uiso   1.00
C149   C     0.37275   0.08244   0.21680   0.00000  Uiso   1.00
H150   H     0.38772   0.06568   0.24562   0.00000  Uiso   1.00
H151   H     0.35112   0.05504   0.20388   0.00000  Uiso   1.00
H152   H     0.39538   0.08998   0.19055   0.00000  Uiso   1.00
C153   C     0.62725   0.25090   0.28318   0.00000  Uiso   1.00
H154   H     0.61228   0.26765   0.25435   0.00000  Uiso   1.00
H155   H     0.60464   0.24338   0.30944   0.00000  Uiso   1.00
H156   H     0.64889   0.27831   0.29608   0.00000  Uiso   1.00
C157   C     0.62102   0.10091   0.19188   0.00000  Uiso   1.00
H158   H     0.59237   0.11613   0.17935   0.00000  Uiso   1.00
H159   H     0.63974   0.09612   0.16180   0.00000  Uiso   1.00
H160   H     0.61360   0.06632   0.20715   0.00000  Uiso   1.00
C161   C     0.37898   0.23243   0.30811   0.00000  Uiso   1.00
H162   H     0.40762   0.21719   0.32065   0.00000  Uiso   1.00
H163   H     0.38642   0.26701   0.29283   0.00000  Uiso   1.00
H164   H     0.36025   0.23723   0.33819   0.00000  Uiso   1.00
O165   O     0.77321   0.20625   0.24999   0.00000  Uiso   1.00
O166   O     0.89345   0.12709   0.25000   0.00000  Uiso   1.00
O167   O     0.89345   0.20625   0.25000   0.00000  Uiso   1.00
O168   O     0.77321   0.12709   0.24999   0.00000  Uiso   1.00
C169   C     0.75401   0.16575   0.25120   0.00000  Uiso   1.00
C170   C     0.91266   0.16758   0.24879   0.00000  Uiso   1.00
O171   O     0.83332   0.20627   0.18513   0.00000  Uiso   1.00
O172   O     0.83334   0.12707   0.31487   0.00000  Uiso   1.00
O173   O     0.83334   0.20627   0.31487   0.00000  Uiso   1.00
O174   O     0.83332   0.12707   0.18513   0.00000  Uiso   1.00
C175   C     0.83372   0.16677   0.16460   0.00000  Uiso   1.00
C176   C     0.83295   0.16656   0.33540   0.00000  Uiso   1.00
Cu177  Cu    0.83333   0.21355   0.25000   0.00000  Uiso   1.00
Cu178  Cu    0.83333   0.11978   0.25000   0.00000  Uiso   1.00
C179   C     0.87000   0.17665   0.40669   0.00000  Uiso   1.00
C180   C     0.79666   0.15669   0.09331   0.00000  Uiso   1.00
C181   C     0.83311   0.16592   0.38353   0.00000  Uiso   1.00
C182   C     0.83355   0.16741   0.11647   0.00000  Uiso   1.00
C183   C     0.79669   0.15340   0.40612   0.00000  Uiso   1.00
C184   C     0.86998   0.17993   0.09388   0.00000  Uiso   1.00
C185   C     0.79692   0.15377   0.45286   0.00000  Uiso   1.00
C186   C     0.86975   0.17956   0.04714   0.00000  Uiso   1.00
C187   C     0.83331   0.16636   0.47649   0.00000  Uiso   1.00
C188   C     0.83336   0.16697   0.02351   0.00000  Uiso   1.00
C189   C     0.86973   0.17803   0.45336   0.00000  Uiso   1.00
C190   C     0.79694   0.15530   0.04663   0.00000  Uiso   1.00
C191   C     0.76134   0.14187   0.47666   0.00000  Uiso   1.00
C192   C     0.90534   0.19145   0.02334   0.00000  Uiso   1.00
C193   C     0.76135   0.14260   0.02242   0.00000  Uiso   1.00
C194   C     0.90532   0.19073   0.47758   0.00000  Uiso   1.00
H195   H     0.73275   0.13185   0.46043   0.00000  Uiso   1.00
H196   H     0.93392   0.20147   0.03957   0.00000  Uiso   1.00
H197   H     0.73288   0.13276   0.03836   0.00000  Uiso   1.00
H198   H     0.93379   0.20057   0.46164   0.00000  Uiso   1.00
C199   C     0.68617   0.12739   0.23163   0.00000  Uiso   1.00
C200   C     0.98049   0.20595   0.26836   0.00000  Uiso   1.00
C201   C     0.97729   0.13257   0.22498   0.00000  Uiso   1.00
C202   C     0.68938   0.20077   0.27501   0.00000  Uiso   1.00
C203   C     0.95747   0.16958   0.24641   0.00000  Uiso   1.00
C204   C     0.70919   0.16376   0.25359   0.00000  Uiso   1.00
C205   C     0.80980   0.02397   0.22035   0.00000  Uiso   1.00
C206   C     0.85686   0.30937   0.27965   0.00000  Uiso   1.00
C207   C     0.85692   0.02567   0.27961   0.00000  Uiso   1.00
C208   C     0.80975   0.30767   0.22038   0.00000  Uiso   1.00
H209   H     0.79108   0.04200   0.19651   0.00000  Uiso   1.00
H210   H     0.87559   0.29134   0.30349   0.00000  Uiso   1.00
H211   H     0.87583   0.04507   0.30331   0.00000  Uiso   1.00
H212   H     0.79083   0.28826   0.19669   0.00000  Uiso   1.00
N213   N     0.83333   0.28402   0.25000   0.00000  Uiso   1.00
N214   N     0.83333   0.04931   0.25000   0.00000  Uiso   1.00
C215   C     0.90999   0.18500   0.38206   0.00000  Uiso   1.00
H216   H     0.93334   0.16065   0.39454   0.00000  Uiso   1.00
H217   H     0.90761   0.17843   0.34605   0.00000  Uiso   1.00
H218   H     0.92112   0.22181   0.38706   0.00000  Uiso   1.00
C219   C     0.75668   0.14836   0.11794   0.00000  Uiso   1.00
H220   H     0.74554   0.11155   0.11295   0.00000  Uiso   1.00
H221   H     0.75904   0.15494   0.15395   0.00000  Uiso   1.00
H222   H     0.73332   0.17270   0.10544   0.00000  Uiso   1.00
C223   C     0.75758   0.13938   0.38092   0.00000  Uiso   1.00
H224   H     0.76053   0.13963   0.34453   0.00000  Uiso   1.00
H225   H     0.74776   0.10310   0.39010   0.00000  Uiso   1.00
H226   H     0.73300   0.16392   0.38914   0.00000  Uiso   1.00
C227   C     0.90909   0.19394   0.11908   0.00000  Uiso   1.00
H228   H     0.90614   0.19370   0.15547   0.00000  Uiso   1.00
H229   H     0.93367   0.16940   0.11086   0.00000  Uiso   1.00
H230   H     0.91892   0.23022   0.10990   0.00000  Uiso   1.00
C231   C     0.70608   0.08244   0.21680   0.00000  Uiso   1.00
H232   H     0.72105   0.06568   0.24562   0.00000  Uiso   1.00
H233   H     0.68446   0.05504   0.20388   0.00000  Uiso   1.00
H234   H     0.72871   0.08998   0.19055   0.00000  Uiso   1.00
C235   C     0.96059   0.25090   0.28318   0.00000  Uiso   1.00
H236   H     0.94561   0.26765   0.25435   0.00000  Uiso   1.00
H237   H     0.93797   0.24338   0.30944   0.00000  Uiso   1.00
H238   H     0.98222   0.27831   0.29608   0.00000  Uiso   1.00
C239   C     0.95435   0.10091   0.19188   0.00000  Uiso   1.00
H240   H     0.92571   0.11613   0.17935   0.00000  Uiso   1.00
H241   H     0.97307   0.09612   0.16180   0.00000  Uiso   1.00
H242   H     0.94693   0.06632   0.20715   0.00000  Uiso   1.00
C243   C     0.71232   0.23243   0.30811   0.00000  Uiso   1.00
H244   H     0.74095   0.21719   0.32065   0.00000  Uiso   1.00
H245   H     0.71975   0.26701   0.29283   0.00000  Uiso   1.00
H246   H     0.69359   0.23723   0.33819   0.00000  Uiso   1.00
O247   O     0.10655   0.53958   0.24999   0.00000  Uiso   1.00
O248   O     0.22679   0.46042   0.25000   0.00000  Uiso   1.00
O249   O     0.22679   0.53958   0.25000   0.00000  Uiso   1.00
O250   O     0.10655   0.46042   0.24999   0.00000  Uiso   1.00
C251   C     0.08734   0.49909   0.25120   0.00000  Uiso   1.00
C252   C     0.24599   0.50091   0.24879   0.00000  Uiso   1.00
O253   O     0.16666   0.53960   0.18513   0.00000  Uiso   1.00
O254   O     0.16668   0.46040   0.31487   0.00000  Uiso   1.00
O255   O     0.16668   0.53960   0.31487   0.00000  Uiso   1.00
O256   O     0.16666   0.46040   0.18513   0.00000  Uiso   1.00
C257   C     0.16705   0.50010   0.16460   0.00000  Uiso   1.00
C258   C     0.16628   0.49990   0.33540   0.00000  Uiso   1.00
Cu259  Cu    0.16667   0.54689   0.25000   0.00000  Uiso   1.00
Cu260  Cu    0.16667   0.45311   0.25000   0.00000  Uiso   1.00
C261   C     0.20334   0.50998   0.40669   0.00000  Uiso   1.00
C262   C     0.12999   0.49003   0.09331   0.00000  Uiso   1.00
C263   C     0.16645   0.49926   0.38353   0.00000  Uiso   1.00
C264   C     0.16689   0.50074   0.11647   0.00000  Uiso   1.00
C265   C     0.13002   0.48673   0.40612   0.00000  Uiso   1.00
C266   C     0.20332   0.51326   0.09388   0.00000  Uiso   1.00
C267   C     0.13025   0.48710   0.45286   0.00000  Uiso   1.00
C268   C     0.20309   0.51290   0.04714   0.00000  Uiso   1.00
C269   C     0.16664   0.49969   0.47649   0.00000  Uiso   1.00
C270   C     0.16669   0.50030   0.02351   0.00000  Uiso   1.00
C271   C     0.20307   0.51137   0.45336   0.00000  Uiso   1.00
C272   C     0.13027   0.48863   0.04663   0.00000  Uiso   1.00
C273   C     0.09467   0.47521   0.47666   0.00000  Uiso   1.00
C274   C     0.23867   0.52478   0.02334   0.00000  Uiso   1.00
C275   C     0.09469   0.47594   0.02242   0.00000  Uiso   1.00
C276   C     0.23865   0.52406   0.47758   0.00000  Uiso   1.00
H277   H     0.06609   0.46518   0.46043   0.00000  Uiso   1.00
H278   H     0.26725   0.53481   0.03957   0.00000  Uiso   1.00
H279   H     0.06621   0.46609   0.03836   0.00000  Uiso   1.00
H280   H     0.26713   0.53390   0.46164   0.00000  Uiso   1.00
C281   C     0.01951   0.46072   0.23163   0.00000  Uiso   1.00
C282   C     0.31383   0.53928   0.26836   0.00000  Uiso   1.00
C283   C     0.31062   0.46590   0.22498   0.00000  Uiso   1.00
C284   C     0.02271   0.53410   0.27501   0.00000  Uiso   1.00
C285   C     0.29081   0.50291   0.24641   0.00000  Uiso   1.00
C286   C     0.04252   0.49709   0.25359   0.00000  Uiso   1.00
C287   C     0.14314   0.35730   0.22035   0.00000  Uiso   1.00
C288   C     0.19020   0.64270   0.27965   0.00000  Uiso   1.00
C289   C     0.19025   0.35900   0.27961   0.00000  Uiso   1.00
C290   C     0.14308   0.64100   0.22038   0.00000  Uiso   1.00
H291   H     0.12441   0.37533   0.19651   0.00000  Uiso   1.00
H292   H     0.20892   0.62467   0.30349   0.00000  Uiso   1.00
H293   H     0.20917   0.37840   0.30331   0.00000  Uiso   1.00
H294   H     0.12417   0.62160   0.19669   0.00000  Uiso   1.00
N295   N     0.16667   0.61736   0.25000   0.00000  Uiso   1.00
N296   N     0.16667   0.38264   0.25000   0.00000  Uiso   1.00
C297   C     0.24332   0.51833   0.38206   0.00000  Uiso   1.00
H298   H     0.26668   0.49398   0.39454   0.00000  Uiso   1.00
H299   H     0.24095   0.51176   0.34605   0.00000  Uiso   1.00
H300   H     0.25445   0.55514   0.38706   0.00000  Uiso   1.00
C301   C     0.09001   0.48169   0.11794   0.00000  Uiso   1.00
H302   H     0.07888   0.44488   0.11295   0.00000  Uiso   1.00
H303   H     0.09238   0.48827   0.15395   0.00000  Uiso   1.00
H304   H     0.06666   0.50604   0.10544   0.00000  Uiso   1.00
C305   C     0.09091   0.47272   0.38092   0.00000  Uiso   1.00
H306   H     0.09387   0.47296   0.34453   0.00000  Uiso   1.00
H307   H     0.08109   0.43644   0.39010   0.00000  Uiso   1.00
H308   H     0.06633   0.49725   0.38914   0.00000  Uiso   1.00
C309   C     0.24242   0.52728   0.11908   0.00000  Uiso   1.00
H310   H     0.23947   0.52703   0.15547   0.00000  Uiso   1.00
H311   H     0.26700   0.50274   0.11086   0.00000  Uiso   1.00
H312   H     0.25225   0.56356   0.10990   0.00000  Uiso   1.00
C313   C     0.03942   0.41577   0.21680   0.00000  Uiso   1.00
H314   H     0.05438   0.39902   0.24562   0.00000  Uiso   1.00
H315   H     0.01779   0.38837   0.20388   0.00000  Uiso   1.00
H316   H     0.06204   0.42331   0.19055   0.00000  Uiso   1.00
C317   C     0.29392   0.58424   0.28318   0.00000  Uiso   1.00
H318   H     0.27895   0.60098   0.25435   0.00000  Uiso   1.00
H319   H     0.27130   0.57671   0.30944   0.00000  Uiso   1.00
H320   H     0.31556   0.61165   0.29608   0.00000  Uiso   1.00
C321   C     0.28768   0.43424   0.19188   0.00000  Uiso   1.00
H322   H     0.25904   0.44947   0.17935   0.00000  Uiso   1.00
H323   H     0.30640   0.42945   0.16180   0.00000  Uiso   1.00
H324   H     0.28027   0.39965   0.20715   0.00000  Uiso   1.00
C325   C     0.04565   0.56576   0.30811   0.00000  Uiso   1.00
H326   H     0.07428   0.55052   0.32065   0.00000  Uiso   1.00
H327   H     0.05308   0.60034   0.29283   0.00000  Uiso   1.00
H328   H     0.02692   0.57057   0.33819   0.00000  Uiso   1.00
O329   O     0.43988   0.53958   0.24999   0.00000  Uiso   1.00
O330   O     0.56012   0.46042   0.25000   0.00000  Uiso   1.00
O331   O     0.56012   0.53958   0.25000   0.00000  Uiso   1.00
O332   O     0.43988   0.46042   0.24999   0.00000  Uiso   1.00
C333   C     0.42067   0.49909   0.25120   0.00000  Uiso   1.00
C334   C     0.57933   0.50091   0.24879   0.00000  Uiso   1.00
O335   O     0.49999   0.53960   0.18513   0.00000  Uiso   1.00
O336   O     0.50001   0.46040   0.31487   0.00000  Uiso   1.00
O337   O     0.50001   0.53960   0.31487   0.00000  Uiso   1.00
O338   O     0.49999   0.46040   0.18513   0.00000  Uiso   1.00
C339   C     0.50038   0.50010   0.16460   0.00000  Uiso   1.00
C340   C     0.49962   0.49990   0.33540   0.00000  Uiso   1.00
Cu341  Cu    0.50000   0.54689   0.25000   0.00000  Uiso   1.00
Cu342  Cu    0.50000   0.45311   0.25000   0.00000  Uiso   1.00
C343   C     0.53667   0.50998   0.40669   0.00000  Uiso   1.00
C344   C     0.46333   0.49003   0.09331   0.00000  Uiso   1.00
C345   C     0.49978   0.49926   0.38353   0.00000  Uiso   1.00
C346   C     0.50022   0.50074   0.11647   0.00000  Uiso   1.00
C347   C     0.46335   0.48673   0.40612   0.00000  Uiso   1.00
C348   C     0.53665   0.51326   0.09388   0.00000  Uiso   1.00
C349   C     0.46358   0.48710   0.45286   0.00000  Uiso   1.00
C350   C     0.53642   0.51290   0.04714   0.00000  Uiso   1.00
C351   C     0.49998   0.49969   0.47649   0.00000  Uiso   1.00
C352   C     0.50003   0.50030   0.02351   0.00000  Uiso   1.00
C353   C     0.53640   0.51137   0.45336   0.00000  Uiso   1.00
C354   C     0.46360   0.48863   0.04663   0.00000  Uiso   1.00
C355   C     0.42800   0.47521   0.47666   0.00000  Uiso   1.00
C356   C     0.57200   0.52478   0.02334   0.00000  Uiso   1.00
C357   C     0.42802   0.47594   0.02242   0.00000  Uiso   1.00
C358   C     0.57198   0.52406   0.47758   0.00000  Uiso   1.00
H359   H     0.39942   0.46518   0.46043   0.00000  Uiso   1.00
H360   H     0.60059   0.53481   0.03957   0.00000  Uiso   1.00
H361   H     0.39954   0.46609   0.03836   0.00000  Uiso   1.00
H362   H     0.60046   0.53390   0.46164   0.00000  Uiso   1.00
C363   C     0.35284   0.46072   0.23163   0.00000  Uiso   1.00
C364   C     0.64716   0.53928   0.26836   0.00000  Uiso   1.00
C365   C     0.64396   0.46590   0.22498   0.00000  Uiso   1.00
C366   C     0.35604   0.53410   0.27501   0.00000  Uiso   1.00
C367   C     0.62414   0.50291   0.24641   0.00000  Uiso   1.00
C368   C     0.37586   0.49709   0.25359   0.00000  Uiso   1.00
C369   C     0.47647   0.35730   0.22035   0.00000  Uiso   1.00
C370   C     0.52353   0.64270   0.27965   0.00000  Uiso   1.00
C371   C     0.52358   0.35900   0.27961   0.00000  Uiso   1.00
C372   C     0.47642   0.64100   0.22038   0.00000  Uiso   1.00
H373   H     0.45775   0.37533   0.19651   0.00000  Uiso   1.00
H374   H     0.54225   0.62467   0.30349   0.00000  Uiso   1.00
H375   H     0.54250   0.37840   0.30331   0.00000  Uiso   1.00
H376   H     0.45750   0.62160   0.19669   0.00000  Uiso   1.00
N377   N     0.50000   0.61736   0.25000   0.00000  Uiso   1.00
N378   N     0.50000   0.38264   0.25000   0.00000  Uiso   1.00
C379   C     0.57665   0.51833   0.38206   0.00000  Uiso   1.00
H380   H     0.60001   0.49398   0.39454   0.00000  Uiso   1.00
H381   H     0.57428   0.51176   0.34605   0.00000  Uiso   1.00
H382   H     0.58778   0.55514   0.38706   0.00000  Uiso   1.00
C383   C     0.42334   0.48169   0.11794   0.00000  Uiso   1.00
H384   H     0.41221   0.44488   0.11295   0.00000  Uiso   1.00
H385   H     0.42571   0.48827   0.15395   0.00000  Uiso   1.00
H386   H     0.39999   0.50604   0.10544   0.00000  Uiso   1.00
C387   C     0.42425   0.47272   0.38092   0.00000  Uiso   1.00
H388   H     0.42720   0.47296   0.34453   0.00000  Uiso   1.00
H389   H     0.41442   0.43644   0.39010   0.00000  Uiso   1.00
H390   H     0.39967   0.49725   0.38914   0.00000  Uiso   1.00
C391   C     0.57576   0.52728   0.11908   0.00000  Uiso   1.00
H392   H     0.57280   0.52703   0.15547   0.00000  Uiso   1.00
H393   H     0.60034   0.50274   0.11086   0.00000  Uiso   1.00
H394   H     0.58558   0.56356   0.10990   0.00000  Uiso   1.00
C395   C     0.37275   0.41577   0.21680   0.00000  Uiso   1.00
H396   H     0.38772   0.39902   0.24562   0.00000  Uiso   1.00
H397   H     0.35112   0.38837   0.20388   0.00000  Uiso   1.00
H398   H     0.39538   0.42331   0.19055   0.00000  Uiso   1.00
C399   C     0.62725   0.58424   0.28318   0.00000  Uiso   1.00
H400   H     0.61228   0.60098   0.25435   0.00000  Uiso   1.00
H401   H     0.60464   0.57671   0.30944   0.00000  Uiso   1.00
H402   H     0.64889   0.61165   0.29608   0.00000  Uiso   1.00
C403   C     0.62102   0.43424   0.19188   0.00000  Uiso   1.00
H404   H     0.59237   0.44947   0.17935   0.00000  Uiso   1.00
H405   H     0.63974   0.42945   0.16180   0.00000  Uiso   1.00
H406   H     0.61360   0.39965   0.20715   0.00000  Uiso   1.00
C407   C     0.37898   0.56576   0.30811   0.00000  Uiso   1.00
H408   H     0.40762   0.55052   0.32065   0.00000  Uiso   1.00
H409   H     0.38642   0.60034   0.29283   0.00000  Uiso   1.00
H410   H     0.36025   0.57057   0.33819   0.00000  Uiso   1.00
O411   O     0.77321   0.53958   0.24999   0.00000  Uiso   1.00
O412   O     0.89345   0.46042   0.25000   0.00000  Uiso   1.00
O413   O     0.89345   0.53958   0.25000   0.00000  Uiso   1.00
O414   O     0.77321   0.46042   0.24999   0.00000  Uiso   1.00
C415   C     0.75401   0.49909   0.25120   0.00000  Uiso   1.00
C416   C     0.91266   0.50091   0.24879   0.00000  Uiso   1.00
O417   O     0.83332   0.53960   0.18513   0.00000  Uiso   1.00
O418   O     0.83334   0.46040   0.31487   0.00000  Uiso   1.00
O419   O     0.83334   0.53960   0.31487   0.00000  Uiso   1.00
O420   O     0.83332   0.46040   0.18513   0.00000  Uiso   1.00
C421   C     0.83372   0.50010   0.16460   0.00000  Uiso   1.00
C422   C     0.83295   0.49990   0.33540   0.00000  Uiso   1.00
Cu423  Cu    0.83333   0.54689   0.25000   0.00000  Uiso   1.00
Cu424  Cu    0.83333   0.45311   0.25000   0.00000  Uiso   1.00
C425   C     0.87000   0.50998   0.40669   0.00000  Uiso   1.00
C426   C     0.79666   0.49003   0.09331   0.00000  Uiso   1.00
C427   C     0.83311   0.49926   0.38353   0.00000  Uiso   1.00
C428   C     0.83355   0.50074   0.11647   0.00000  Uiso   1.00
C429   C     0.79669   0.48673   0.40612   0.00000  Uiso   1.00
C430   C     0.86998   0.51326   0.09388   0.00000  Uiso   1.00
C431   C     0.79692   0.48710   0.45286   0.00000  Uiso   1.00
C432   C     0.86975   0.51290   0.04714   0.00000  Uiso   1.00
C433   C     0.83331   0.49969   0.47649   0.00000  Uiso   1.00
C434   C     0.83336   0.50030   0.02351   0.00000  Uiso   1.00
C435   C     0.86973   0.51137   0.45336   0.00000  Uiso   1.00
C436   C     0.79694   0.48863   0.04663   0.00000  Uiso   1.00
C437   C     0.76134   0.47521   0.47666   0.00000  Uiso   1.00
C438   C     0.90534   0.52478   0.02334   0.00000  Uiso   1.00
C439   C     0.76135   0.47594   0.02242   0.00000  Uiso   1.00
C440   C     0.90532   0.52406   0.47758   0.00000  Uiso   1.00
H441   H     0.73275   0.46518   0.46043   0.00000  Uiso   1.00
H442   H     0.93392   0.53481   0.03957   0.00000  Uiso   1.00
H443   H     0.73288   0.46609   0.03836   0.00000  Uiso   1.00
H444   H     0.93379   0.53390   0.46164   0.00000  Uiso   1.00
C445   C     0.68617   0.46072   0.23163   0.00000  Uiso   1.00
C446   C     0.98049   0.53928   0.26836   0.00000  Uiso   1.00
C447   C     0.97729   0.46590   0.22498   0.00000  Uiso   1.00
C448   C     0.68938   0.53410   0.27501   0.00000  Uiso   1.00
C449   C     0.95747   0.50291   0.24641   0.00000  Uiso   1.00
C450   C     0.70919   0.49709   0.25359   0.00000  Uiso   1.00
C451   C     0.80980   0.35730   0.22035   0.00000  Uiso   1.00
C452   C     0.85686   0.64270   0.27965   0.00000  Uiso   1.00
C453   C     0.85692   0.35900   0.27961   0.00000  Uiso   1.00
C454   C     0.80975   0.64100   0.22038   0.00000  Uiso   1.00
H455   H     0.79108   0.37533   0.19651   0.00000  Uiso   1.00
H456   H     0.87559   0.62467   0.30349   0.00000  Uiso   1.00
H457   H     0.87583   0.37840   0.30331   0.00000  Uiso   1.00
H458   H     0.79083   0.62160   0.19669   0.00000  Uiso   1.00
N459   N     0.83333   0.61736   0.25000   0.00000  Uiso   1.00
N460   N     0.83333   0.38264   0.25000   0.00000  Uiso   1.00
C461   C     0.90999   0.51833   0.38206   0.00000  Uiso   1.00
H462   H     0.93334   0.49398   0.39454   0.00000  Uiso   1.00
H463   H     0.90761   0.51176   0.34605   0.00000  Uiso   1.00
H464   H     0.92112   0.55514   0.38706   0.00000  Uiso   1.00
C465   C     0.75668   0.48169   0.11794   0.00000  Uiso   1.00
H466   H     0.74554   0.44488   0.11295   0.00000  Uiso   1.00
H467   H     0.75904   0.48827   0.15395   0.00000  Uiso   1.00
H468   H     0.73332   0.50604   0.10544   0.00000  Uiso   1.00
C469   C     0.75758   0.47272   0.38092   0.00000  Uiso   1.00
H470   H     0.76053   0.47296   0.34453   0.00000  Uiso   1.00
H471   H     0.74776   0.43644   0.39010   0.00000  Uiso   1.00
H472   H     0.73300   0.49725   0.38914   0.00000  Uiso   1.00
C473   C     0.90909   0.52728   0.11908   0.00000  Uiso   1.00
H474   H     0.90614   0.52703   0.15547   0.00000  Uiso   1.00
H475   H     0.93367   0.50274   0.11086   0.00000  Uiso   1.00
H476   H     0.91892   0.56356   0.10990   0.00000  Uiso   1.00
C477   C     0.70608   0.41577   0.21680   0.00000  Uiso   1.00
H478   H     0.72105   0.39902   0.24562   0.00000  Uiso   1.00
H479   H     0.68446   0.38837   0.20388   0.00000  Uiso   1.00
H480   H     0.72871   0.42331   0.19055   0.00000  Uiso   1.00
C481   C     0.96059   0.58424   0.28318   0.00000  Uiso   1.00
H482   H     0.94561   0.60098   0.25435   0.00000  Uiso   1.00
H483   H     0.93797   0.57671   0.30944   0.00000  Uiso   1.00
H484   H     0.98222   0.61165   0.29608   0.00000  Uiso   1.00
C485   C     0.95435   0.43424   0.19188   0.00000  Uiso   1.00
H486   H     0.92571   0.44947   0.17935   0.00000  Uiso   1.00
H487   H     0.97307   0.42945   0.16180   0.00000  Uiso   1.00
H488   H     0.94693   0.39965   0.20715   0.00000  Uiso   1.00
C489   C     0.71232   0.56576   0.30811   0.00000  Uiso   1.00
H490   H     0.74095   0.55052   0.32065   0.00000  Uiso   1.00
H491   H     0.71975   0.60034   0.29283   0.00000  Uiso   1.00
H492   H     0.69359   0.57057   0.33819   0.00000  Uiso   1.00
O493   O     0.10655   0.87291   0.24999   0.00000  Uiso   1.00
O494   O     0.22679   0.79375   0.25000   0.00000  Uiso   1.00
O495   O     0.22679   0.87291   0.25000   0.00000  Uiso   1.00
O496   O     0.10655   0.79375   0.24999   0.00000  Uiso   1.00
C497   C     0.08734   0.83242   0.25120   0.00000  Uiso   1.00
C498   C     0.24599   0.83425   0.24879   0.00000  Uiso   1.00
O499   O     0.16666   0.87293   0.18513   0.00000  Uiso   1.00
O500   O     0.16668   0.79373   0.31487   0.00000  Uiso   1.00
O501   O     0.16668   0.87293   0.31487   0.00000  Uiso   1.00
O502   O     0.16666   0.79373   0.18513   0.00000  Uiso   1.00
C503   C     0.16705   0.83344   0.16460   0.00000  Uiso   1.00
C504   C     0.16628   0.83323   0.33540   0.00000  Uiso   1.00
Cu505  Cu    0.16667   0.88022   0.25000   0.00000  Uiso   1.00
Cu506  Cu    0.16667   0.78645   0.25000   0.00000  Uiso   1.00
C507   C     0.20334   0.84331   0.40669   0.00000  Uiso   1.00
C508   C     0.12999   0.82336   0.09331   0.00000  Uiso   1.00
C509   C     0.16645   0.83259   0.38353   0.00000  Uiso   1.00
C510   C     0.16689   0.83408   0.11647   0.00000  Uiso   1.00
C511   C     0.13002   0.82006   0.40612   0.00000  Uiso   1.00
C512   C     0.20332   0.84660   0.09388   0.00000  Uiso   1.00
C513   C     0.13025   0.82043   0.45286   0.00000  Uiso   1.00
C514   C     0.20309   0.84623   0.04714   0.00000  Uiso   1.00
C515   C     0.16664   0.83303   0.47649   0.00000  Uiso   1.00
C516   C     0.16669   0.83364   0.02351   0.00000  Uiso   1.00
C517   C     0.20307   0.84470   0.45336   0.00000  Uiso   1.00
C518   C     0.13027   0.82196   0.04663   0.00000  Uiso   1.00
C519   C     0.09467   0.80854   0.47666   0.00000  Uiso   1.00
C520   C     0.23867   0.85812   0.02334   0.00000  Uiso   1.00
C521   C     0.09469   0.80927   0.02242   0.00000  Uiso   1.00
C522   C     0.23865   0.85739   0.47758   0.00000  Uiso   1.00
H523   H     0.06609   0.79852   0.46043   0.00000  Uiso   1.00
H524   H     0.26725   0.86814   0.03957   0.00000  Uiso   1.00
H525   H     0.06621   0.79943   0.03836   0.00000  Uiso   1.00
H526   H     0.26713   0.86723   0.46164   0.00000  Uiso   1.00
C527   C     0.01951   0.79406   0.23163   0.00000  Uiso   1.00
C528   C     0.31383   0.87262   0.26836   0.00000  Uiso   1.00
C529   C     0.31062   0.79923   0.22498   0.00000  Uiso   1.00
C530   C     0.02271   0.86744   0.27501   0.00000  Uiso   1.00
C531   C     0.29081   0.83624   0.24641   0.00000  Uiso   1.00
C532   C     0.04252   0.83043   0.25359   0.00000  Uiso   1.00
C533   C     0.14314   0.69063   0.22035   0.00000  Uiso   1.00
C534   C     0.19020   0.97603   0.27965   0.00000  Uiso   1.00
C535   C     0.19025   0.69233   0.27961   0.00000  Uiso   1.00
C536   C     0.14308   0.97433   0.22038   0.00000  Uiso   1.00
H537   H     0.12441   0.70866   0.19651   0.00000  Uiso   1.00
H538   H     0.20892   0.95800   0.30349   0.00000  Uiso   1.00
H539   H     0.20917   0.71174   0.30331   0.00000  Uiso   1.00
H540   H     0.12417   0.95493   0.19669   0.00000  Uiso   1.00
N541   N     0.16667   0.95069   0.25000   0.00000  Uiso   1.00
N542   N     0.16667   0.71598   0.25000   0.00000  Uiso   1.00
C543   C     0.24332   0.85166   0.38206   0.00000  Uiso   1.00
H544   H     0.26668   0.82732   0.39454   0.00000  Uiso   1.00
H545   H     0.24095   0.84510   0.34605   0.00000  Uiso   1.00
H546   H     0.25445   0.88847   0.38706   0.00000  Uiso   1.00
C547   C     0.09001   0.81502   0.11794   0.00000  Uiso   1.00
H548   H     0.07888   0.77821   0.11295   0.00000  Uiso   1.00
H549   H     0.09238   0.82160   0.15395   0.00000  Uiso   1.00
H550   H     0.06666   0.83937   0.10544   0.00000  Uiso   1.00
C551   C     0.09091   0.80605   0.38092   0.00000  Uiso   1.00
H552   H     0.09387   0.80630   0.34453   0.00000  Uiso   1.00
H553   H     0.08109   0.76977   0.39010   0.00000  Uiso   1.00
H554   H     0.06633   0.83059   0.38914   0.00000  Uiso   1.00
C555   C     0.24242   0.86061   0.11908   0.00000  Uiso   1.00
H556   H     0.23947   0.86037   0.15547   0.00000  Uiso   1.00
H557   H     0.26700   0.83607   0.11086   0.00000  Uiso   1.00
H558   H     0.25225   0.89689   0.10990   0.00000  Uiso   1.00
C559   C     0.03942   0.74911   0.21680   0.00000  Uiso   1.00
H560   H     0.05438   0.73235   0.24562   0.00000  Uiso   1.00
H561   H     0.01779   0.72171   0.20388   0.00000  Uiso   1.00
H562   H     0.06204   0.75665   0.19055   0.00000  Uiso   1.00
C563   C     0.29392   0.91757   0.28318   0.00000  Uiso   1.00
H564   H     0.27895   0.93431   0.25435   0.00000  Uiso   1.00
H565   H     0.27130   0.91004   0.30944   0.00000  Uiso   1.00
H566   H     0.31556   0.94498   0.29608   0.00000  Uiso   1.00
C567   C     0.28768   0.76757   0.19188   0.00000  Uiso   1.00
H568   H     0.25904   0.78280   0.17935   0.00000  Uiso   1.00
H569   H     0.30640   0.76279   0.16180   0.00000  Uiso   1.00
H570   H     0.28027   0.73299   0.20715   0.00000  Uiso   1.00
C571   C     0.04565   0.89909   0.30811   0.00000  Uiso   1.00
H572   H     0.07428   0.88385   0.32065   0.00000  Uiso   1.00
H573   H     0.05308   0.93368   0.29283   0.00000  Uiso   1.00
H574   H     0.02692   0.90390   0.33819   0.00000  Uiso   1.00
O575   O     0.43988   0.87291   0.24999   0.00000  Uiso   1.00
O576   O     0.56012   0.79375   0.25000   0.00000  Uiso   1.00
O577   O     0.56012   0.87291   0.25000   0.00000  Uiso   1.00
O578   O     0.43988   0.79375   0.24999   0.00000  Uiso   1.00
C579   C     0.42067   0.83242   0.25120   0.00000  Uiso   1.00
C580   C     0.57933   0.83425   0.24879   0.00000  Uiso   1.00
O581   O     0.49999   0.87293   0.18513   0.00000  Uiso   1.00
O582   O     0.50001   0.79373   0.31487   0.00000  Uiso   1.00
O583   O     0.50001   0.87293   0.31487   0.00000  Uiso   1.00
O584   O     0.49999   0.79373   0.18513   0.00000  Uiso   1.00
C585   C     0.50038   0.83344   0.16460   0.00000  Uiso   1.00
C586   C     0.49962   0.83323   0.33540   0.00000  Uiso   1.00
Cu587  Cu    0.50000   0.88022   0.25000   0.00000  Uiso   1.00
Cu588  Cu    0.50000   0.78645   0.25000   0.00000  Uiso   1.00
C589   C     0.53667   0.84331   0.40669   0.00000  Uiso   1.00
C590   C     0.46333   0.82336   0.09331   0.00000  Uiso   1.00
C591   C     0.49978   0.83259   0.38353   0.00000  Uiso   1.00
C592   C     0.50022   0.83408   0.11647   0.00000  Uiso   1.00
C593   C     0.46335   0.82006   0.40612   0.00000  Uiso   1.00
C594   C     0.53665   0.84660   0.09388   0.00000  Uiso   1.00
C595   C     0.46358   0.82043   0.45286   0.00000  Uiso   1.00
C596   C     0.53642   0.84623   0.04714   0.00000  Uiso   1.00
C597   C     0.49998   0.83303   0.47649   0.00000  Uiso   1.00
C598   C     0.50003   0.83364   0.02351   0.00000  Uiso   1.00
C599   C     0.53640   0.84470   0.45336   0.00000  Uiso   1.00
C600   C     0.46360   0.82196   0.04663   0.00000  Uiso   1.00
C601   C     0.42800   0.80854   0.47666   0.00000  Uiso   1.00
C602   C     0.57200   0.85812   0.02334   0.00000  Uiso   1.00
C603   C     0.42802   0.80927   0.02242   0.00000  Uiso   1.00
C604   C     0.57198   0.85739   0.47758   0.00000  Uiso   1.00
H605   H     0.39942   0.79852   0.46043   0.00000  Uiso   1.00
H606   H     0.60059   0.86814   0.03957   0.00000  Uiso   1.00
H607   H     0.39954   0.79943   0.03836   0.00000  Uiso   1.00
H608   H     0.60046   0.86723   0.46164   0.00000  Uiso   1.00
C609   C     0.35284   0.79406   0.23163   0.00000  Uiso   1.00
C610   C     0.64716   0.87262   0.26836   0.00000  Uiso   1.00
C611   C     0.64396   0.79923   0.22498   0.00000  Uiso   1.00
C612   C     0.35604   0.86744   0.27501   0.00000  Uiso   1.00
C613   C     0.62414   0.83624   0.24641   0.00000  Uiso   1.00
C614   C     0.37586   0.83043   0.25359   0.00000  Uiso   1.00
C615   C     0.47647   0.69063   0.22035   0.00000  Uiso   1.00
C616   C     0.52353   0.97603   0.27965   0.00000  Uiso   1.00
C617   C     0.52358   0.69233   0.27961   0.00000  Uiso   1.00
C618   C     0.47642   0.97433   0.22038   0.00000  Uiso   1.00
H619   H     0.45775   0.70866   0.19651   0.00000  Uiso   1.00
H620   H     0.54225   0.95800   0.30349   0.00000  Uiso   1.00
H621   H     0.54250   0.71174   0.30331   0.00000  Uiso   1.00
H622   H     0.45750   0.95493   0.19669   0.00000  Uiso   1.00
N623   N     0.50000   0.95069   0.25000   0.00000  Uiso   1.00
N624   N     0.50000   0.71598   0.25000   0.00000  Uiso   1.00
C625   C     0.57665   0.85166   0.38206   0.00000  Uiso   1.00
H626   H     0.60001   0.82732   0.39454   0.00000  Uiso   1.00
H627   H     0.57428   0.84510   0.34605   0.00000  Uiso   1.00
H628   H     0.58778   0.88847   0.38706   0.00000  Uiso   1.00
C629   C     0.42334   0.81502   0.11794   0.00000  Uiso   1.00
H630   H     0.41221   0.77821   0.11295   0.00000  Uiso   1.00
H631   H     0.42571   0.82160   0.15395   0.00000  Uiso   1.00
H632   H     0.39999   0.83937   0.10544   0.00000  Uiso   1.00
C633   C     0.42425   0.80605   0.38092   0.00000  Uiso   1.00
H634   H     0.42720   0.80630   0.34453   0.00000  Uiso   1.00
H635   H     0.41442   0.76977   0.39010   0.00000  Uiso   1.00
H636   H     0.39967   0.83059   0.38914   0.00000  Uiso   1.00
C637   C     0.57576   0.86061   0.11908   0.00000  Uiso   1.00
H638   H     0.57280   0.86037   0.15547   0.00000  Uiso   1.00
H639   H     0.60034   0.83607   0.11086   0.00000  Uiso   1.00
H640   H     0.58558   0.89689   0.10990   0.00000  Uiso   1.00
C641   C     0.37275   0.74911   0.21680   0.00000  Uiso   1.00
H642   H     0.38772   0.73235   0.24562   0.00000  Uiso   1.00
H643   H     0.35112   0.72171   0.20388   0.00000  Uiso   1.00
H644   H     0.39538   0.75665   0.19055   0.00000  Uiso   1.00
C645   C     0.62725   0.91757   0.28318   0.00000  Uiso   1.00
H646   H     0.61228   0.93431   0.25435   0.00000  Uiso   1.00
H647   H     0.60464   0.91004   0.30944   0.00000  Uiso   1.00
H648   H     0.64889   0.94498   0.29608   0.00000  Uiso   1.00
C649   C     0.62102   0.76757   0.19188   0.00000  Uiso   1.00
H650   H     0.59237   0.78280   0.17935   0.00000  Uiso   1.00
H651   H     0.63974   0.76279   0.16180   0.00000  Uiso   1.00
H652   H     0.61360   0.73299   0.20715   0.00000  Uiso   1.00
C653   C     0.37898   0.89909   0.30811   0.00000  Uiso   1.00
H654   H     0.40762   0.88385   0.32065   0.00000  Uiso   1.00
H655   H     0.38642   0.93368   0.29283   0.00000  Uiso   1.00
H656   H     0.36025   0.90390   0.33819   0.00000  Uiso   1.00
O657   O     0.77321   0.87291   0.24999   0.00000  Uiso   1.00
O658   O     0.89345   0.79375   0.25000   0.00000  Uiso   1.00
O659   O     0.89345   0.87291   0.25000   0.00000  Uiso   1.00
O660   O     0.77321   0.79375   0.24999   0.00000  Uiso   1.00
C661   C     0.75401   0.83242   0.25120   0.00000  Uiso   1.00
C662   C     0.91266   0.83425   0.24879   0.00000  Uiso   1.00
O663   O     0.83332   0.87293   0.18513   0.00000  Uiso   1.00
O664   O     0.83334   0.79373   0.31487   0.00000  Uiso   1.00
O665   O     0.83334   0.87293   0.31487   0.00000  Uiso   1.00
O666   O     0.83332   0.79373   0.18513   0.00000  Uiso   1.00
C667   C     0.83372   0.83344   0.16460   0.00000  Uiso   1.00
C668   C     0.83295   0.83323   0.33540   0.00000  Uiso   1.00
Cu669  Cu    0.83333   0.88022   0.25000   0.00000  Uiso   1.00
Cu670  Cu    0.83333   0.78645   0.25000   0.00000  Uiso   1.00
C671   C     0.87000   0.84331   0.40669   0.00000  Uiso   1.00
C672   C     0.79666   0.82336   0.09331   0.00000  Uiso   1.00
C673   C     0.83311   0.83259   0.38353   0.00000  Uiso   1.00
C674   C     0.83355   0.83408   0.11647   0.00000  Uiso   1.00
C675   C     0.79669   0.82006   0.40612   0.00000  Uiso   1.00
C676   C     0.86998   0.84660   0.09388   0.00000  Uiso   1.00
C677   C     0.79692   0.82043   0.45286   0.00000  Uiso   1.00
C678   C     0.86975   0.84623   0.04714   0.00000  Uiso   1.00
C679   C     0.83331   0.83303   0.47649   0.00000  Uiso   1.00
C680   C     0.83336   0.83364   0.02351   0.00000  Uiso   1.00
C681   C     0.86973   0.84470   0.45336   0.00000  Uiso   1.00
C682   C     0.79694   0.82196   0.04663   0.00000  Uiso   1.00
C683   C     0.76134   0.80854   0.47666   0.00000  Uiso   1.00
C684   C     0.90534   0.85812   0.02334   0.00000  Uiso   1.00
C685   C     0.76135   0.80927   0.02242   0.00000  Uiso   1.00
C686   C     0.90532   0.85739   0.47758   0.00000  Uiso   1.00
H687   H     0.73275   0.79852   0.46043   0.00000  Uiso   1.00
H688   H     0.93392   0.86814   0.03957   0.00000  Uiso   1.00
H689   H     0.73288   0.79943   0.03836   0.00000  Uiso   1.00
H690   H     0.93379   0.86723   0.46164   0.00000  Uiso   1.00
C691   C     0.68617   0.79406   0.23163   0.00000  Uiso   1.00
C692   C     0.98049   0.87262   0.26836   0.00000  Uiso   1.00
C693   C     0.97729   0.79923   0.22498   0.00000  Uiso   1.00
C694   C     0.68938   0.86744   0.27501   0.00000  Uiso   1.00
C695   C     0.95747   0.83624   0.24641   0.00000  Uiso   1.00
C696   C     0.70919   0.83043   0.25359   0.00000  Uiso   1.00
C697   C     0.80980   0.69063   0.22035   0.00000  Uiso   1.00
C698   C     0.85686   0.97603   0.27965   0.00000  Uiso   1.00
C699   C     0.85692   0.69233   0.27961   0.00000  Uiso   1.00
C700   C     0.80975   0.97433   0.22038   0.00000  Uiso   1.00
H701   H     0.79108   0.70866   0.19651   0.00000  Uiso   1.00
H702   H     0.87559   0.95800   0.30349   0.00000  Uiso   1.00
H703   H     0.87583   0.71174   0.30331   0.00000  Uiso   1.00
H704   H     0.79083   0.95493   0.19669   0.00000  Uiso   1.00
N705   N     0.83333   0.95069   0.25000   0.00000  Uiso   1.00
N706   N     0.83333   0.71598   0.25000   0.00000  Uiso   1.00
C707   C     0.90999   0.85166   0.38206   0.00000  Uiso   1.00
H708   H     0.93334   0.82732   0.39454   0.00000  Uiso   1.00
H709   H     0.90761   0.84510   0.34605   0.00000  Uiso   1.00
H710   H     0.92112   0.88847   0.38706   0.00000  Uiso   1.00
C711   C     0.75668   0.81502   0.11794   0.00000  Uiso   1.00
H712   H     0.74554   0.77821   0.11295   0.00000  Uiso   1.00
H713   H     0.75904   0.82160   0.15395   0.00000  Uiso   1.00
H714   H     0.73332   0.83937   0.10544   0.00000  Uiso   1.00
C715   C     0.75758   0.80605   0.38092   0.00000  Uiso   1.00
H716   H     0.76053   0.80630   0.34453   0.00000  Uiso   1.00
H717   H     0.74776   0.76977   0.39010   0.00000  Uiso   1.00
H718   H     0.73300   0.83059   0.38914   0.00000  Uiso   1.00
C719   C     0.90909   0.86061   0.11908   0.00000  Uiso   1.00
H720   H     0.90614   0.86037   0.15547   0.00000  Uiso   1.00
H721   H     0.93367   0.83607   0.11086   0.00000  Uiso   1.00
H722   H     0.91892   0.89689   0.10990   0.00000  Uiso   1.00
C723   C     0.70608   0.74911   0.21680   0.00000  Uiso   1.00
H724   H     0.72105   0.73235   0.24562   0.00000  Uiso   1.00
H725   H     0.68446   0.72171   0.20388   0.00000  Uiso   1.00
H726   H     0.72871   0.75665   0.19055   0.00000  Uiso   1.00
C727   C     0.96059   0.91757   0.28318   0.00000  Uiso   1.00
H728   H     0.94561   0.93431   0.25435   0.00000  Uiso   1.00
H729   H     0.93797   0.91004   0.30944   0.00000  Uiso   1.00
H730   H     0.98222   0.94498   0.29608   0.00000  Uiso   1.00
C731   C     0.95435   0.76757   0.19188   0.00000  Uiso   1.00
H732   H     0.92571   0.78280   0.17935   0.00000  Uiso   1.00
H733   H     0.97307   0.76279   0.16180   0.00000  Uiso   1.00
H734   H     0.94693   0.73299   0.20715   0.00000  Uiso   1.00
C735   C     0.71232   0.89909   0.30811   0.00000  Uiso   1.00
H736   H     0.74095   0.88385   0.32065   0.00000  Uiso   1.00
H737   H     0.71975   0.93368   0.29283   0.00000  Uiso   1.00
H738   H     0.69359   0.90390   0.33819   0.00000  Uiso   1.00
O739   O     0.10655   0.20625   0.74999   0.00000  Uiso   1.00
O740   O     0.22679   0.12709   0.75000   0.00000  Uiso   1.00
O741   O     0.22679   0.20625   0.75000   0.00000  Uiso   1.00
O742   O     0.10655   0.12709   0.74999   0.00000  Uiso   1.00
C743   C     0.08734   0.16575   0.75120   0.00000  Uiso   1.00
C744   C     0.24599   0.16758   0.74879   0.00000  Uiso   1.00
O745   O     0.16666   0.20627   0.68513   0.00000  Uiso   1.00
O746   O     0.16668   0.12707   0.81487   0.00000  Uiso   1.00
O747   O     0.16668   0.20627   0.81487   0.00000  Uiso   1.00
O748   O     0.16666   0.12707   0.68513   0.00000  Uiso   1.00
C749   C     0.16705   0.16677   0.66460   0.00000  Uiso   1.00
C750   C     0.16628   0.16656   0.83540   0.00000  Uiso   1.00
Cu751  Cu    0.16667   0.21355   0.75000   0.00000  Uiso   1.00
Cu752  Cu    0.16667   0.11978   0.75000   0.00000  Uiso   1.00
C753   C     0.20334   0.17665   0.90669   0.00000  Uiso   1.00
C754   C     0.12999   0.15669   0.59331   0.00000  Uiso   1.00
C755   C     0.16645   0.16592   0.88353   0.00000  Uiso   1.00
C756   C     0.16689   0.16741   0.61647   0.00000  Uiso   1.00
C757   C     0.13002   0.15340   0.90612   0.00000  Uiso   1.00
C758   C     0.20332   0.17993   0.59388   0.00000  Uiso   1.00
C759   C     0.13025   0.15377   0.95286   0.00000  Uiso   1.00
C760   C     0.20309   0.17956   0.54714   0.00000  Uiso   1.00
C761   C     0.16664   0.16636   0.97649   0.00000  Uiso   1.00
C762   C     0.16669   0.16697   0.52351   0.00000  Uiso   1.00
C763   C     0.20307   0.17803   0.95336   0.00000  Uiso   1.00
C764   C     0.13027   0.15530   0.54663   0.00000  Uiso   1.00
C765   C     0.09467   0.14187   0.97666   0.00000  Uiso   1.00
C766   C     0.23867   0.19145   0.52334   0.00000  Uiso   1.00
C767   C     0.09469   0.14260   0.52242   0.00000  Uiso   1.00
C768   C     0.23865   0.19073   0.97758   0.00000  Uiso   1.00
H769   H     0.06609   0.13185   0.96043   0.00000  Uiso   1.00
H770   H     0.26725   0.20147   0.53957   0.00000  Uiso   1.00
H771   H     0.06621   0.13276   0.53836   0.00000  Uiso   1.00
H772   H     0.26713   0.20057   0.96164   0.00000  Uiso   1.00
C773   C     0.01951   0.12739   0.73163   0.00000  Uiso   1.00
C774   C     0.31383   0.20595   0.76836   0.00000  Uiso   1.00
C775   C     0.31062   0.13257   0.72498   0.00000  Uiso   1.00
C776   C     0.02271   0.20077   0.77501   0.00000  Uiso   1.00
C777   C     0.29081   0.16958   0.74641   0.00000  Uiso   1.00
C778   C     0.04252   0.16376   0.75359   0.00000  Uiso   1.00
C779   C     0.14314   0.02397   0.72035   0.00000  Uiso   1.00
C780   C     0.19020   0.30937   0.77965   0.00000  Uiso   1.00
C781   C     0.19025   0.02567   0.77961   0.00000  Uiso   1.00
C782   C     0.14308   0.30767   0.72038   0.00000  Uiso   1.00
H783   H     0.12441   0.04200   0.69651   0.00000  Uiso   1.00
H784   H     0.20892   0.29134   0.80349   0.00000  Uiso   1.00
H785   H     0.20917   0.04507   0.80331   0.00000  Uiso   1.00
H786   H     0.12417   0.28826   0.69669   0.00000  Uiso   1.00
N787   N     0.16667   0.28402   0.75000   0.00000  Uiso   1.00
N788   N     0.16667   0.04931   0.75000   0.00000  Uiso   1.00
C789   C     0.24332   0.18500   0.88206   0.00000  Uiso   1.00
H790   H     0.26668   0.16065   0.89454   0.00000  Uiso   1.00
H791   H     0.24095   0.17843   0.84605   0.00000  Uiso   1.00
H792   H     0.25445   0.22181   0.88706   0.00000  Uiso   1.00
C793   C     0.09001   0.14836   0.61794   0.00000  Uiso   1.00
H794   H     0.07888   0.11155   0.61295   0.00000  Uiso   1.00
H795   H     0.09238   0.15494   0.65395   0.00000  Uiso   1.00
H796   H     0.06666   0.17270   0.60544   0.00000  Uiso   1.00
C797   C     0.09091   0.13938   0.88092   0.00000  Uiso   1.00
H798   H     0.09387   0.13963   0.84453   0.00000  Uiso   1.00
H799   H     0.08109   0.10310   0.89010   0.00000  Uiso   1.00
H800   H     0.06633   0.16392   0.88914   0.00000  Uiso   1.00
C801   C     0.24242   0.19394   0.61908   0.00000  Uiso   1.00
H802   H     0.23947   0.19370   0.65547   0.00000  Uiso   1.00
H803   H     0.26700   0.16940   0.61086   0.00000  Uiso   1.00
H804   H     0.25225   0.23022   0.60990   0.00000  Uiso   1.00
C805   C     0.03942   0.08244   0.71680   0.00000  Uiso   1.00
H806   H     0.05438   0.06568   0.74562   0.00000  Uiso   1.00
H807   H     0.01779   0.05504   0.70388   0.00000  Uiso   1.00
H808   H     0.06204   0.08998   0.69055   0.00000  Uiso   1.00
C809   C     0.29392   0.25090   0.78318   0.00000  Uiso   1.00
H810   H     0.27895   0.26765   0.75435   0.00000  Uiso   1.00
H811   H     0.27130   0.24338   0.80944   0.00000  Uiso   1.00
H812   H     0.31556   0.27831   0.79608   0.00000  Uiso   1.00
C813   C     0.28768   0.10091   0.69188   0.00000  Uiso   1.00
H814   H     0.25904   0.11613   0.67935   0.00000  Uiso   1.00
H815   H     0.30640   0.09612   0.66180   0.00000  Uiso   1.00
H816   H     0.28027   0.06632   0.70715   0.00000  Uiso   1.00
C817   C     0.04565   0.23243   0.80811   0.00000  Uiso   1.00
H818   H     0.07428   0.21719   0.82065   0.00000  Uiso   1.00
H819   H     0.05308   0.26701   0.79283   0.00000  Uiso   1.00
H820   H     0.02692   0.23723   0.83819   0.00000  Uiso   1.00
O821   O     0.43988   0.20625   0.74999   0.00000  Uiso   1.00
O822   O     0.56012   0.12709   0.75000   0.00000  Uiso   1.00
O823   O     0.56012   0.20625   0.75000   0.00000  Uiso   1.00
O824   O     0.43988   0.12709   0.74999   0.00000  Uiso   1.00
C825   C     0.42067   0.16575   0.75120   0.00000  Uiso   1.00
C826   C     0.57933   0.16758   0.74879   0.00000  Uiso   1.00
O827   O     0.49999   0.20627   0.68513   0.00000  Uiso   1.00
O828   O     0.50001   0.12707   0.81487   0.00000  Uiso   1.00
O829   O     0.50001   0.20627   0.81487   0.00000  Uiso   1.00
O830   O     0.49999   0.12707   0.68513   0.00000  Uiso   1.00
C831   C     0.50038   0.16677   0.66460   0.00000  Uiso   1.00
C832   C     0.49962   0.16656   0.83540   0.00000  Uiso   1.00
Cu833  Cu    0.50000   0.21355   0.75000   0.00000  Uiso   1.00
Cu834  Cu    0.50000   0.11978   0.75000   0.00000  Uiso   1.00
C835   C     0.53667   0.17665   0.90669   0.00000  Uiso   1.00
C836   C     0.46333   0.15669   0.59331   0.00000  Uiso   1.00
C837   C     0.49978   0.16592   0.88353   0.00000  Uiso   1.00
C838   C     0.50022   0.16741   0.61647   0.00000  Uiso   1.00
C839   C     0.46335   0.15340   0.90612   0.00000  Uiso   1.00
C840   C     0.53665   0.17993   0.59388   0.00000  Uiso   1.00
C841   C     0.46358   0.15377   0.95286   0.00000  Uiso   1.00
C842   C     0.53642   0.17956   0.54714   0.00000  Uiso   1.00
C843   C     0.49998   0.16636   0.97649   0.00000  Uiso   1.00
C844   C     0.50003   0.16697   0.52351   0.00000  Uiso   1.00
C845   C     0.53640   0.17803   0.95336   0.00000  Uiso   1.00
C846   C     0.46360   0.15530   0.54663   0.00000  Uiso   1.00
C847   C     0.42800   0.14187   0.97666   0.00000  Uiso   1.00
C848   C     0.57200   0.19145   0.52334   0.00000  Uiso   1.00
C849   C     0.42802   0.14260   0.52242   0.00000  Uiso   1.00
C850   C     0.57198   0.19073   0.97758   0.00000  Uiso   1.00
H851   H     0.39942   0.13185   0.96043   0.00000  Uiso   1.00
H852   H     0.60059   0.20147   0.53957   0.00000  Uiso   1.00
H853   H     0.39954   0.13276   0.53836   0.00000  Uiso   1.00
H854   H     0.60046   0.20057   0.96164   0.00000  Uiso   1.00
C855   C     0.35284   0.12739   0.73163   0.00000  Uiso   1.00
C856   C     0.64716   0.20595   0.76836   0.00000  Uiso   1.00
C857   C     0.64396   0.13257   0.72498   0.00000  Uiso   1.00
C858   C     0.35604   0.20077   0.77501   0.00000  Uiso   1.00
C859   C     0.62414   0.16958   0.74641   0.00000  Uiso   1.00
C860   C     0.37586   0.16376   0.75359   0.00000  Uiso   1.00
C861   C     0.47647   0.02397   0.72035   0.00000  Uiso   1.00
C862   C     0.52353   0.30937   0.77965   0.00000  Uiso   1.00
C863   C     0.52358   0.02567   0.77961   0.00000  Uiso   1.00
C864   C     0.47642   0.30767   0.72038   0.00000  Uiso   1.00
H865   H     0.45775   0.04200   0.69651   0.00000  Uiso   1.00
H866   H     0.54225   0.29134   0.80349   0.00000  Uiso   1.00
H867   H     0.54250   0.04507   0.80331   0.00000  Uiso   1.00
H868   H     0.45750   0.28826   0.69669   0.00000  Uiso   1.00
N869   N     0.50000   0.28402   0.75000   0.00000  Uiso   1.00
N870   N     0.50000   0.04931   0.75000   0.00000  Uiso   1.00
C871   C     0.57665   0.18500   0.88206   0.00000  Uiso   1.00
H872   H     0.60001   0.16065   0.89454   0.00000  Uiso   1.00
H873   H     0.57428   0.17843   0.84605   0.00000  Uiso   1.00
H874   H     0.58778   0.22181   0.88706   0.00000  Uiso   1.00
C875   C     0.42334   0.14836   0.61794   0.00000  Uiso   1.00
H876   H     0.41221   0.11155   0.61295   0.00000  Uiso   1.00
H877   H     0.42571   0.15494   0.65395   0.00000  Uiso   1.00
H878   H     0.39999   0.17270   0.60544   0.00000  Uiso   1.00
C879   C     0.42425   0.13938   0.88092   0.00000  Uiso   1.00
H880   H     0.42720   0.13963   0.84453   0.00000  Uiso   1.00
H881   H     0.41442   0.10310   0.89010   0.00000  Uiso   1.00
H882   H     0.39967   0.16392   0.88914   0.00000  Uiso   1.00
C883   C     0.57576   0.19394   0.61908   0.00000  Uiso   1.00
H884   H     0.57280   0.19370   0.65547   0.00000  Uiso   1.00
H885   H     0.60034   0.16940   0.61086   0.00000  Uiso   1.00
H886   H     0.58558   0.23022   0.60990   0.00000  Uiso   1.00
C887   C     0.37275   0.08244   0.71680   0.00000  Uiso   1.00
H888   H     0.38772   0.06568   0.74562   0.00000  Uiso   1.00
H889   H     0.35112   0.05504   0.70388   0.00000  Uiso   1.00
H890   H     0.39538   0.08998   0.69055   0.00000  Uiso   1.00
C891   C     0.62725   0.25090   0.78318   0.00000  Uiso   1.00
H892   H     0.61228   0.26765   0.75435   0.00000  Uiso   1.00
H893   H     0.60464   0.24338   0.80944   0.00000  Uiso   1.00
H894   H     0.64889   0.27831   0.79608   0.00000  Uiso   1.00
C895   C     0.62102   0.10091   0.69188   0.00000  Uiso   1.00
H896   H     0.59237   0.11613   0.67935   0.00000  Uiso   1.00
H897   H     0.63974   0.09612   0.66180   0.00000  Uiso   1.00
H898   H     0.61360   0.06632   0.70715   0.00000  Uiso   1.00
C899   C     0.37898   0.23243   0.80811   0.00000  Uiso   1.00
H900   H     0.40762   0.21719   0.82065   0.00000  Uiso   1.00
H901   H     0.38642   0.26701   0.79283   0.00000  Uiso   1.00
H902   H     0.36025   0.23723   0.83819   0.00000  Uiso   1.00
O903   O     0.77321   0.20625   0.74999   0.00000  Uiso   1.00
O904   O     0.89345   0.12709   0.75000   0.00000  Uiso   1.00
O905   O     0.89345   0.20625   0.75000   0.00000  Uiso   1.00
O906   O     0.77321   0.12709   0.74999   0.00000  Uiso   1.00
C907   C     0.75401   0.16575   0.75120   0.00000  Uiso   1.00
C908   C     0.91266   0.16758   0.74879   0.00000  Uiso   1.00
O909   O     0.83332   0.20627   0.68513   0.00000  Uiso   1.00
O910   O     0.83334   0.12707   0.81487   0.00000  Uiso   1.00
O911   O     0.83334   0.20627   0.81487   0.00000  Uiso   1.00
O912   O     0.83332   0.12707   0.68513   0.00000  Uiso   1.00
C913   C     0.83372   0.16677   0.66460   0.00000  Uiso   1.00
C914   C     0.83295   0.16656   0.83540   0.00000  Uiso   1.00
Cu915  Cu    0.83333   0.21355   0.75000   0.00000  Uiso   1.00
Cu916  Cu    0.83333   0.11978   0.75000   0.00000  Uiso   1.00
C917   C     0.87000   0.17665   0.90669   0.00000  Uiso   1.00
C918   C     0.79666   0.15669   0.59331   0.00000  Uiso   1.00
C919   C     0.83311   0.16592   0.88353   0.00000  Uiso   1.00
C920   C     0.83355   0.16741   0.61647   0.00000  Uiso   1.00
C921   C     0.79669   0.15340   0.90612   0.00000  Uiso   1.00
C922   C     0.86998   0.17993   0.59388   0.00000  Uiso   1.00
C923   C     0.79692   0.15377   0.95286   0.00000  Uiso   1.00
C924   C     0.86975   0.17956   0.54714   0.00000  Uiso   1.00
C925   C     0.83331   0.16636   0.97649   0.00000  Uiso   1.00
C926   C     0.83336   0.16697   0.52351   0.00000  Uiso   1.00
C927   C     0.86973   0.17803   0.95336   0.00000  Uiso   1.00
C928   C     0.79694   0.15530   0.54663   0.00000  Uiso   1.00
C929   C     0.76134   0.14187   0.97666   0.00000  Uiso   1.00
C930   C     0.90534   0.19145   0.52334   0.00000  Uiso   1.00
C931   C     0.76135   0.14260   0.52242   0.00000  Uiso   1.00
C932   C     0.90532   0.19073   0.97758   0.00000  Uiso   1.00
H933   H     0.73275   0.13185   0.96043   0.00000  Uiso   1.00
H934   H     0.93392   0.20147   0.53957   0.00000  Uiso   1.00
H935   H     0.73288   0.13276   0.53836   0.00000  Uiso   1.00
H936   H     0.93379   0.20057   0.96164   0.00000  Uiso   1.00
C937   C     0.68617   0.12739   0.73163   0.00000  Uiso   1.00
C938   C     0.98049   0.20595   0.76836   0.00000  Uiso   1.00
C939   C     0.97729   0.13257   0.72498   0.00000  Uiso   1.00
C940   C     0.68938   0.20077   0.77501   0.00000  Uiso   1.00
C941   C     0.95747   0.16958   0.74641   0.00000  Uiso   1.00
C942   C     0.70919   0.16376   0.75359   0.00000  Uiso   1.00
C943   C     0.80980   0.02397   0.72035   0.00000  Uiso   1.00
C944   C     0.85686   0.30937   0.77965   0.00000  Uiso   1.00
C945   C     0.85692   0.02567   0.77961   0.00000  Uiso   1.00
C946   C     0.80975   0.30767   0.72038   0.00000  Uiso   1.00
H947   H     0.79108   0.04200   0.69651   0.00000  Uiso   1.00
H948   H     0.87559   0.29134   0.80349   0.00000  Uiso   1.00
H949   H     0.87583   0.04507   0.80331   0.00000  Uiso   1.00
H950   H     0.79083   0.28826   0.69669   0.00000  Uiso   1.00
N951   N     0.83333   0.28402   0.75000   0.00000  Uiso   1.00
N952   N     0.83333   0.04931   0.75000   0.00000  Uiso   1.00
C953   C     0.90999   0.18500   0.88206   0.00000  Uiso   1.00
H954   H     0.93334   0.16065   0.89454   0.00000  Uiso   1.00
H955   H     0.90761   0.17843   0.84605   0.00000  Uiso   1.00
H956   H     0.92112   0.22181   0.88706   0.00000  Uiso   1.00
C957   C     0.75668   0.14836   0.61794   0.00000  Uiso   1.00
H958   H     0.74554   0.11155   0.61295   0.00000  Uiso   1.00
H959   H     0.75904   0.15494   0.65395   0.00000  Uiso   1.00
H960   H     0.73332   0.17270   0.60544   0.00000  Uiso   1.00
C961   C     0.75758   0.13938   0.88092   0.00000  Uiso   1.00
H962   H     0.76053   0.13963   0.84453   0.00000  Uiso   1.00
H963   H     0.74776   0.10310   0.89010   0.00000  Uiso   1.00
H964   H     0.73300   0.16392   0.88914   0.00000  Uiso   1.00
C965   C     0.90909   0.19394   0.61908   0.00000  Uiso   1.00
H966   H     0.90614   0.19370   0.65547   0.00000  Uiso   1.00
H967   H     0.93367   0.16940   0.61086   0.00000  Uiso   1.00
H968   H     0.91892   0.23022   0.60990   0.00000  Uiso   1.00
C969   C     0.70608   0.08244   0.71680   0.00000  Uiso   1.00
H970   H     0.72105   0.06568   0.74562   0.00000  Uiso   1.00
H971   H     0.68446   0.05504   0.70388   0.00000  Uiso   1.00
H972   H     0.72871   0.08998   0.69055   0.00000  Uiso   1.00
C973   C     0.96059   0.25090   0.78318   0.00000  Uiso   1.00
H974   H     0.94561   0.26765   0.75435   0.00000  Uiso   1.00
H975   H     0.93797   0.24338   0.80944   0.00000  Uiso   1.00
H976   H     0.98222   0.27831   0.79608   0.00000  Uiso   1.00
C977   C     0.95435   0.10091   0.69188   0.00000  Uiso   1.00
H978   H     0.92571   0.11613   0.67935   0.00000  Uiso   1.00
H979   H     0.97307   0.09612   0.66180   0.00000  Uiso   1.00
H980   H     0.94693   0.06632   0.70715   0.00000  Uiso   1.00
C981   C     0.71232   0.23243   0.80811   0.00000  Uiso   1.00
H982   H     0.74095   0.21719   0.82065   0.00000  Uiso   1.00
H983   H     0.71975   0.26701   0.79283   0.00000  Uiso   1.00
H984   H     0.69359   0.23723   0.83819   0.00000  Uiso   1.00
O985   O     0.10655   0.53958   0.74999   0.00000  Uiso   1.00
O986   O     0.22679   0.46042   0.75000   0.00000  Uiso   1.00
O987   O     0.22679   0.53958   0.75000   0.00000  Uiso   1.00
O988   O     0.10655   0.46042   0.74999   0.00000  Uiso   1.00
C989   C     0.08734   0.49909   0.75120   0.00000  Uiso   1.00
C990   C     0.24599   0.50091   0.74879   0.00000  Uiso   1.00
O991   O     0.16666   0.53960   0.68513   0.00000  Uiso   1.00
O992   O     0.16668   0.46040   0.81487   0.00000  Uiso   1.00
O993   O     0.16668   0.53960   0.81487   0.00000  Uiso   1.00
O994   O     0.16666   0.46040   0.68513   0.00000  Uiso   1.00
C995   C     0.16705   0.50010   0.66460   0.00000  Uiso   1.00
C996   C     0.16628   0.49990   0.83540   0.00000  Uiso   1.00
Cu997  Cu    0.16667   0.54689   0.75000   0.00000  Uiso   1.00
Cu998  Cu    0.16667   0.45311   0.75000   0.00000  Uiso   1.00
C999   C     0.20334   0.50998   0.90669   0.00000  Uiso   1.00
C1000  C     0.12999   0.49003   0.59331   0.00000  Uiso   1.00
C1001  C     0.16645   0.49926   0.88353   0.00000  Uiso   1.00
C1002  C     0.16689   0.50074   0.61647   0.00000  Uiso   1.00
C1003  C     0.13002   0.48673   0.90612   0.00000  Uiso   1.00
C1004  C     0.20332   0.51326   0.59388   0.00000  Uiso   1.00
C1005  C     0.13025   0.48710   0.95286   0.00000  Uiso   1.00
C1006  C     0.20309   0.51290   0.54714   0.00000  Uiso   1.00
C1007  C     0.16664   0.49969   0.97649   0.00000  Uiso   1.00
C1008  C     0.16669   0.50030   0.52351   0.00000  Uiso   1.00
C1009  C     0.20307   0.51137   0.95336   0.00000  Uiso   1.00
C1010  C     0.13027   0.48863   0.54663   0.00000  Uiso   1.00
C1011  C     0.09467   0.47521   0.97666   0.00000  Uiso   1.00
C1012  C     0.23867   0.52478   0.52334   0.00000  Uiso   1.00
C1013  C     0.09469   0.47594   0.52242   0.00000  Uiso   1.00
C1014  C     0.23865   0.52406   0.97758   0.00000  Uiso   1.00
H1015  H     0.06609   0.46518   0.96043   0.00000  Uiso   1.00
H1016  H     0.26725   0.53481   0.53957   0.00000  Uiso   1.00
H1017  H     0.06621   0.46609   0.53836   0.00000  Uiso   1.00
H1018  H     0.26713   0.53390   0.96164   0.00000  Uiso   1.00
C1019  C     0.01951   0.46072   0.73163   0.00000  Uiso   1.00
C1020  C     0.31383   0.53928   0.76836   0.00000  Uiso   1.00
C1021  C     0.31062   0.46590   0.72498   0.00000  Uiso   1.00
C1022  C     0.02271   0.53410   0.77501   0.00000  Uiso   1.00
C1023  C     0.29081   0.50291   0.74641   0.00000  Uiso   1.00
C1024  C     0.04252   0.49709   0.75359   0.00000  Uiso   1.00
C1025  C     0.14314   0.35730   0.72035   0.00000  Uiso   1.00
C1026  C     0.19020   0.64270   0.77965   0.00000  Uiso   1.00
C1027  C     0.19025   0.35900   0.77961   0.00000  Uiso   1.00
C1028  C     0.14308   0.64100   0.72038   0.00000  Uiso   1.00
H1029  H     0.12441   0.37533   0.69651   0.00000  Uiso   1.00
H1030  H     0.20892   0.62467   0.80349   0.00000  Uiso   1.00
H1031  H     0.20917   0.37840   0.80331   0.00000  Uiso   1.00
H1032  H     0.12417   0.62160   0.69669   0.00000  Uiso   1.00
N1033  N     0.16667   0.61736   0.75000   0.00000  Uiso   1.00
N1034  N     0.16667   0.38264   0.75000   0.00000  Uiso   1.00
C1035  C     0.24332   0.51833   0.88206   0.00000  Uiso   1.00
H1036  H     0.26668   0.49398   0.89454   0.00000  Uiso   1.00
H1037  H     0.24095   0.51176   0.84605   0.00000  Uiso   1.00
H1038  H     0.25445   0.55514   0.88706   0.00000  Uiso   1.00
C1039  C     0.09001   0.48169   0.61794   0.00000  Uiso   1.00
H1040  H     0.07888   0.44488   0.61295   0.00000  Uiso   1.00
H1041  H     0.09238   0.48827   0.65395   0.00000  Uiso   1.00
H1042  H     0.06666   0.50604   0.60544   0.00000  Uiso   1.00
C1043  C     0.09091   0.47272   0.88092   0.00000  Uiso   1.00
H1044  H     0.09387   0.47296   0.84453   0.00000  Uiso   1.00
H1045  H     0.08109   0.43644   0.89010   0.00000  Uiso   1.00
H1046  H     0.06633   0.49725   0.88914   0.00000  Uiso   1.00
C1047  C     0.24242   0.52728   0.61908   0.00000  Uiso   1.00
H1048  H     0.23947   0.52703   0.65547   0.00000  Uiso   1.00
H1049  H     0.26700   0.50274   0.61086   0.00000  Uiso   1.00
H1050  H     0.25225   0.56356   0.60990   0.00000  Uiso   1.00
C1051  C     0.03942   0.41577   0.71680   0.00000  Uiso   1.00
H1052  H     0.05438   0.39902   0.74562   0.00000  Uiso   1.00
H1053  H     0.01779   0.38837   0.70388   0.00000  Uiso   1.00
H1054  H     0.06204   0.42331   0.69055   0.00000  Uiso   1.00
C1055  C     0.29392   0.58424   0.78318   0.00000  Uiso   1.00
H1056  H     0.27895   0.60098   0.75435   0.00000  Uiso   1.00
H1057  H     0.27130   0.57671   0.80944   0.00000  Uiso   1.00
H1058  H     0.31556   0.61165   0.79608   0.00000  Uiso   1.00
C1059  C     0.28768   0.43424   0.69188   0.00000  Uiso   1.00
H1060  H     0.25904   0.44947   0.67935   0.00000  Uiso   1.00
H1061  H     0.30640   0.42945   0.66180   0.00000  Uiso   1.00
H1062  H     0.28027   0.39965   0.70715   0.00000  Uiso   1.00
C1063  C     0.04565   0.56576   0.80811   0.00000  Uiso   1.00
H1064  H     0.07428   0.55052   0.82065   0.00000  Uiso   1.00
H1065  H     0.05308   0.60034   0.79283   0.00000  Uiso   1.00
H1066  H     0.02692   0.57057   0.83819   0.00000  Uiso   1.00
O1067  O     0.43988   0.53958   0.74999   0.00000  Uiso   1.00
O1068  O     0.56012   0.46042   0.75000   0.00000  Uiso   1.00
O1069  O     0.56012   0.53958   0.75000   0.00000  Uiso   1.00
O1070  O     0.43988   0.46042   0.74999   0.00000  Uiso   1.00
C1071  C     0.42067   0.49909   0.75120   0.00000  Uiso   1.00
C1072  C     0.57933   0.50091   0.74879   0.00000  Uiso   1.00
O1073  O     0.49999   0.53960   0.68513   0.00000  Uiso   1.00
O1074  O     0.50001   0.46040   0.81487   0.00000  Uiso   1.00
O1075  O     0.50001   0.53960   0.81487   0.00000  Uiso   1.00
O1076  O     0.49999   0.46040   0.68513   0.00000  Uiso   1.00
C1077  C     0.50038   0.50010   0.66460   0.00000  Uiso   1.00
C1078  C     0.49962   0.49990   0.83540   0.00000  Uiso   1.00
Cu1079 Cu    0.50000   0.54689   0.75000   0.00000  Uiso   1.00
Cu1080 Cu    0.50000   0.45311   0.75000   0.00000  Uiso   1.00
C1081  C     0.53667   0.50998   0.90669   0.00000  Uiso   1.00
C1082  C     0.46333   0.49003   0.59331   0.00000  Uiso   1.00
C1083  C     0.49978   0.49926   0.88353   0.00000  Uiso   1.00
C1084  C     0.50022   0.50074   0.61647   0.00000  Uiso   1.00
C1085  C     0.46335   0.48673   0.90612   0.00000  Uiso   1.00
C1086  C     0.53665   0.51326   0.59388   0.00000  Uiso   1.00
C1087  C     0.46358   0.48710   0.95286   0.00000  Uiso   1.00
C1088  C     0.53642   0.51290   0.54714   0.00000  Uiso   1.00
C1089  C     0.49998   0.49969   0.97649   0.00000  Uiso   1.00
C1090  C     0.50003   0.50030   0.52351   0.00000  Uiso   1.00
C1091  C     0.53640   0.51137   0.95336   0.00000  Uiso   1.00
C1092  C     0.46360   0.48863   0.54663   0.00000  Uiso   1.00
C1093  C     0.42800   0.47521   0.97666   0.00000  Uiso   1.00
C1094  C     0.57200   0.52478   0.52334   0.00000  Uiso   1.00
C1095  C     0.42802   0.47594   0.52242   0.00000  Uiso   1.00
C1096  C     0.57198   0.52406   0.97758   0.00000  Uiso   1.00
H1097  H     0.39942   0.46518   0.96043   0.00000  Uiso   1.00
H1098  H     0.60059   0.53481   0.53957   0.00000  Uiso   1.00
H1099  H     0.39954   0.46609   0.53836   0.00000  Uiso   1.00
H1100  H     0.60046   0.53390   0.96164   0.00000  Uiso   1.00
C1101  C     0.35284   0.46072   0.73163   0.00000  Uiso   1.00
C1102  C     0.64716   0.53928   0.76836   0.00000  Uiso   1.00
C1103  C     0.64396   0.46590   0.72498   0.00000  Uiso   1.00
C1104  C     0.35604   0.53410   0.77501   0.00000  Uiso   1.00
C1105  C     0.62414   0.50291   0.74641   0.00000  Uiso   1.00
C1106  C     0.37586   0.49709   0.75359   0.00000  Uiso   1.00
C1107  C     0.47647   0.35730   0.72035   0.00000  Uiso   1.00
C1108  C     0.52353   0.64270   0.77965   0.00000  Uiso   1.00
C1109  C     0.52358   0.35900   0.77961   0.00000  Uiso   1.00
C1110  C     0.47642   0.64100   0.72038   0.00000  Uiso   1.00
H1111  H     0.45775   0.37533   0.69651   0.00000  Uiso   1.00
H1112  H     0.54225   0.62467   0.80349   0.00000  Uiso   1.00
H1113  H     0.54250   0.37840   0.80331   0.00000  Uiso   1.00
H1114  H     0.45750   0.62160   0.69669   0.00000  Uiso   1.00
N1115  N     0.50000   0.61736   0.75000   0.00000  Uiso   1.00
N1116  N     0.50000   0.38264   0.75000   0.00000  Uiso   1.00
C1117  C     0.57665   0.51833   0.88206   0.00000  Uiso   1.00
H1118  H     0.60001   0.49398   0.89454   0.00000  Uiso   1.00
H1119  H     0.57428   0.51176   0.84605   0.00000  Uiso   1.00
H1120  H     0.58778   0.55514   0.88706   0.00000  Uiso   1.00
C1121  C     0.42334   0.48169   0.61794   0.00000  Uiso   1.00
H1122  H     0.41221   0.44488   0.61295   0.00000  Uiso   1.00
H1123  H     0.42571   0.48827   0.65395   0.00000  Uiso   1.00
H1124  H     0.39999   0.50604   0.60544   0.00000  Uiso   1.00
C1125  C     0.42425   0.47272   0.88092   0.00000  Uiso   1.00
H1126  H     0.42720   0.47296   0.84453   0.00000  Uiso   1.00
H1127  H     0.41442   0.43644   0.89010   0.00000  Uiso   1.00
H1128  H     0.39967   0.49725   0.88914   0.00000  Uiso   1.00
C1129  C     0.57576   0.52728   0.61908   0.00000  Uiso   1.00
H1130  H     0.57280   0.52703   0.65547   0.00000  Uiso   1.00
H1131  H     0.60034   0.50274   0.61086   0.00000  Uiso   1.00
H1132  H     0.58558   0.56356   0.60990   0.00000  Uiso   1.00
C1133  C     0.37275   0.41577   0.71680   0.00000  Uiso   1.00
H1134  H     0.38772   0.39902   0.74562   0.00000  Uiso   1.00
H1135  H     0.35112   0.38837   0.70388   0.00000  Uiso   1.00
H1136  H     0.39538   0.42331   0.69055   0.00000  Uiso   1.00
C1137  C     0.62725   0.58424   0.78318   0.00000  Uiso   1.00
H1138  H     0.61228   0.60098   0.75435   0.00000  Uiso   1.00
H1139  H     0.60464   0.57671   0.80944   0.00000  Uiso   1.00
H1140  H     0.64889   0.61165   0.79608   0.00000  Uiso   1.00
C1141  C     0.62102   0.43424   0.69188   0.00000  Uiso   1.00
H1142  H     0.59237   0.44947   0.67935   0.00000  Uiso   1.00
H1143  H     0.63974   0.42945   0.66180   0.00000  Uiso   1.00
H1144  H     0.61360   0.39965   0.70715   0.00000  Uiso   1.00
C1145  C     0.37898   0.56576   0.80811   0.00000  Uiso   1.00
H1146  H     0.40762   0.55052   0.82065   0.00000  Uiso   1.00
H1147  H     0.38642   0.60034   0.79283   0.00000  Uiso   1.00
H1148  H     0.36025   0.57057   0.83819   0.00000  Uiso   1.00
O1149  O     0.77321   0.53958   0.74999   0.00000  Uiso   1.00
O1150  O     0.89345   0.46042   0.75000   0.00000  Uiso   1.00
O1151  O     0.89345   0.53958   0.75000   0.00000  Uiso   1.00
O1152  O     0.77321   0.46042   0.74999   0.00000  Uiso   1.00
C1153  C     0.75401   0.49909   0.75120   0.00000  Uiso   1.00
C1154  C     0.91266   0.50091   0.74879   0.00000  Uiso   1.00
O1155  O     0.83332   0.53960   0.68513   0.00000  Uiso   1.00
O1156  O     0.83334   0.46040   0.81487   0.00000  Uiso   1.00
O1157  O     0.83334   0.53960   0.81487   0.00000  Uiso   1.00
O1158  O     0.83332   0.46040   0.68513   0.00000  Uiso   1.00
C1159  C     0.83372   0.50010   0.66460   0.00000  Uiso   1.00
C1160  C     0.83295   0.49990   0.83540   0.00000  Uiso   1.00
Cu1161 Cu    0.83333   0.54689   0.75000   0.00000  Uiso   1.00
Cu1162 Cu    0.83333   0.45311   0.75000   0.00000  Uiso   1.00
C1163  C     0.87000   0.50998   0.90669   0.00000  Uiso   1.00
C1164  C     0.79666   0.49003   0.59331   0.00000  Uiso   1.00
C1165  C     0.83311   0.49926   0.88353   0.00000  Uiso   1.00
C1166  C     0.83355   0.50074   0.61647   0.00000  Uiso   1.00
C1167  C     0.79669   0.48673   0.90612   0.00000  Uiso   1.00
C1168  C     0.86998   0.51326   0.59388   0.00000  Uiso   1.00
C1169  C     0.79692   0.48710   0.95286   0.00000  Uiso   1.00
C1170  C     0.86975   0.51290   0.54714   0.00000  Uiso   1.00
C1171  C     0.83331   0.49969   0.97649   0.00000  Uiso   1.00
C1172  C     0.83336   0.50030   0.52351   0.00000  Uiso   1.00
C1173  C     0.86973   0.51137   0.95336   0.00000  Uiso   1.00
C1174  C     0.79694   0.48863   0.54663   0.00000  Uiso   1.00
C1175  C     0.76134   0.47521   0.97666   0.00000  Uiso   1.00
C1176  C     0.90534   0.52478   0.52334   0.00000  Uiso   1.00
C1177  C     0.76135   0.47594   0.52242   0.00000  Uiso   1.00
C1178  C     0.90532   0.52406   0.97758   0.00000  Uiso   1.00
H1179  H     0.73275   0.46518   0.96043   0.00000  Uiso   1.00
H1180  H     0.93392   0.53481   0.53957   0.00000  Uiso   1.00
H1181  H     0.73288   0.46609   0.53836   0.00000  Uiso   1.00
H1182  H     0.93379   0.53390   0.96164   0.00000  Uiso   1.00
C1183  C     0.68617   0.46072   0.73163   0.00000  Uiso   1.00
C1184  C     0.98049   0.53928   0.76836   0.00000  Uiso   1.00
C1185  C     0.97729   0.46590   0.72498   0.00000  Uiso   1.00
C1186  C     0.68938   0.53410   0.77501   0.00000  Uiso   1.00
C1187  C     0.95747   0.50291   0.74641   0.00000  Uiso   1.00
C1188  C     0.70919   0.49709   0.75359   0.00000  Uiso   1.00
C1189  C     0.80980   0.35730   0.72035   0.00000  Uiso   1.00
C1190  C     0.85686   0.64270   0.77965   0.00000  Uiso   1.00
C1191  C     0.85692   0.35900   0.77961   0.00000  Uiso   1.00
C1192  C     0.80975   0.64100   0.72038   0.00000  Uiso   1.00
H1193  H     0.79108   0.37533   0.69651   0.00000  Uiso   1.00
H1194  H     0.87559   0.62467   0.80349   0.00000  Uiso   1.00
H1195  H     0.87583   0.37840   0.80331   0.00000  Uiso   1.00
H1196  H     0.79083   0.62160   0.69669   0.00000  Uiso   1.00
N1197  N     0.83333   0.61736   0.75000   0.00000  Uiso   1.00
N1198  N     0.83333   0.38264   0.75000   0.00000  Uiso   1.00
C1199  C     0.90999   0.51833   0.88206   0.00000  Uiso   1.00
H1200  H     0.93334   0.49398   0.89454   0.00000  Uiso   1.00
H1201  H     0.90761   0.51176   0.84605   0.00000  Uiso   1.00
H1202  H     0.92112   0.55514   0.88706   0.00000  Uiso   1.00
C1203  C     0.75668   0.48169   0.61794   0.00000  Uiso   1.00
H1204  H     0.74554   0.44488   0.61295   0.00000  Uiso   1.00
H1205  H     0.75904   0.48827   0.65395   0.00000  Uiso   1.00
H1206  H     0.73332   0.50604   0.60544   0.00000  Uiso   1.00
C1207  C     0.75758   0.47272   0.88092   0.00000  Uiso   1.00
H1208  H     0.76053   0.47296   0.84453   0.00000  Uiso   1.00
H1209  H     0.74776   0.43644   0.89010   0.00000  Uiso   1.00
H1210  H     0.73300   0.49725   0.88914   0.00000  Uiso   1.00
C1211  C     0.90909   0.52728   0.61908   0.00000  Uiso   1.00
H1212  H     0.90614   0.52703   0.65547   0.00000  Uiso   1.00
H1213  H     0.93367   0.50274   0.61086   0.00000  Uiso   1.00
H1214  H     0.91892   0.56356   0.60990   0.00000  Uiso   1.00
C1215  C     0.70608   0.41577   0.71680   0.00000  Uiso   1.00
H1216  H     0.72105   0.39902   0.74562   0.00000  Uiso   1.00
H1217  H     0.68446   0.38837   0.70388   0.00000  Uiso   1.00
H1218  H     0.72871   0.42331   0.69055   0.00000  Uiso   1.00
C1219  C     0.96059   0.58424   0.78318   0.00000  Uiso   1.00
H1220  H     0.94561   0.60098   0.75435   0.00000  Uiso   1.00
H1221  H     0.93797   0.57671   0.80944   0.00000  Uiso   1.00
H1222  H     0.98222   0.61165   0.79608   0.00000  Uiso   1.00
C1223  C     0.95435   0.43424   0.69188   0.00000  Uiso   1.00
H1224  H     0.92571   0.44947   0.67935   0.00000  Uiso   1.00
H1225  H     0.97307   0.42945   0.66180   0.00000  Uiso   1.00
H1226  H     0.94693   0.39965   0.70715   0.00000  Uiso   1.00
C1227  C     0.71232   0.56576   0.80811   0.00000  Uiso   1.00
H1228  H     0.74095   0.55052   0.82065   0.00000  Uiso   1.00
H1229  H     0.71975   0.60034   0.79283   0.00000  Uiso   1.00
H1230  H     0.69359   0.57057   0.83819   0.00000  Uiso   1.00
O1231  O     0.10655   0.87291   0.74999   0.00000  Uiso   1.00
O1232  O     0.22679   0.79375   0.75000   0.00000  Uiso   1.00
O1233  O     0.22679   0.87291   0.75000   0.00000  Uiso   1.00
O1234  O     0.10655   0.79375   0.74999   0.00000  Uiso   1.00
C1235  C     0.08734   0.83242   0.75120   0.00000  Uiso   1.00
C1236  C     0.24599   0.83425   0.74879   0.00000  Uiso   1.00
O1237  O     0.16666   0.87293   0.68513   0.00000  Uiso   1.00
O1238  O     0.16668   0.79373   0.81487   0.00000  Uiso   1.00
O1239  O     0.16668   0.87293   0.81487   0.00000  Uiso   1.00
O1240  O     0.16666   0.79373   0.68513   0.00000  Uiso   1.00
C1241  C     0.16705   0.83344   0.66460   0.00000  Uiso   1.00
C1242  C     0.16628   0.83323   0.83540   0.00000  Uiso   1.00
Cu1243 Cu    0.16667   0.88022   0.75000   0.00000  Uiso   1.00
Cu1244 Cu    0.16667   0.78645   0.75000   0.00000  Uiso   1.00
C1245  C     0.20334   0.84331   0.90669   0.00000  Uiso   1.00
C1246  C     0.12999   0.82336   0.59331   0.00000  Uiso   1.00
C1247  C     0.16645   0.83259   0.88353   0.00000  Uiso   1.00
C1248  C     0.16689   0.83408   0.61647   0.00000  Uiso   1.00
C1249  C     0.13002   0.82006   0.90612   0.00000  Uiso   1.00
C1250  C     0.20332   0.84660   0.59388   0.00000  Uiso   1.00
C1251  C     0.13025   0.82043   0.95286   0.00000  Uiso   1.00
C1252  C     0.20309   0.84623   0.54714   0.00000  Uiso   1.00
C1253  C     0.16664   0.83303   0.97649   0.00000  Uiso   1.00
C1254  C     0.16669   0.83364   0.52351   0.00000  Uiso   1.00
C1255  C     0.20307   0.84470   0.95336   0.00000  Uiso   1.00
C1256  C     0.13027   0.82196   0.54663   0.00000  Uiso   1.00
C1257  C     0.09467   0.80854   0.97666   0.00000  Uiso   1.00
C1258  C     0.23867   0.85812   0.52334   0.00000  Uiso   1.00
C1259  C     0.09469   0.80927   0.52242   0.00000  Uiso   1.00
C1260  C     0.23865   0.85739   0.97758   0.00000  Uiso   1.00
H1261  H     0.06609   0.79852   0.96043   0.00000  Uiso   1.00
H1262  H     0.26725   0.86814   0.53957   0.00000  Uiso   1.00
H1263  H     0.06621   0.79943   0.53836   0.00000  Uiso   1.00
H1264  H     0.26713   0.86723   0.96164   0.00000  Uiso   1.00
C1265  C     0.01951   0.79406   0.73163   0.00000  Uiso   1.00
C1266  C     0.31383   0.87262   0.76836   0.00000  Uiso   1.00
C1267  C     0.31062   0.79923   0.72498   0.00000  Uiso   1.00
C1268  C     0.02271   0.86744   0.77501   0.00000  Uiso   1.00
C1269  C     0.29081   0.83624   0.74641   0.00000  Uiso   1.00
C1270  C     0.04252   0.83043   0.75359   0.00000  Uiso   1.00
C1271  C     0.14314   0.69063   0.72035   0.00000  Uiso   1.00
C1272  C     0.19020   0.97603   0.77965   0.00000  Uiso   1.00
C1273  C     0.19025   0.69233   0.77961   0.00000  Uiso   1.00
C1274  C     0.14308   0.97433   0.72038   0.00000  Uiso   1.00
H1275  H     0.12441   0.70866   0.69651   0.00000  Uiso   1.00
H1276  H     0.20892   0.95800   0.80349   0.00000  Uiso   1.00
H1277  H     0.20917   0.71174   0.80331   0.00000  Uiso   1.00
H1278  H     0.12417   0.95493   0.69669   0.00000  Uiso   1.00
N1279  N     0.16667   0.95069   0.75000   0.00000  Uiso   1.00
N1280  N     0.16667   0.71598   0.75000   0.00000  Uiso   1.00
C1281  C     0.24332   0.85166   0.88206   0.00000  Uiso   1.00
H1282  H     0.26668   0.82732   0.89454   0.00000  Uiso   1.00
H1283  H     0.24095   0.84510   0.84605   0.00000  Uiso   1.00
H1284  H     0.25445   0.88847   0.88706   0.00000  Uiso   1.00
C1285  C     0.09001   0.81502   0.61794   0.00000  Uiso   1.00
H1286  H     0.07888   0.77821   0.61295   0.00000  Uiso   1.00
H1287  H     0.09238   0.82160   0.65395   0.00000  Uiso   1.00
H1288  H     0.06666   0.83937   0.60544   0.00000  Uiso   1.00
C1289  C     0.09091   0.80605   0.88092   0.00000  Uiso   1.00
H1290  H     0.09387   0.80630   0.84453   0.00000  Uiso   1.00
H1291  H     0.08109   0.76977   0.89010   0.00000  Uiso   1.00
H1292  H     0.06633   0.83059   0.88914   0.00000  Uiso   1.00
C1293  C     0.24242   0.86061   0.61908   0.00000  Uiso   1.00
H1294  H     0.23947   0.86037   0.65547   0.00000  Uiso   1.00
H1295  H     0.26700   0.83607   0.61086   0.00000  Uiso   1.00
H1296  H     0.25225   0.89689   0.60990   0.00000  Uiso   1.00
C1297  C     0.03942   0.74911   0.71680   0.00000  Uiso   1.00
H1298  H     0.05438   0.73235   0.74562   0.00000  Uiso   1.00
H1299  H     0.01779   0.72171   0.70388   0.00000  Uiso   1.00
H1300  H     0.06204   0.75665   0.69055   0.00000  Uiso   1.00
C1301  C     0.29392   0.91757   0.78318   0.00000  Uiso   1.00
H1302  H     0.27895   0.93431   0.75435   0.00000  Uiso   1.00
H1303  H     0.27130   0.91004   0.80944   0.00000  Uiso   1.00
H1304  H     0.31556   0.94498   0.79608   0.00000  Uiso   1.00
C1305  C     0.28768   0.76757   0.69188   0.00000  Uiso   1.00
H1306  H     0.25904   0.78280   0.67935   0.00000  Uiso   1.00
H1307  H     0.30640   0.76279   0.66180   0.00000  Uiso   1.00
H1308  H     0.28027   0.73299   0.70715   0.00000  Uiso   1.00
C1309  C     0.04565   0.89909   0.80811   0.00000  Uiso   1.00
H1310  H     0.07428   0.88385   0.82065   0.00000  Uiso   1.00
H1311  H     0.05308   0.93368   0.79283   0.00000  Uiso   1.00
H1312  H     0.02692   0.90390   0.83819   0.00000  Uiso   1.00
O1313  O     0.43988   0.87291   0.74999   0.00000  Uiso   1.00
O1314  O     0.56012   0.79375   0.75000   0.00000  Uiso   1.00
O1315  O     0.56012   0.87291   0.75000   0.00000  Uiso   1.00
O1316  O     0.43988   0.79375   0.74999   0.00000  Uiso   1.00
C1317  C     0.42067   0.83242   0.75120   0.00000  Uiso   1.00
C1318  C     0.57933   0.83425   0.74879   0.00000  Uiso   1.00
O1319  O     0.49999   0.87293   0.68513   0.00000  Uiso   1.00
O1320  O     0.50001   0.79373   0.81487   0.00000  Uiso   1.00
O1321  O     0.50001   0.87293   0.81487   0.00000  Uiso   1.00
O1322  O     0.49999   0.79373   0.68513   0.00000  Uiso   1.00
C1323  C     0.50038   0.83344   0.66460   0.00000  Uiso   1.00
C1324  C     0.49962   0.83323   0.83540   0.00000  Uiso   1.00
Cu1325 Cu    0.50000   0.88022   0.75000   0.00000  Uiso   1.00
Cu1326 Cu    0.50000   0.78645   0.75000   0.00000  Uiso   1.00
C1327  C     0.53667   0.84331   0.90669   0.00000  Uiso   1.00
C1328  C     0.46333   0.82336   0.59331   0.00000  Uiso   1.00
C1329  C     0.49978   0.83259   0.88353   0.00000  Uiso   1.00
C1330  C     0.50022   0.83408   0.61647   0.00000  Uiso   1.00
C1331  C     0.46335   0.82006   0.90612   0.00000  Uiso   1.00
C1332  C     0.53665   0.84660   0.59388   0.00000  Uiso   1.00
C1333  C     0.46358   0.82043   0.95286   0.00000  Uiso   1.00
C1334  C     0.53642   0.84623   0.54714   0.00000  Uiso   1.00
C1335  C     0.49998   0.83303   0.97649   0.00000  Uiso   1.00
C1336  C     0.50003   0.83364   0.52351   0.00000  Uiso   1.00
C1337  C     0.53640   0.84470   0.95336   0.00000  Uiso   1.00
C1338  C     0.46360   0.82196   0.54663   0.00000  Uiso   1.00
C1339  C     0.42800   0.80854   0.97666   0.00000  Uiso   1.00
C1340  C     0.57200   0.85812   0.52334   0.00000  Uiso   1.00
C1341  C     0.42802   0.80927   0.52242   0.00000  Uiso   1.00
C1342  C     0.57198   0.85739   0.97758   0.00000  Uiso   1.00
H1343  H     0.39942   0.79852   0.96043   0.00000  Uiso   1.00
H1344  H     0.60059   0.86814   0.53957   0.00000  Uiso   1.00
H1345  H     0.39954   0.79943   0.53836   0.00000  Uiso   1.00
H1346  H     0.60046   0.86723   0.96164   0.00000  Uiso   1.00
C1347  C     0.35284   0.79406   0.73163   0.00000  Uiso   1.00
C1348  C     0.64716   0.87262   0.76836   0.00000  Uiso   1.00
C1349  C     0.64396   0.79923   0.72498   0.00000  Uiso   1.00
C1350  C     0.35604   0.86744   0.77501   0.00000  Uiso   1.00
C1351  C     0.62414   0.83624   0.74641   0.00000  Uiso   1.00
C1352  C     0.37586   0.83043   0.75359   0.00000  Uiso   1.00
C1353  C     0.47647   0.69063   0.72035   0.00000  Uiso   1.00
C1354  C     0.52353   0.97603   0.77965   0.00000  Uiso   1.00
C1355  C     0.52358   0.69233   0.77961   0.00000  Uiso   1.00
C1356  C     0.47642   0.97433   0.72038   0.00000  Uiso   1.00
H1357  H     0.45775   0.70866   0.69651   0.00000  Uiso   1.00
H1358  H     0.54225   0.95800   0.80349   0.00000  Uiso   1.00
H1359  H     0.54250   0.71174   0.80331   0.00000  Uiso   1.00
H1360  H     0.45750   0.95493   0.69669   0.00000  Uiso   1.00
N1361  N     0.50000   0.95069   0.75000   0.00000  Uiso   1.00
N1362  N     0.50000   0.71598   0.75000   0.00000  Uiso   1.00
C1363  C     0.57665   0.85166   0.88206   0.00000  Uiso   1.00
H1364  H     0.60001   0.82732   0.89454   0.00000  Uiso   1.00
H1365  H     0.57428   0.84510   0.84605   0.00000  Uiso   1.00
H1366  H     0.58778   0.88847   0.88706   0.00000  Uiso   1.00
C1367  C     0.42334   0.81502   0.61794   0.00000  Uiso   1.00
H1368  H     0.41221   0.77821   0.61295   0.00000  Uiso   1.00
H1369  H     0.42571   0.82160   0.65395   0.00000  Uiso   1.00
H1370  H     0.39999   0.83937   0.60544   0.00000  Uiso   1.00
C1371  C     0.42425   0.80605   0.88092   0.00000  Uiso   1.00
H1372  H     0.42720   0.80630   0.84453   0.00000  Uiso   1.00
H1373  H     0.41442   0.76977   0.89010   0.00000  Uiso   1.00
H1374  H     0.39967   0.83059   0.88914   0.00000  Uiso   1.00
C1375  C     0.57576   0.86061   0.61908   0.00000  Uiso   1.00
H1376  H     0.57280   0.86037   0.65547   0.00000  Uiso   1.00
H1377  H     0.60034   0.83607   0.61086   0.00000  Uiso   1.00
H1378  H     0.58558   0.89689   0.60990   0.00000  Uiso   1.00
C1379  C     0.37275   0.74911   0.71680   0.00000  Uiso   1.00
H1380  H     0.38772   0.73235   0.74562   0.00000  Uiso   1.00
H1381  H     0.35112   0.72171   0.70388   0.00000  Uiso   1.00
H1382  H     0.39538   0.75665   0.69055   0.00000  Uiso   1.00
C1383  C     0.62725   0.91757   0.78318   0.00000  Uiso   1.00
H1384  H     0.61228   0.93431   0.75435   0.00000  Uiso   1.00
H1385  H     0.60464   0.91004   0.80944   0.00000  Uiso   1.00
H1386  H     0.64889   0.94498   0.79608   0.00000  Uiso   1.00
C1387  C     0.62102   0.76757   0.69188   0.00000  Uiso   1.00
H1388  H     0.59237   0.78280   0.67935   0.00000  Uiso   1.00
H1389  H     0.63974   0.76279   0.66180   0.00000  Uiso   1.00
H1390  H     0.61360   0.73299   0.70715   0.00000  Uiso   1.00
C1391  C     0.37898   0.89909   0.80811   0.00000  Uiso   1.00
H1392  H     0.40762   0.88385   0.82065   0.00000  Uiso   1.00
H1393  H     0.38642   0.93368   0.79283   0.00000  Uiso   1.00
H1394  H     0.36025   0.90390   0.83819   0.00000  Uiso   1.00
O1395  O     0.77321   0.87291   0.74999   0.00000  Uiso   1.00
O1396  O     0.89345   0.79375   0.75000   0.00000  Uiso   1.00
O1397  O     0.89345   0.87291   0.75000   0.00000  Uiso   1.00
O1398  O     0.77321   0.79375   0.74999   0.00000  Uiso   1.00
C1399  C     0.75401   0.83242   0.75120   0.00000  Uiso   1.00
C1400  C     0.91266   0.83425   0.74879   0.00000  Uiso   1.00
O1401  O     0.83332   0.87293   0.68513   0.00000  Uiso   1.00
O1402  O     0.83334   0.79373   0.81487   0.00000  Uiso   1.00
O1403  O     0.83334   0.87293   0.81487   0.00000  Uiso   1.00
O1404  O     0.83332   0.79373   0.68513   0.00000  Uiso   1.00
C1405  C     0.83372   0.83344   0.66460   0.00000  Uiso   1.00
C1406  C     0.83295   0.83323   0.83540   0.00000  Uiso   1.00
Cu1407 Cu    0.83333   0.88022   0.75000   0.00000  Uiso   1.00
Cu1408 Cu    0.83333   0.78645   0.75000   0.00000  Uiso   1.00
C1409  C     0.87000   0.84331   0.90669   0.00000  Uiso   1.00
C1410  C     0.79666   0.82336   0.59331   0.00000  Uiso   1.00
C1411  C     0.83311   0.83259   0.88353   0.00000  Uiso   1.00
C1412  C     0.83355   0.83408   0.61647   0.00000  Uiso   1.00
C1413  C     0.79669   0.82006   0.90612   0.00000  Uiso   1.00
C1414  C     0.86998   0.84660   0.59388   0.00000  Uiso   1.00
C1415  C     0.79692   0.82043   0.95286   0.00000  Uiso   1.00
C1416  C     0.86975   0.84623   0.54714   0.00000  Uiso   1.00
C1417  C     0.83331   0.83303   0.97649   0.00000  Uiso   1.00
C1418  C     0.83336   0.83364   0.52351   0.00000  Uiso   1.00
C1419  C     0.86973   0.84470   0.95336   0.00000  Uiso   1.00
C1420  C     0.79694   0.82196   0.54663   0.00000  Uiso   1.00
C1421  C     0.76134   0.80854   0.97666   0.00000  Uiso   1.00
C1422  C     0.90534   0.85812   0.52334   0.00000  Uiso   1.00
C1423  C     0.76135   0.80927   0.52242   0.00000  Uiso   1.00
C1424  C     0.90532   0.85739   0.97758   0.00000  Uiso   1.00
H1425  H     0.73275   0.79852   0.96043   0.00000  Uiso   1.00
H1426  H     0.93392   0.86814   0.53957   0.00000  Uiso   1.00
H1427  H     0.73288   0.79943   0.53836   0.00000  Uiso   1.00
H1428  H     0.93379   0.86723   0.96164   0.00000  Uiso   1.00
C1429  C     0.68617   0.79406   0.73163   0.00000  Uiso   1.00
C1430  C     0.98049   0.87262   0.76836   0.00000  Uiso   1.00
C1431  C     0.97729   0.79923   0.72498   0.00000  Uiso   1.00
C1432  C     0.68938   0.86744   0.77501   0.00000  Uiso   1.00
C1433  C     0.95747   0.83624   0.74641   0.00000  Uiso   1.00
C1434  C     0.70919   0.83043   0.75359   0.00000  Uiso   1.00
C1435  C     0.80980   0.69063   0.72035   0.00000  Uiso   1.00
C1436  C     0.85686   0.97603   0.77965   0.00000  Uiso   1.00
C1437  C     0.85692   0.69233   0.77961   0.00000  Uiso   1.00
C1438  C     0.80975   0.97433   0.72038   0.00000  Uiso   1.00
H1439  H     0.79108   0.70866   0.69651   0.00000  Uiso   1.00
H1440  H     0.87559   0.95800   0.80349   0.00000  Uiso   1.00
H1441  H     0.87583   0.71174   0.80331   0.00000  Uiso   1.00
H1442  H     0.79083   0.95493   0.69669   0.00000  Uiso   1.00
N1443  N     0.83333   0.95069   0.75000   0.00000  Uiso   1.00
N1444  N     0.83333   0.71598   0.75000   0.00000  Uiso   1.00
C1445  C     0.90999   0.85166   0.88206   0.00000  Uiso   1.00
H1446  H     0.93334   0.82732   0.89454   0.00000  Uiso   1.00
H1447  H     0.90761   0.84510   0.84605   0.00000  Uiso   1.00
H1448  H     0.92112   0.88847   0.88706   0.00000  Uiso   1.00
C1449  C     0.75668   0.81502   0.61794   0.00000  Uiso   1.00
H1450  H     0.74554   0.77821   0.61295   0.00000  Uiso   1.00
H1451  H     0.75904   0.82160   0.65395   0.00000  Uiso   1.00
H1452  H     0.73332   0.83937   0.60544   0.00000  Uiso   1.00
C1453  C     0.75758   0.80605   0.88092   0.00000  Uiso   1.00
H1454  H     0.76053   0.80630   0.84453   0.00000  Uiso   1.00
H1455  H     0.74776   0.76977   0.89010   0.00000  Uiso   1.00
H1456  H     0.73300   0.83059   0.88914   0.00000  Uiso   1.00
C1457  C     0.90909   0.86061   0.61908   0.00000  Uiso   1.00
H1458  H     0.90614   0.86037   0.65547   0.00000  Uiso   1.00
H1459  H     0.93367   0.83607   0.61086   0.00000  Uiso   1.00
H1460  H     0.91892   0.89689   0.60990   0.00000  Uiso   1.00
C1461  C     0.70608   0.74911   0.71680   0.00000  Uiso   1.00
H1462  H     0.72105   0.73235   0.74562   0.00000  Uiso   1.00
H1463  H     0.68446   0.72171   0.70388   0.00000  Uiso   1.00
H1464  H     0.72871   0.75665   0.69055   0.00000  Uiso   1.00
C1465  C     0.96059   0.91757   0.78318   0.00000  Uiso   1.00
H1466  H     0.94561   0.93431   0.75435   0.00000  Uiso   1.00
H1467  H     0.93797   0.91004   0.80944   0.00000  Uiso   1.00
H1468  H     0.98222   0.94498   0.79608   0.00000  Uiso   1.00
C1469  C     0.95435   0.76757   0.69188   0.00000  Uiso   1.00
H1470  H     0.92571   0.78280   0.67935   0.00000  Uiso   1.00
H1471  H     0.97307   0.76279   0.66180   0.00000  Uiso   1.00
H1472  H     0.94693   0.73299   0.70715   0.00000  Uiso   1.00
C1473  C     0.71232   0.89909   0.80811   0.00000  Uiso   1.00
H1474  H     0.74095   0.88385   0.82065   0.00000  Uiso   1.00
H1475  H     0.71975   0.93368   0.79283   0.00000  Uiso   1.00
H1476  H     0.69359   0.90390   0.83819   0.00000  Uiso   1.00
loop_
_geom_bond_atom_site_label_1
_geom_bond_atom_site_label_2
_geom_bond_distance
_geom_bond_site_symmetry_2
_ccdc_geom_bond_type
O1     C5      1.298   .     A
O1     Cu13    1.968   .     S
O2     C6      1.298   .     A
O2     Cu14    1.968   .     S
O3     C6      1.286   .     A
O3     Cu13    1.981   .     S
O4     Cu14    1.981   .     S
O4     C5      1.286   .     A
C5     C40     1.465   .     S
C6     C39     1.465   .     S
O7     C11     1.286   .     A
O7     Cu13    1.971   .     S
O8     C12     1.286   .     A
O8     Cu14    1.971   .     S
O9     Cu13    1.971   .     S
O9     C12     1.291   .     A
O10    Cu14    1.971   .     S
O10    C11     1.291   .     A
C11    C18     1.454   .     S
C12    C17     1.454   .     S
Cu13   Cu14    2.674   .     S
Cu13   N49     2.010   .     S
Cu14   N50     2.010   .     S
C15    C25     1.411   .     A
C15    C51     1.522   .     S
C15    C17     1.413   .     A
C16    C26     1.411   .     A
C16    C55     1.522   .     S
C16    C18     1.413   .     A
C17    C19     1.414   .     A
C18    C20     1.414   .     A
C19    C21     1.412   .     A
C19    C59     1.523   .     S
C20    C22     1.412   .     A
C20    C63     1.523   .     S
C21    C27     1.405   .     A
C21    C23     1.417   .     A
C22    C28     1.405   .     A
C22    C24     1.417   .     A
C23    C25     1.416   .     A
C23    C762    1.421   .     S
C24    C26     1.416   .     A
C24    C761    1.421   1_554 S
C25    C30     1.405   .     A
C26    C29     1.405   .     A
C27    H31     1.081   .     S
C27    C767    1.383   .     S
C28    H32     1.081   .     S
C28    C768    1.383   1_554 S
C29    H33     1.081   .     S
C29    C765    1.383   1_554 S
C30    H34     1.081   .     S
C30    C766    1.383   .     S
C35    C67     1.524   .     S
C35    C40     1.422   .     A
C35    C201    1.404   1_455 S
C36    C71     1.524   .     S
C36    C39     1.422   .     A
C36    C120    1.404   .     S
C37    C39     1.414   .     A
C37    C75     1.523   .     S
C37    C117    1.404   .     S
C38    C79     1.523   .     S
C38    C40     1.414   .     A
C38    C200    1.404   1_455 S
C41    N50     1.366   .     A
C41    H45     1.081   .     S
C41    C536    1.415   1_545 S
C42    H46     1.081   .     S
C42    N49     1.366   .     A
C42    C289    1.415   .     S
C43    N50     1.367   .     A
C43    H47     1.082   .     S
C43    C534    1.415   1_545 S
C44    N49     1.367   .     A
C44    H48     1.082   .     S
C44    C287    1.415   .     S
C51    H52     1.111   .     S
C51    H53     1.105   .     S
C51    H54     1.110   .     S
C55    H56     1.110   .     S
C55    H57     1.105   .     S
C55    H58     1.110   .     S
C59    H60     1.105   .     S
C59    H61     1.110   .     S
C59    H62     1.110   .     S
C63    H65     1.110   .     S
C63    H66     1.110   .     S
C63    H64     1.105   .     S
C67    H68     1.110   .     S
C67    H70     1.106   .     S
C67    H69     1.106   .     S
C71    H74     1.106   .     S
C71    H73     1.106   .     S
C71    H72     1.110   .     S
C75    H76     1.107   .     S
C75    H77     1.111   .     S
C75    H78     1.111   .     S
C79    H81     1.111   .     S
C79    H82     1.111   .     S
C79    H80     1.107   .     S
O83    C87     1.298   .     A
O83    Cu95    1.968   .     S
O84    C88     1.298   .     A
O84    Cu96    1.968   .     S
O85    C88     1.286   .     A
O85    Cu95    1.981   .     S
O86    Cu96    1.981   .     S
O86    C87     1.286   .     A
C87    C122    1.465   .     S
C88    C121    1.465   .     S
O89    C93     1.286   .     A
O89    Cu95    1.971   .     S
O90    C94     1.286   .     A
O90    Cu96    1.971   .     S
O91    Cu95    1.971   .     S
O91    C94     1.291   .     A
O92    Cu96    1.971   .     S
O92    C93     1.291   .     A
C93    C100    1.454   .     S
C94    C99     1.454   .     S
Cu95   Cu96    2.674   .     S
Cu95   N131    2.010   .     S
Cu96   N132    2.010   .     S
C97    C107    1.411   .     A
C97    C133    1.522   .     S
C97    C99     1.413   .     A
C98    C108    1.411   .     A
C98    C137    1.522   .     S
C98    C100    1.413   .     A
C99    C101    1.414   .     A
C100   C102    1.414   .     A
C101   C103    1.412   .     A
C101   C141    1.523   .     S
C102   C104    1.412   .     A
C102   C145    1.523   .     S
C103   C109    1.405   .     A
C103   C105    1.417   .     A
C104   C110    1.405   .     A
C104   C106    1.417   .     A
C105   C107    1.416   .     A
C105   C844    1.421   .     S
C106   C108    1.416   .     A
C106   C843    1.421   1_554 S
C107   C112    1.405   .     A
C108   C111    1.405   .     A
C109   H113    1.081   .     S
C109   C849    1.383   .     S
C110   H114    1.081   .     S
C110   C850    1.383   1_554 S
C111   H115    1.081   .     S
C111   C847    1.383   1_554 S
C112   H116    1.081   .     S
C112   C848    1.383   .     S
C117   C149    1.524   .     S
C117   C122    1.422   .     A
C118   C153    1.524   .     S
C118   C121    1.422   .     A
C118   C202    1.404   .     S
C119   C121    1.414   .     A
C119   C157    1.523   .     S
C119   C199    1.404   .     S
C120   C161    1.523   .     S
C120   C122    1.414   .     A
C123   N132    1.366   .     A
C123   H127    1.081   .     S
C123   C618    1.415   1_545 S
C124   H128    1.081   .     S
C124   N131    1.366   .     A
C124   C371    1.415   .     S
C125   N132    1.367   .     A
C125   H129    1.082   .     S
C125   C616    1.415   1_545 S
C126   N131    1.367   .     A
C126   H130    1.082   .     S
C126   C369    1.415   .     S
C133   H134    1.111   .     S
C133   H135    1.105   .     S
C133   H136    1.110   .     S
C137   H138    1.110   .     S
C137   H139    1.105   .     S
C137   H140    1.110   .     S
C141   H142    1.105   .     S
C141   H143    1.110   .     S
C141   H144    1.110   .     S
C145   H147    1.110   .     S
C145   H148    1.110   .     S
C145   H146    1.105   .     S
C149   H150    1.110   .     S
C149   H152    1.106   .     S
C149   H151    1.106   .     S
C153   H156    1.106   .     S
C153   H155    1.106   .     S
C153   H154    1.110   .     S
C157   H158    1.107   .     S
C157   H159    1.111   .     S
C157   H160    1.111   .     S
C161   H163    1.111   .     S
C161   H164    1.111   .     S
C161   H162    1.107   .     S
O165   C169    1.298   .     A
O165   Cu177   1.968   .     S
O166   C170    1.298   .     A
O166   Cu178   1.968   .     S
O167   C170    1.286   .     A
O167   Cu177   1.981   .     S
O168   Cu178   1.981   .     S
O168   C169    1.286   .     A
C169   C204    1.465   .     S
C170   C203    1.465   .     S
O171   C175    1.286   .     A
O171   Cu177   1.971   .     S
O172   C176    1.286   .     A
O172   Cu178   1.971   .     S
O173   Cu177   1.971   .     S
O173   C176    1.291   .     A
O174   Cu178   1.971   .     S
O174   C175    1.291   .     A
C175   C182    1.454   .     S
C176   C181    1.454   .     S
Cu177  Cu178   2.674   .     S
Cu177  N213    2.010   .     S
Cu178  N214    2.010   .     S
C179   C189    1.411   .     A
C179   C215    1.522   .     S
C179   C181    1.413   .     A
C180   C190    1.411   .     A
C180   C219    1.522   .     S
C180   C182    1.413   .     A
C181   C183    1.414   .     A
C182   C184    1.414   .     A
C183   C185    1.412   .     A
C183   C223    1.523   .     S
C184   C186    1.412   .     A
C184   C227    1.523   .     S
C185   C191    1.405   .     A
C185   C187    1.417   .     A
C186   C192    1.405   .     A
C186   C188    1.417   .     A
C187   C189    1.416   .     A
C187   C926    1.421   .     S
C188   C190    1.416   .     A
C188   C925    1.421   1_554 S
C189   C194    1.405   .     A
C190   C193    1.405   .     A
C191   H195    1.081   .     S
C191   C931    1.383   .     S
C192   H196    1.081   .     S
C192   C932    1.383   1_554 S
C193   H197    1.081   .     S
C193   C929    1.383   1_554 S
C194   H198    1.081   .     S
C194   C930    1.383   .     S
C199   C231    1.524   .     S
C199   C204    1.422   .     A
C200   C235    1.524   .     S
C200   C203    1.422   .     A
C200   C38     1.404   1_655 S
C201   C203    1.414   .     A
C201   C239    1.523   .     S
C201   C35     1.404   1_655 S
C202   C243    1.523   .     S
C202   C204    1.414   .     A
C205   N214    1.366   .     A
C205   H209    1.081   .     S
C205   C700    1.415   1_545 S
C206   H210    1.081   .     S
C206   N213    1.366   .     A
C206   C453    1.415   .     S
C207   N214    1.367   .     A
C207   H211    1.082   .     S
C207   C698    1.415   1_545 S
C208   N213    1.367   .     A
C208   H212    1.082   .     S
C208   C451    1.415   .     S
C215   H216    1.111   .     S
C215   H217    1.105   .     S
C215   H218    1.110   .     S
C219   H220    1.110   .     S
C219   H221    1.105   .     S
C219   H222    1.110   .     S
C223   H224    1.105   .     S
C223   H225    1.110   .     S
C223   H226    1.110   .     S
C227   H229    1.110   .     S
C227   H230    1.110   .     S
C227   H228    1.105   .     S
C231   H232    1.110   .     S
C231   H234    1.106   .     S
C231   H233    1.106   .     S
C235   H238    1.106   .     S
C235   H237    1.106   .     S
C235   H236    1.110   .     S
C239   H240    1.107   .     S
C239   H241    1.111   .     S
C239   H242    1.111   .     S
C243   H245    1.111   .     S
C243   H246    1.111   .     S
C243   H244    1.107   .     S
O247   C251    1.298   .     A
O247   Cu259   1.968   .     S
O248   C252    1.298   .     A
O248   Cu260   1.968   .     S
O249   C252    1.286   .     A
O249   Cu259   1.981   .     S
O250   Cu260   1.981   .     S
O250   C251    1.286   .     A
C251   C286    1.465   .     S
C252   C285    1.465   .     S
O253   C257    1.286   .     A
O253   Cu259   1.971   .     S
O254   C258    1.286   .     A
O254   Cu260   1.971   .     S
O255   Cu259   1.971   .     S
O255   C258    1.291   .     A
O256   Cu260   1.971   .     S
O256   C257    1.291   .     A
C257   C264    1.454   .     S
C258   C263    1.454   .     S
Cu259  Cu260   2.674   .     S
Cu259  N295    2.010   .     S
Cu260  N296    2.010   .     S
C261   C271    1.411   .     A
C261   C297    1.522   .     S
C261   C263    1.413   .     A
C262   C272    1.411   .     A
C262   C301    1.522   .     S
C262   C264    1.413   .     A
C263   C265    1.414   .     A
C264   C266    1.414   .     A
C265   C267    1.412   .     A
C265   C305    1.523   .     S
C266   C268    1.412   .     A
C266   C309    1.523   .     S
C267   C273    1.405   .     A
C267   C269    1.417   .     A
C268   C274    1.405   .     A
C268   C270    1.417   .     A
C269   C271    1.416   .     A
C269   C1008   1.421   .     S
C270   C272    1.416   .     A
C270   C1007   1.421   1_554 S
C271   C276    1.405   .     A
C272   C275    1.405   .     A
C273   H277    1.081   .     S
C273   C1013   1.383   .     S
C274   H278    1.081   .     S
C274   C1014   1.383   1_554 S
C275   H279    1.081   .     S
C275   C1011   1.383   1_554 S
C276   H280    1.081   .     S
C276   C1012   1.383   .     S
C281   C313    1.524   .     S
C281   C286    1.422   .     A
C281   C447    1.404   1_455 S
C282   C317    1.524   .     S
C282   C285    1.422   .     A
C282   C366    1.404   .     S
C283   C285    1.414   .     A
C283   C321    1.523   .     S
C283   C363    1.404   .     S
C284   C325    1.523   .     S
C284   C286    1.414   .     A
C284   C446    1.404   1_455 S
C287   N296    1.366   .     A
C287   H291    1.081   .     S
C288   H292    1.081   .     S
C288   N295    1.366   .     A
C288   C535    1.415   .     S
C289   N296    1.367   .     A
C289   H293    1.082   .     S
C290   N295    1.367   .     A
C290   H294    1.082   .     S
C290   C533    1.415   .     S
C297   H298    1.111   .     S
C297   H299    1.105   .     S
C297   H300    1.110   .     S
C301   H302    1.110   .     S
C301   H303    1.105   .     S
C301   H304    1.110   .     S
C305   H306    1.105   .     S
C305   H307    1.110   .     S
C305   H308    1.110   .     S
C309   H311    1.110   .     S
C309   H312    1.110   .     S
C309   H310    1.105   .     S
C313   H314    1.110   .     S
C313   H316    1.106   .     S
C313   H315    1.106   .     S
C317   H320    1.106   .     S
C317   H319    1.106   .     S
C317   H318    1.110   .     S
C321   H322    1.107   .     S
C321   H323    1.111   .     S
C321   H324    1.111   .     S
C325   H327    1.111   .     S
C325   H328    1.111   .     S
C325   H326    1.107   .     S
O329   C333    1.298   .     A
O329   Cu341   1.968   .     S
O330   C334    1.298   .     A
O330   Cu342   1.968   .     S
O331   C334    1.286   .     A
O331   Cu341   1.981   .     S
O332   Cu342   1.981   .     S
O332   C333    1.286   .     A
C333   C368    1.465   .     S
C334   C367    1.465   .     S
O335   C339    1.286   .     A
O335   Cu341   1.971   .     S
O336   C340    1.286   .     A
O336   Cu342   1.971   .     S
O337   Cu341   1.971   .     S
O337   C340    1.291   .     A
O338   Cu342   1.971   .     S
O338   C339    1.291   .     A
C339   C346    1.454   .     S
C340   C345    1.454   .     S
Cu341  Cu342   2.674   .     S
Cu341  N377    2.010   .     S
Cu342  N378    2.010   .     S
C343   C353    1.411   .     A
C343   C379    1.522   .     S
C343   C345    1.413   .     A
C344   C354    1.411   .     A
C344   C383    1.522   .     S
C344   C346    1.413   .     A
C345   C347    1.414   .     A
C346   C348    1.414   .     A
C347   C349    1.412   .     A
C347   C387    1.523   .     S
C348   C350    1.412   .     A
C348   C391    1.523   .     S
C349   C355    1.405   .     A
C349   C351    1.417   .     A
C350   C356    1.405   .     A
C350   C352    1.417   .     A
C351   C353    1.416   .     A
C351   C1090   1.421   .     S
C352   C354    1.416   .     A
C352   C1089   1.421   1_554 S
C353   C358    1.405   .     A
C354   C357    1.405   .     A
C355   H359    1.081   .     S
C355   C1095   1.383   .     S
C356   H360    1.081   .     S
C356   C1096   1.383   1_554 S
C357   H361    1.081   .     S
C357   C1093   1.383   1_554 S
C358   H362    1.081   .     S
C358   C1094   1.383   .     S
C363   C395    1.524   .     S
C363   C368    1.422   .     A
C364   C399    1.524   .     S
C364   C367    1.422   .     A
C364   C448    1.404   .     S
C365   C367    1.414   .     A
C365   C403    1.523   .     S
C365   C445    1.404   .     S
C366   C407    1.523   .     S
C366   C368    1.414   .     A
C369   N378    1.366   .     A
C369   H373    1.081   .     S
C370   H374    1.081   .     S
C370   N377    1.366   .     A
C370   C617    1.415   .     S
C371   N378    1.367   .     A
C371   H375    1.082   .     S
C372   N377    1.367   .     A
C372   H376    1.082   .     S
C372   C615    1.415   .     S
C379   H380    1.111   .     S
C379   H381    1.105   .     S
C379   H382    1.110   .     S
C383   H384    1.110   .     S
C383   H385    1.105   .     S
C383   H386    1.110   .     S
C387   H388    1.105   .     S
C387   H389    1.110   .     S
C387   H390    1.110   .     S
C391   H393    1.110   .     S
C391   H394    1.110   .     S
C391   H392    1.105   .     S
C395   H396    1.110   .     S
C395   H398    1.106   .     S
C395   H397    1.106   .     S
C399   H402    1.106   .     S
C399   H401    1.106   .     S
C399   H400    1.110   .     S
C403   H404    1.107   .     S
C403   H405    1.111   .     S
C403   H406    1.111   .     S
C407   H409    1.111   .     S
C407   H410    1.111   .     S
C407   H408    1.107   .     S
O411   C415    1.298   .     A
O411   Cu423   1.968   .     S
O412   C416    1.298   .     A
O412   Cu424   1.968   .     S
O413   C416    1.286   .     A
O413   Cu423   1.981   .     S
O414   Cu424   1.981   .     S
O414   C415    1.286   .     A
C415   C450    1.465   .     S
C416   C449    1.465   .     S
O417   C421    1.286   .     A
O417   Cu423   1.971   .     S
O418   C422    1.286   .     A
O418   Cu424   1.971   .     S
O419   Cu423   1.971   .     S
O419   C422    1.291   .     A
O420   Cu424   1.971   .     S
O420   C421    1.291   .     A
C421   C428    1.454   .     S
C422   C427    1.454   .     S
Cu423  Cu424   2.674   .     S
Cu423  N459    2.010   .     S
Cu424  N460    2.010   .     S
C425   C435    1.411   .     A
C425   C461    1.522   .     S
C425   C427    1.413   .     A
C426   C436    1.411   .     A
C426   C465    1.522   .     S
C426   C428    1.413   .     A
C427   C429    1.414   .     A
C428   C430    1.414   .     A
C429   C431    1.412   .     A
C429   C469    1.523   .     S
C430   C432    1.412   .     A
C430   C473    1.523   .     S
C431   C437    1.405   .     A
C431   C433    1.417   .     A
C432   C438    1.405   .     A
C432   C434    1.417   .     A
C433   C435    1.416   .     A
C433   C1172   1.421   .     S
C434   C436    1.416   .     A
C434   C1171   1.421   1_554 S
C435   C440    1.405   .     A
C436   C439    1.405   .     A
C437   H441    1.081   .     S
C437   C1177   1.383   .     S
C438   H442    1.081   .     S
C438   C1178   1.383   1_554 S
C439   H443    1.081   .     S
C439   C1175   1.383   1_554 S
C440   H444    1.081   .     S
C440   C1176   1.383   .     S
C445   C477    1.524   .     S
C445   C450    1.422   .     A
C446   C481    1.524   .     S
C446   C449    1.422   .     A
C446   C284    1.404   1_655 S
C447   C449    1.414   .     A
C447   C485    1.523   .     S
C447   C281    1.404   1_655 S
C448   C489    1.523   .     S
C448   C450    1.414   .     A
C451   N460    1.366   .     A
C451   H455    1.081   .     S
C452   H456    1.081   .     S
C452   N459    1.366   .     A
C452   C699    1.415   .     S
C453   N460    1.367   .     A
C453   H457    1.082   .     S
C454   N459    1.367   .     A
C454   H458    1.082   .     S
C454   C697    1.415   .     S
C461   H462    1.111   .     S
C461   H463    1.105   .     S
C461   H464    1.110   .     S
C465   H466    1.110   .     S
C465   H467    1.105   .     S
C465   H468    1.110   .     S
C469   H470    1.105   .     S
C469   H471    1.110   .     S
C469   H472    1.110   .     S
C473   H475    1.110   .     S
C473   H476    1.110   .     S
C473   H474    1.105   .     S
C477   H478    1.110   .     S
C477   H480    1.106   .     S
C477   H479    1.106   .     S
C481   H484    1.106   .     S
C481   H483    1.106   .     S
C481   H482    1.110   .     S
C485   H486    1.107   .     S
C485   H487    1.111   .     S
C485   H488    1.111   .     S
C489   H491    1.111   .     S
C489   H492    1.111   .     S
C489   H490    1.107   .     S
O493   C497    1.298   .     A
O493   Cu505   1.968   .     S
O494   C498    1.298   .     A
O494   Cu506   1.968   .     S
O495   C498    1.286   .     A
O495   Cu505   1.981   .     S
O496   Cu506   1.981   .     S
O496   C497    1.286   .     A
C497   C532    1.465   .     S
C498   C531    1.465   .     S
O499   C503    1.286   .     A
O499   Cu505   1.971   .     S
O500   C504    1.286   .     A
O500   Cu506   1.971   .     S
O501   Cu505   1.971   .     S
O501   C504    1.291   .     A
O502   Cu506   1.971   .     S
O502   C503    1.291   .     A
C503   C510    1.454   .     S
C504   C509    1.454   .     S
Cu505  Cu506   2.674   .     S
Cu505  N541    2.010   .     S
Cu506  N542    2.010   .     S
C507   C517    1.411   .     A
C507   C543    1.522   .     S
C507   C509    1.413   .     A
C508   C518    1.411   .     A
C508   C547    1.522   .     S
C508   C510    1.413   .     A
C509   C511    1.414   .     A
C510   C512    1.414   .     A
C511   C513    1.412   .     A
C511   C551    1.523   .     S
C512   C514    1.412   .     A
C512   C555    1.523   .     S
C513   C519    1.405   .     A
C513   C515    1.417   .     A
C514   C520    1.405   .     A
C514   C516    1.417   .     A
C515   C517    1.416   .     A
C515   C1254   1.421   .     S
C516   C518    1.416   .     A
C516   C1253   1.421   1_554 S
C517   C522    1.405   .     A
C518   C521    1.405   .     A
C519   H523    1.081   .     S
C519   C1259   1.383   .     S
C520   H524    1.081   .     S
C520   C1260   1.383   1_554 S
C521   H525    1.081   .     S
C521   C1257   1.383   1_554 S
C522   H526    1.081   .     S
C522   C1258   1.383   .     S
C527   C559    1.524   .     S
C527   C532    1.422   .     A
C527   C693    1.404   1_455 S
C528   C563    1.524   .     S
C528   C531    1.422   .     A
C528   C612    1.404   .     S
C529   C531    1.414   .     A
C529   C567    1.523   .     S
C529   C609    1.404   .     S
C530   C571    1.523   .     S
C530   C532    1.414   .     A
C530   C692    1.404   1_455 S
C533   N542    1.366   .     A
C533   H537    1.081   .     S
C534   H538    1.081   .     S
C534   N541    1.366   .     A
C534   C43     1.415   1_565 S
C535   N542    1.367   .     A
C535   H539    1.082   .     S
C536   N541    1.367   .     A
C536   H540    1.082   .     S
C536   C41     1.415   1_565 S
C543   H544    1.111   .     S
C543   H545    1.105   .     S
C543   H546    1.110   .     S
C547   H548    1.110   .     S
C547   H549    1.105   .     S
C547   H550    1.110   .     S
C551   H552    1.105   .     S
C551   H553    1.110   .     S
C551   H554    1.110   .     S
C555   H557    1.110   .     S
C555   H558    1.110   .     S
C555   H556    1.105   .     S
C559   H560    1.110   .     S
C559   H562    1.106   .     S
C559   H561    1.106   .     S
C563   H566    1.106   .     S
C563   H565    1.106   .     S
C563   H564    1.110   .     S
C567   H568    1.107   .     S
C567   H569    1.111   .     S
C567   H570    1.111   .     S
C571   H573    1.111   .     S
C571   H574    1.111   .     S
C571   H572    1.107   .     S
O575   C579    1.298   .     A
O575   Cu587   1.968   .     S
O576   C580    1.298   .     A
O576   Cu588   1.968   .     S
O577   C580    1.286   .     A
O577   Cu587   1.981   .     S
O578   Cu588   1.981   .     S
O578   C579    1.286   .     A
C579   C614    1.465   .     S
C580   C613    1.465   .     S
O581   C585    1.286   .     A
O581   Cu587   1.971   .     S
O582   C586    1.286   .     A
O582   Cu588   1.971   .     S
O583   Cu587   1.971   .     S
O583   C586    1.291   .     A
O584   Cu588   1.971   .     S
O584   C585    1.291   .     A
C585   C592    1.454   .     S
C586   C591    1.454   .     S
Cu587  Cu588   2.674   .     S
Cu587  N623    2.010   .     S
Cu588  N624    2.010   .     S
C589   C599    1.411   .     A
C589   C625    1.522   .     S
C589   C591    1.413   .     A
C590   C600    1.411   .     A
C590   C629    1.522   .     S
C590   C592    1.413   .     A
C591   C593    1.414   .     A
C592   C594    1.414   .     A
C593   C595    1.412   .     A
C593   C633    1.523   .     S
C594   C596    1.412   .     A
C594   C637    1.523   .     S
C595   C601    1.405   .     A
C595   C597    1.417   .     A
C596   C602    1.405   .     A
C596   C598    1.417   .     A
C597   C599    1.416   .     A
C597   C1336   1.421   .     S
C598   C600    1.416   .     A
C598   C1335   1.421   1_554 S
C599   C604    1.405   .     A
C600   C603    1.405   .     A
C601   H605    1.081   .     S
C601   C1341   1.383   .     S
C602   H606    1.081   .     S
C602   C1342   1.383   1_554 S
C603   H607    1.081   .     S
C603   C1339   1.383   1_554 S
C604   H608    1.081   .     S
C604   C1340   1.383   .     S
C609   C641    1.524   .     S
C609   C614    1.422   .     A
C610   C645    1.524   .     S
C610   C613    1.422   .     A
C610   C694    1.404   .     S
C611   C613    1.414   .     A
C611   C649    1.523   .     S
C611   C691    1.404   .     S
C612   C653    1.523   .     S
C612   C614    1.414   .     A
C615   N624    1.366   .     A
C615   H619    1.081   .     S
C616   H620    1.081   .     S
C616   N623    1.366   .     A
C616   C125    1.415   1_565 S
C617   N624    1.367   .     A
C617   H621    1.082   .     S
C618   N623    1.367   .     A
C618   H622    1.082   .     S
C618   C123    1.415   1_565 S
C625   H626    1.111   .     S
C625   H627    1.105   .     S
C625   H628    1.110   .     S
C629   H630    1.110   .     S
C629   H631    1.105   .     S
C629   H632    1.110   .     S
C633   H634    1.105   .     S
C633   H635    1.110   .     S
C633   H636    1.110   .     S
C637   H639    1.110   .     S
C637   H640    1.110   .     S
C637   H638    1.105   .     S
C641   H642    1.110   .     S
C641   H644    1.106   .     S
C641   H643    1.106   .     S
C645   H648    1.106   .     S
C645   H647    1.106   .     S
C645   H646    1.110   .     S
C649   H650    1.107   .     S
C649   H651    1.111   .     S
C649   H652    1.111   .     S
C653   H655    1.111   .     S
C653   H656    1.111   .     S
C653   H654    1.107   .     S
O657   C661    1.298   .     A
O657   Cu669   1.968   .     S
O658   C662    1.298   .     A
O658   Cu670   1.968   .     S
O659   C662    1.286   .     A
O659   Cu669   1.981   .     S
O660   Cu670   1.981   .     S
O660   C661    1.286   .     A
C661   C696    1.465   .     S
C662   C695    1.465   .     S
O663   C667    1.286   .     A
O663   Cu669   1.971   .     S
O664   C668    1.286   .     A
O664   Cu670   1.971   .     S
O665   Cu669   1.971   .     S
O665   C668    1.291   .     A
O666   Cu670   1.971   .     S
O666   C667    1.291   .     A
C667   C674    1.454   .     S
C668   C673    1.454   .     S
Cu669  Cu670   2.674   .     S
Cu669  N705    2.010   .     S
Cu670  N706    2.010   .     S
C671   C681    1.411   .     A
C671   C707    1.522   .     S
C671   C673    1.413   .     A
C672   C682    1.411   .     A
C672   C711    1.522   .     S
C672   C674    1.413   .     A
C673   C675    1.414   .     A
C674   C676    1.414   .     A
C675   C677    1.412   .     A
C675   C715    1.523   .     S
C676   C678    1.412   .     A
C676   C719    1.523   .     S
C677   C683    1.405   .     A
C677   C679    1.417   .     A
C678   C684    1.405   .     A
C678   C680    1.417   .     A
C679   C681    1.416   .     A
C679   C1418   1.421   .     S
C680   C682    1.416   .     A
C680   C1417   1.421   1_554 S
C681   C686    1.405   .     A
C682   C685    1.405   .     A
C683   H687    1.081   .     S
C683   C1423   1.383   .     S
C684   H688    1.081   .     S
C684   C1424   1.383   1_554 S
C685   H689    1.081   .     S
C685   C1421   1.383   1_554 S
C686   H690    1.081   .     S
C686   C1422   1.383   .     S
C691   C723    1.524   .     S
C691   C696    1.422   .     A
C692   C727    1.524   .     S
C692   C695    1.422   .     A
C692   C530    1.404   1_655 S
C693   C695    1.414   .     A
C693   C731    1.523   .     S
C693   C527    1.404   1_655 S
C694   C735    1.523   .     S
C694   C696    1.414   .     A
C697   N706    1.366   .     A
C697   H701    1.081   .     S
C698   H702    1.081   .     S
C698   N705    1.366   .     A
C698   C207    1.415   1_565 S
C699   N706    1.367   .     A
C699   H703    1.082   .     S
C700   N705    1.367   .     A
C700   H704    1.082   .     S
C700   C205    1.415   1_565 S
C707   H708    1.111   .     S
C707   H709    1.105   .     S
C707   H710    1.110   .     S
C711   H712    1.110   .     S
C711   H713    1.105   .     S
C711   H714    1.110   .     S
C715   H716    1.105   .     S
C715   H717    1.110   .     S
C715   H718    1.110   .     S
C719   H721    1.110   .     S
C719   H722    1.110   .     S
C719   H720    1.105   .     S
C723   H724    1.110   .     S
C723   H726    1.106   .     S
C723   H725    1.106   .     S
C727   H730    1.106   .     S
C727   H729    1.106   .     S
C727   H728    1.110   .     S
C731   H732    1.107   .     S
C731   H733    1.111   .     S
C731   H734    1.111   .     S
C735   H737    1.111   .     S
C735   H738    1.111   .     S
C735   H736    1.107   .     S
O739   C743    1.298   .     A
O739   Cu751   1.968   .     S
O740   C744    1.298   .     A
O740   Cu752   1.968   .     S
O741   C744    1.286   .     A
O741   Cu751   1.981   .     S
O742   Cu752   1.981   .     S
O742   C743    1.286   .     A
C743   C778    1.465   .     S
C744   C777    1.465   .     S
O745   C749    1.286   .     A
O745   Cu751   1.971   .     S
O746   C750    1.286   .     A
O746   Cu752   1.971   .     S
O747   Cu751   1.971   .     S
O747   C750    1.291   .     A
O748   Cu752   1.971   .     S
O748   C749    1.291   .     A
C749   C756    1.454   .     S
C750   C755    1.454   .     S
Cu751  Cu752   2.674   .     S
Cu751  N787    2.010   .     S
Cu752  N788    2.010   .     S
C753   C763    1.411   .     A
C753   C789    1.522   .     S
C753   C755    1.413   .     A
C754   C764    1.411   .     A
C754   C793    1.522   .     S
C754   C756    1.413   .     A
C755   C757    1.414   .     A
C756   C758    1.414   .     A
C757   C759    1.412   .     A
C757   C797    1.523   .     S
C758   C760    1.412   .     A
C758   C801    1.523   .     S
C759   C765    1.405   .     A
C759   C761    1.417   .     A
C760   C766    1.405   .     A
C760   C762    1.417   .     A
C761   C763    1.416   .     A
C761   C24     1.421   1_556 S
C762   C764    1.416   .     A
C763   C768    1.405   .     A
C764   C767    1.405   .     A
C765   H769    1.081   .     S
C765   C29     1.383   1_556 S
C766   H770    1.081   .     S
C767   H771    1.081   .     S
C768   H772    1.081   .     S
C768   C28     1.383   1_556 S
C773   C805    1.524   .     S
C773   C778    1.422   .     A
C773   C939    1.404   1_455 S
C774   C809    1.524   .     S
C774   C777    1.422   .     A
C774   C858    1.404   .     S
C775   C777    1.414   .     A
C775   C813    1.523   .     S
C775   C855    1.404   .     S
C776   C817    1.523   .     S
C776   C778    1.414   .     A
C776   C938    1.404   1_455 S
C779   N788    1.366   .     A
C779   H783    1.081   .     S
C779   C1274   1.415   1_545 S
C780   H784    1.081   .     S
C780   N787    1.366   .     A
C780   C1027   1.415   .     S
C781   N788    1.367   .     A
C781   H785    1.082   .     S
C781   C1272   1.415   1_545 S
C782   N787    1.367   .     A
C782   H786    1.082   .     S
C782   C1025   1.415   .     S
C789   H790    1.111   .     S
C789   H791    1.105   .     S
C789   H792    1.110   .     S
C793   H794    1.110   .     S
C793   H795    1.105   .     S
C793   H796    1.110   .     S
C797   H798    1.105   .     S
C797   H799    1.110   .     S
C797   H800    1.110   .     S
C801   H803    1.110   .     S
C801   H804    1.110   .     S
C801   H802    1.105   .     S
C805   H806    1.110   .     S
C805   H808    1.106   .     S
C805   H807    1.106   .     S
C809   H812    1.106   .     S
C809   H811    1.106   .     S
C809   H810    1.110   .     S
C813   H814    1.107   .     S
C813   H815    1.111   .     S
C813   H816    1.111   .     S
C817   H819    1.111   .     S
C817   H820    1.111   .     S
C817   H818    1.107   .     S
O821   C825    1.298   .     A
O821   Cu833   1.968   .     S
O822   C826    1.298   .     A
O822   Cu834   1.968   .     S
O823   C826    1.286   .     A
O823   Cu833   1.981   .     S
O824   Cu834   1.981   .     S
O824   C825    1.286   .     A
C825   C860    1.465   .     S
C826   C859    1.465   .     S
O827   C831    1.286   .     A
O827   Cu833   1.971   .     S
O828   C832    1.286   .     A
O828   Cu834   1.971   .     S
O829   Cu833   1.971   .     S
O829   C832    1.291   .     A
O830   Cu834   1.971   .     S
O830   C831    1.291   .     A
C831   C838    1.454   .     S
C832   C837    1.454   .     S
Cu833  Cu834   2.674   .     S
Cu833  N869    2.010   .     S
Cu834  N870    2.010   .     S
C835   C845    1.411   .     A
C835   C871    1.522   .     S
C835   C837    1.413   .     A
C836   C846    1.411   .     A
C836   C875    1.522   .     S
C836   C838    1.413   .     A
C837   C839    1.414   .     A
C838   C840    1.414   .     A
C839   C841    1.412   .     A
C839   C879    1.523   .     S
C840   C842    1.412   .     A
C840   C883    1.523   .     S
C841   C847    1.405   .     A
C841   C843    1.417   .     A
C842   C848    1.405   .     A
C842   C844    1.417   .     A
C843   C845    1.416   .     A
C843   C106    1.421   1_556 S
C844   C846    1.416   .     A
C845   C850    1.405   .     A
C846   C849    1.405   .     A
C847   H851    1.081   .     S
C847   C111    1.383   1_556 S
C848   H852    1.081   .     S
C849   H853    1.081   .     S
C850   H854    1.081   .     S
C850   C110    1.383   1_556 S
C855   C887    1.524   .     S
C855   C860    1.422   .     A
C856   C891    1.524   .     S
C856   C859    1.422   .     A
C856   C940    1.404   .     S
C857   C859    1.414   .     A
C857   C895    1.523   .     S
C857   C937    1.404   .     S
C858   C899    1.523   .     S
C858   C860    1.414   .     A
C861   N870    1.366   .     A
C861   H865    1.081   .     S
C861   C1356   1.415   1_545 S
C862   H866    1.081   .     S
C862   N869    1.366   .     A
C862   C1109   1.415   .     S
C863   N870    1.367   .     A
C863   H867    1.082   .     S
C863   C1354   1.415   1_545 S
C864   N869    1.367   .     A
C864   H868    1.082   .     S
C864   C1107   1.415   .     S
C871   H872    1.111   .     S
C871   H873    1.105   .     S
C871   H874    1.110   .     S
C875   H876    1.110   .     S
C875   H877    1.105   .     S
C875   H878    1.110   .     S
C879   H880    1.105   .     S
C879   H881    1.110   .     S
C879   H882    1.110   .     S
C883   H885    1.110   .     S
C883   H886    1.110   .     S
C883   H884    1.105   .     S
C887   H888    1.110   .     S
C887   H890    1.106   .     S
C887   H889    1.106   .     S
C891   H894    1.106   .     S
C891   H893    1.106   .     S
C891   H892    1.110   .     S
C895   H896    1.107   .     S
C895   H897    1.111   .     S
C895   H898    1.111   .     S
C899   H901    1.111   .     S
C899   H902    1.111   .     S
C899   H900    1.107   .     S
O903   C907    1.298   .     A
O903   Cu915   1.968   .     S
O904   C908    1.298   .     A
O904   Cu916   1.968   .     S
O905   C908    1.286   .     A
O905   Cu915   1.981   .     S
O906   Cu916   1.981   .     S
O906   C907    1.286   .     A
C907   C942    1.465   .     S
C908   C941    1.465   .     S
O909   C913    1.286   .     A
O909   Cu915   1.971   .     S
O910   C914    1.286   .     A
O910   Cu916   1.971   .     S
O911   Cu915   1.971   .     S
O911   C914    1.291   .     A
O912   Cu916   1.971   .     S
O912   C913    1.291   .     A
C913   C920    1.454   .     S
C914   C919    1.454   .     S
Cu915  Cu916   2.674   .     S
Cu915  N951    2.010   .     S
Cu916  N952    2.010   .     S
C917   C927    1.411   .     A
C917   C953    1.522   .     S
C917   C919    1.413   .     A
C918   C928    1.411   .     A
C918   C957    1.522   .     S
C918   C920    1.413   .     A
C919   C921    1.414   .     A
C920   C922    1.414   .     A
C921   C923    1.412   .     A
C921   C961    1.523   .     S
C922   C924    1.412   .     A
C922   C965    1.523   .     S
C923   C929    1.405   .     A
C923   C925    1.417   .     A
C924   C930    1.405   .     A
C924   C926    1.417   .     A
C925   C927    1.416   .     A
C925   C188    1.421   1_556 S
C926   C928    1.416   .     A
C927   C932    1.405   .     A
C928   C931    1.405   .     A
C929   H933    1.081   .     S
C929   C193    1.383   1_556 S
C930   H934    1.081   .     S
C931   H935    1.081   .     S
C932   H936    1.081   .     S
C932   C192    1.383   1_556 S
C937   C969    1.524   .     S
C937   C942    1.422   .     A
C938   C973    1.524   .     S
C938   C941    1.422   .     A
C938   C776    1.404   1_655 S
C939   C941    1.414   .     A
C939   C977    1.523   .     S
C939   C773    1.404   1_655 S
C940   C981    1.523   .     S
C940   C942    1.414   .     A
C943   N952    1.366   .     A
C943   H947    1.081   .     S
C943   C1438   1.415   1_545 S
C944   H948    1.081   .     S
C944   N951    1.366   .     A
C944   C1191   1.415   .     S
C945   N952    1.367   .     A
C945   H949    1.082   .     S
C945   C1436   1.415   1_545 S
C946   N951    1.367   .     A
C946   H950    1.082   .     S
C946   C1189   1.415   .     S
C953   H954    1.111   .     S
C953   H955    1.105   .     S
C953   H956    1.110   .     S
C957   H958    1.110   .     S
C957   H959    1.105   .     S
C957   H960    1.110   .     S
C961   H962    1.105   .     S
C961   H963    1.110   .     S
C961   H964    1.110   .     S
C965   H967    1.110   .     S
C965   H968    1.110   .     S
C965   H966    1.105   .     S
C969   H970    1.110   .     S
C969   H972    1.106   .     S
C969   H971    1.106   .     S
C973   H976    1.106   .     S
C973   H975    1.106   .     S
C973   H974    1.110   .     S
C977   H978    1.107   .     S
C977   H979    1.111   .     S
C977   H980    1.111   .     S
C981   H983    1.111   .     S
C981   H984    1.111   .     S
C981   H982    1.107   .     S
O985   C989    1.298   .     A
O985   Cu997   1.968   .     S
O986   C990    1.298   .     A
O986   Cu998   1.968   .     S
O987   C990    1.286   .     A
O987   Cu997   1.981   .     S
O988   Cu998   1.981   .     S
O988   C989    1.286   .     A
C989   C1024   1.465   .     S
C990   C1023   1.465   .     S
O991   C995    1.286   .     A
O991   Cu997   1.971   .     S
O992   C996    1.286   .     A
O992   Cu998   1.971   .     S
O993   Cu997   1.971   .     S
O993   C996    1.291   .     A
O994   Cu998   1.971   .     S
O994   C995    1.291   .     A
C995   C1002   1.454   .     S
C996   C1001   1.454   .     S
Cu997  Cu998   2.674   .     S
Cu997  N1033   2.010   .     S
Cu998  N1034   2.010   .     S
C999   C1009   1.411   .     A
C999   C1035   1.522   .     S
C999   C1001   1.413   .     A
C1000  C1010   1.411   .     A
C1000  C1039   1.522   .     S
C1000  C1002   1.413   .     A
C1001  C1003   1.414   .     A
C1002  C1004   1.414   .     A
C1003  C1005   1.412   .     A
C1003  C1043   1.523   .     S
C1004  C1006   1.412   .     A
C1004  C1047   1.523   .     S
C1005  C1011   1.405   .     A
C1005  C1007   1.417   .     A
C1006  C1012   1.405   .     A
C1006  C1008   1.417   .     A
C1007  C1009   1.416   .     A
C1007  C270    1.421   1_556 S
C1008  C1010   1.416   .     A
C1009  C1014   1.405   .     A
C1010  C1013   1.405   .     A
C1011  H1015   1.081   .     S
C1011  C275    1.383   1_556 S
C1012  H1016   1.081   .     S
C1013  H1017   1.081   .     S
C1014  H1018   1.081   .     S
C1014  C274    1.383   1_556 S
C1019  C1051   1.524   .     S
C1019  C1024   1.422   .     A
C1019  C1185   1.404   1_455 S
C1020  C1055   1.524   .     S
C1020  C1023   1.422   .     A
C1020  C1104   1.404   .     S
C1021  C1023   1.414   .     A
C1021  C1059   1.523   .     S
C1021  C1101   1.404   .     S
C1022  C1063   1.523   .     S
C1022  C1024   1.414   .     A
C1022  C1184   1.404   1_455 S
C1025  N1034   1.366   .     A
C1025  H1029   1.081   .     S
C1026  H1030   1.081   .     S
C1026  N1033   1.366   .     A
C1026  C1273   1.415   .     S
C1027  N1034   1.367   .     A
C1027  H1031   1.082   .     S
C1028  N1033   1.367   .     A
C1028  H1032   1.082   .     S
C1028  C1271   1.415   .     S
C1035  H1036   1.111   .     S
C1035  H1037   1.105   .     S
C1035  H1038   1.110   .     S
C1039  H1040   1.110   .     S
C1039  H1041   1.105   .     S
C1039  H1042   1.110   .     S
C1043  H1044   1.105   .     S
C1043  H1045   1.110   .     S
C1043  H1046   1.110   .     S
C1047  H1049   1.110   .     S
C1047  H1050   1.110   .     S
C1047  H1048   1.105   .     S
C1051  H1052   1.110   .     S
C1051  H1054   1.106   .     S
C1051  H1053   1.106   .     S
C1055  H1058   1.106   .     S
C1055  H1057   1.106   .     S
C1055  H1056   1.110   .     S
C1059  H1060   1.107   .     S
C1059  H1061   1.111   .     S
C1059  H1062   1.111   .     S
C1063  H1065   1.111   .     S
C1063  H1066   1.111   .     S
C1063  H1064   1.107   .     S
O1067  C1071   1.298   .     A
O1067  Cu1079  1.968   .     S
O1068  C1072   1.298   .     A
O1068  Cu1080  1.968   .     S
O1069  C1072   1.286   .     A
O1069  Cu1079  1.981   .     S
O1070  Cu1080  1.981   .     S
O1070  C1071   1.286   .     A
C1071  C1106   1.465   .     S
C1072  C1105   1.465   .     S
O1073  C1077   1.286   .     A
O1073  Cu1079  1.971   .     S
O1074  C1078   1.286   .     A
O1074  Cu1080  1.971   .     S
O1075  Cu1079  1.971   .     S
O1075  C1078   1.291   .     A
O1076  Cu1080  1.971   .     S
O1076  C1077   1.291   .     A
C1077  C1084   1.454   .     S
C1078  C1083   1.454   .     S
Cu1079 Cu1080  2.674   .     S
Cu1079 N1115   2.010   .     S
Cu1080 N1116   2.010   .     S
C1081  C1091   1.411   .     A
C1081  C1117   1.522   .     S
C1081  C1083   1.413   .     A
C1082  C1092   1.411   .     A
C1082  C1121   1.522   .     S
C1082  C1084   1.413   .     A
C1083  C1085   1.414   .     A
C1084  C1086   1.414   .     A
C1085  C1087   1.412   .     A
C1085  C1125   1.523   .     S
C1086  C1088   1.412   .     A
C1086  C1129   1.523   .     S
C1087  C1093   1.405   .     A
C1087  C1089   1.417   .     A
C1088  C1094   1.405   .     A
C1088  C1090   1.417   .     A
C1089  C1091   1.416   .     A
C1089  C352    1.421   1_556 S
C1090  C1092   1.416   .     A
C1091  C1096   1.405   .     A
C1092  C1095   1.405   .     A
C1093  H1097   1.081   .     S
C1093  C357    1.383   1_556 S
C1094  H1098   1.081   .     S
C1095  H1099   1.081   .     S
C1096  H1100   1.081   .     S
C1096  C356    1.383   1_556 S
C1101  C1133   1.524   .     S
C1101  C1106   1.422   .     A
C1102  C1137   1.524   .     S
C1102  C1105   1.422   .     A
C1102  C1186   1.404   .     S
C1103  C1105   1.414   .     A
C1103  C1141   1.523   .     S
C1103  C1183   1.404   .     S
C1104  C1145   1.523   .     S
C1104  C1106   1.414   .     A
C1107  N1116   1.366   .     A
C1107  H1111   1.081   .     S
C1108  H1112   1.081   .     S
C1108  N1115   1.366   .     A
C1108  C1355   1.415   .     S
C1109  N1116   1.367   .     A
C1109  H1113   1.082   .     S
C1110  N1115   1.367   .     A
C1110  H1114   1.082   .     S
C1110  C1353   1.415   .     S
C1117  H1118   1.111   .     S
C1117  H1119   1.105   .     S
C1117  H1120   1.110   .     S
C1121  H1122   1.110   .     S
C1121  H1123   1.105   .     S
C1121  H1124   1.110   .     S
C1125  H1126   1.105   .     S
C1125  H1127   1.110   .     S
C1125  H1128   1.110   .     S
C1129  H1131   1.110   .     S
C1129  H1132   1.110   .     S
C1129  H1130   1.105   .     S
C1133  H1134   1.110   .     S
C1133  H1136   1.106   .     S
C1133  H1135   1.106   .     S
C1137  H1140   1.106   .     S
C1137  H1139   1.106   .     S
C1137  H1138   1.110   .     S
C1141  H1142   1.107   .     S
C1141  H1143   1.111   .     S
C1141  H1144   1.111   .     S
C1145  H1147   1.111   .     S
C1145  H1148   1.111   .     S
C1145  H1146   1.107   .     S
O1149  C1153   1.298   .     A
O1149  Cu1161  1.968   .     S
O1150  C1154   1.298   .     A
O1150  Cu1162  1.968   .     S
O1151  C1154   1.286   .     A
O1151  Cu1161  1.981   .     S
O1152  Cu1162  1.981   .     S
O1152  C1153   1.286   .     A
C1153  C1188   1.465   .     S
C1154  C1187   1.465   .     S
O1155  C1159   1.286   .     A
O1155  Cu1161  1.971   .     S
O1156  C1160   1.286   .     A
O1156  Cu1162  1.971   .     S
O1157  Cu1161  1.971   .     S
O1157  C1160   1.291   .     A
O1158  Cu1162  1.971   .     S
O1158  C1159   1.291   .     A
C1159  C1166   1.454   .     S
C1160  C1165   1.454   .     S
Cu1161 Cu1162  2.674   .     S
Cu1161 N1197   2.010   .     S
Cu1162 N1198   2.010   .     S
C1163  C1173   1.411   .     A
C1163  C1199   1.522   .     S
C1163  C1165   1.413   .     A
C1164  C1174   1.411   .     A
C1164  C1203   1.522   .     S
C1164  C1166   1.413   .     A
C1165  C1167   1.414   .     A
C1166  C1168   1.414   .     A
C1167  C1169   1.412   .     A
C1167  C1207   1.523   .     S
C1168  C1170   1.412   .     A
C1168  C1211   1.523   .     S
C1169  C1175   1.405   .     A
C1169  C1171   1.417   .     A
C1170  C1176   1.405   .     A
C1170  C1172   1.417   .     A
C1171  C1173   1.416   .     A
C1171  C434    1.421   1_556 S
C1172  C1174   1.416   .     A
C1173  C1178   1.405   .     A
C1174  C1177   1.405   .     A
C1175  H1179   1.081   .     S
C1175  C439    1.383   1_556 S
C1176  H1180   1.081   .     S
C1177  H1181   1.081   .     S
C1178  H1182   1.081   .     S
C1178  C438    1.383   1_556 S
C1183  C1215   1.524   .     S
C1183  C1188   1.422   .     A
C1184  C1219   1.524   .     S
C1184  C1187   1.422   .     A
C1184  C1022   1.404   1_655 S
C1185  C1187   1.414   .     A
C1185  C1223   1.523   .     S
C1185  C1019   1.404   1_655 S
C1186  C1227   1.523   .     S
C1186  C1188   1.414   .     A
C1189  N1198   1.366   .     A
C1189  H1193   1.081   .     S
C1190  H1194   1.081   .     S
C1190  N1197   1.366   .     A
C1190  C1437   1.415   .     S
C1191  N1198   1.367   .     A
C1191  H1195   1.082   .     S
C1192  N1197   1.367   .     A
C1192  H1196   1.082   .     S
C1192  C1435   1.415   .     S
C1199  H1200   1.111   .     S
C1199  H1201   1.105   .     S
C1199  H1202   1.110   .     S
C1203  H1204   1.110   .     S
C1203  H1205   1.105   .     S
C1203  H1206   1.110   .     S
C1207  H1208   1.105   .     S
C1207  H1209   1.110   .     S
C1207  H1210   1.110   .     S
C1211  H1213   1.110   .     S
C1211  H1214   1.110   .     S
C1211  H1212   1.105   .     S
C1215  H1216   1.110   .     S
C1215  H1218   1.106   .     S
C1215  H1217   1.106   .     S
C1219  H1222   1.106   .     S
C1219  H1221   1.106   .     S
C1219  H1220   1.110   .     S
C1223  H1224   1.107   .     S
C1223  H1225   1.111   .     S
C1223  H1226   1.111   .     S
C1227  H1229   1.111   .     S
C1227  H1230   1.111   .     S
C1227  H1228   1.107   .     S
O1231  C1235   1.298   .     A
O1231  Cu1243  1.968   .     S
O1232  C1236   1.298   .     A
O1232  Cu1244  1.968   .     S
O1233  C1236   1.286   .     A
O1233  Cu1243  1.981   .     S
O1234  Cu1244  1.981   .     S
O1234  C1235   1.286   .     A
C1235  C1270   1.465   .     S
C1236  C1269   1.465   .     S
O1237  C1241   1.286   .     A
O1237  Cu1243  1.971   .     S
O1238  C1242   1.286   .     A
O1238  Cu1244  1.971   .     S
O1239  Cu1243  1.971   .     S
O1239  C1242   1.291   .     A
O1240  Cu1244  1.971   .     S
O1240  C1241   1.291   .     A
C1241  C1248   1.454   .     S
C1242  C1247   1.454   .     S
Cu1243 Cu1244  2.674   .     S
Cu1243 N1279   2.010   .     S
Cu1244 N1280   2.010   .     S
C1245  C1255   1.411   .     A
C1245  C1281   1.522   .     S
C1245  C1247   1.413   .     A
C1246  C1256   1.411   .     A
C1246  C1285   1.522   .     S
C1246  C1248   1.413   .     A
C1247  C1249   1.414   .     A
C1248  C1250   1.414   .     A
C1249  C1251   1.412   .     A
C1249  C1289   1.523   .     S
C1250  C1252   1.412   .     A
C1250  C1293   1.523   .     S
C1251  C1257   1.405   .     A
C1251  C1253   1.417   .     A
C1252  C1258   1.405   .     A
C1252  C1254   1.417   .     A
C1253  C1255   1.416   .     A
C1253  C516    1.421   1_556 S
C1254  C1256   1.416   .     A
C1255  C1260   1.405   .     A
C1256  C1259   1.405   .     A
C1257  H1261   1.081   .     S
C1257  C521    1.383   1_556 S
C1258  H1262   1.081   .     S
C1259  H1263   1.081   .     S
C1260  H1264   1.081   .     S
C1260  C520    1.383   1_556 S
C1265  C1297   1.524   .     S
C1265  C1270   1.422   .     A
C1265  C1431   1.404   1_455 S
C1266  C1301   1.524   .     S
C1266  C1269   1.422   .     A
C1266  C1350   1.404   .     S
C1267  C1269   1.414   .     A
C1267  C1305   1.523   .     S
C1267  C1347   1.404   .     S
C1268  C1309   1.523   .     S
C1268  C1270   1.414   .     A
C1268  C1430   1.404   1_455 S
C1271  N1280   1.366   .     A
C1271  H1275   1.081   .     S
C1272  H1276   1.081   .     S
C1272  N1279   1.366   .     A
C1272  C781    1.415   1_565 S
C1273  N1280   1.367   .     A
C1273  H1277   1.082   .     S
C1274  N1279   1.367   .     A
C1274  H1278   1.082   .     S
C1274  C779    1.415   1_565 S
C1281  H1282   1.111   .     S
C1281  H1283   1.105   .     S
C1281  H1284   1.110   .     S
C1285  H1286   1.110   .     S
C1285  H1287   1.105   .     S
C1285  H1288   1.110   .     S
C1289  H1290   1.105   .     S
C1289  H1291   1.110   .     S
C1289  H1292   1.110   .     S
C1293  H1295   1.110   .     S
C1293  H1296   1.110   .     S
C1293  H1294   1.105   .     S
C1297  H1298   1.110   .     S
C1297  H1300   1.106   .     S
C1297  H1299   1.106   .     S
C1301  H1304   1.106   .     S
C1301  H1303   1.106   .     S
C1301  H1302   1.110   .     S
C1305  H1306   1.107   .     S
C1305  H1307   1.111   .     S
C1305  H1308   1.111   .     S
C1309  H1311   1.111   .     S
C1309  H1312   1.111   .     S
C1309  H1310   1.107   .     S
O1313  C1317   1.298   .     A
O1313  Cu1325  1.968   .     S
O1314  C1318   1.298   .     A
O1314  Cu1326  1.968   .     S
O1315  C1318   1.286   .     A
O1315  Cu1325  1.981   .     S
O1316  Cu1326  1.981   .     S
O1316  C1317   1.286   .     A
C1317  C1352   1.465   .     S
C1318  C1351   1.465   .     S
O1319  C1323   1.286   .     A
O1319  Cu1325  1.971   .     S
O1320  C1324   1.286   .     A
O1320  Cu1326  1.971   .     S
O1321  Cu1325  1.971   .     S
O1321  C1324   1.291   .     A
O1322  Cu1326  1.971   .     S
O1322  C1323   1.291   .     A
C1323  C1330   1.454   .     S
C1324  C1329   1.454   .     S
Cu1325 Cu1326  2.674   .     S
Cu1325 N1361   2.010   .     S
Cu1326 N1362   2.010   .     S
C1327  C1337   1.411   .     A
C1327  C1363   1.522   .     S
C1327  C1329   1.413   .     A
C1328  C1338   1.411   .     A
C1328  C1367   1.522   .     S
C1328  C1330   1.413   .     A
C1329  C1331   1.414   .     A
C1330  C1332   1.414   .     A
C1331  C1333   1.412   .     A
C1331  C1371   1.523   .     S
C1332  C1334   1.412   .     A
C1332  C1375   1.523   .     S
C1333  C1339   1.405   .     A
C1333  C1335   1.417   .     A
C1334  C1340   1.405   .     A
C1334  C1336   1.417   .     A
C1335  C1337   1.416   .     A
C1335  C598    1.421   1_556 S
C1336  C1338   1.416   .     A
C1337  C1342   1.405   .     A
C1338  C1341   1.405   .     A
C1339  H1343   1.081   .     S
C1339  C603    1.383   1_556 S
C1340  H1344   1.081   .     S
C1341  H1345   1.081   .     S
C1342  H1346   1.081   .     S
C1342  C602    1.383   1_556 S
C1347  C1379   1.524   .     S
C1347  C1352   1.422   .     A
C1348  C1383   1.524   .     S
C1348  C1351   1.422   .     A
C1348  C1432   1.404   .     S
C1349  C1351   1.414   .     A
C1349  C1387   1.523   .     S
C1349  C1429   1.404   .     S
C1350  C1391   1.523   .     S
C1350  C1352   1.414   .     A
C1353  N1362   1.366   .     A
C1353  H1357   1.081   .     S
C1354  H1358   1.081   .     S
C1354  N1361   1.366   .     A
C1354  C863    1.415   1_565 S
C1355  N1362   1.367   .     A
C1355  H1359   1.082   .     S
C1356  N1361   1.367   .     A
C1356  H1360   1.082   .     S
C1356  C861    1.415   1_565 S
C1363  H1364   1.111   .     S
C1363  H1365   1.105   .     S
C1363  H1366   1.110   .     S
C1367  H1368   1.110   .     S
C1367  H1369   1.105   .     S
C1367  H1370   1.110   .     S
C1371  H1372   1.105   .     S
C1371  H1373   1.110   .     S
C1371  H1374   1.110   .     S
C1375  H1377   1.110   .     S
C1375  H1378   1.110   .     S
C1375  H1376   1.105   .     S
C1379  H1380   1.110   .     S
C1379  H1382   1.106   .     S
C1379  H1381   1.106   .     S
C1383  H1386   1.106   .     S
C1383  H1385   1.106   .     S
C1383  H1384   1.110   .     S
C1387  H1388   1.107   .     S
C1387  H1389   1.111   .     S
C1387  H1390   1.111   .     S
C1391  H1393   1.111   .     S
C1391  H1394   1.111   .     S
C1391  H1392   1.107   .     S
O1395  C1399   1.298   .     A
O1395  Cu1407  1.968   .     S
O1396  C1400   1.298   .     A
O1396  Cu1408  1.968   .     S
O1397  C1400   1.286   .     A
O1397  Cu1407  1.981   .     S
O1398  Cu1408  1.981   .     S
O1398  C1399   1.286   .     A
C1399  C1434   1.465   .     S
C1400  C1433   1.465   .     S
O1401  C1405   1.286   .     A
O1401  Cu1407  1.971   .     S
O1402  C1406   1.286   .     A
O1402  Cu1408  1.971   .     S
O1403  Cu1407  1.971   .     S
O1403  C1406   1.291   .     A
O1404  Cu1408  1.971   .     S
O1404  C1405   1.291   .     A
C1405  C1412   1.454   .     S
C1406  C1411   1.454   .     S
Cu1407 Cu1408  2.674   .     S
Cu1407 N1443   2.010   .     S
Cu1408 N1444   2.010   .     S
C1409  C1419   1.411   .     A
C1409  C1445   1.522   .     S
C1409  C1411   1.413   .     A
C1410  C1420   1.411   .     A
C1410  C1449   1.522   .     S
C1410  C1412   1.413   .     A
C1411  C1413   1.414   .     A
C1412  C1414   1.414   .     A
C1413  C1415   1.412   .     A
C1413  C1453   1.523   .     S
C1414  C1416   1.412   .     A
C1414  C1457   1.523   .     S
C1415  C1421   1.405   .     A
C1415  C1417   1.417   .     A
C1416  C1422   1.405   .     A
C1416  C1418   1.417   .     A
C1417  C1419   1.416   .     A
C1417  C680    1.421   1_556 S
C1418  C1420   1.416   .     A
C1419  C1424   1.405   .     A
C1420  C1423   1.405   .     A
C1421  H1425   1.081   .     S
C1421  C685    1.383   1_556 S
C1422  H1426   1.081   .     S
C1423  H1427   1.081   .     S
C1424  H1428   1.081   .     S
C1424  C684    1.383   1_556 S
C1429  C1461   1.524   .     S
C1429  C1434   1.422   .     A
C1430  C1465   1.524   .     S
C1430  C1433   1.422   .     A
C1430  C1268   1.404   1_655 S
C1431  C1433   1.414   .     A
C1431  C1469   1.523   .     S
C1431  C1265   1.404   1_655 S
C1432  C1473   1.523   .     S
C1432  C1434   1.414   .     A
C1435  N1444   1.366   .     A
C1435  H1439   1.081   .     S
C1436  H1440   1.081   .     S
C1436  N1443   1.366   .     A
C1436  C945    1.415   1_565 S
C1437  N1444   1.367   .     A
C1437  H1441   1.082   .     S
C1438  N1443   1.367   .     A
C1438  H1442   1.082   .     S
C1438  C943    1.415   1_565 S
C1445  H1446   1.111   .     S
C1445  H1447   1.105   .     S
C1445  H1448   1.110   .     S
C1449  H1450   1.110   .     S
C1449  H1451   1.105   .     S
C1449  H1452   1.110   .     S
C1453  H1454   1.105   .     S
C1453  H1455   1.110   .     S
C1453  H1456   1.110   .     S
C1457  H1459   1.110   .     S
C1457  H1460   1.110   .     S
C1457  H1458   1.105   .     S
C1461  H1462   1.110   .     S
C1461  H1464   1.106   .     S
C1461  H1463   1.106   .     S
C1465  H1468   1.106   .     S
C1465  H1467   1.106   .     S
C1465  H1466   1.110   .     S
C1469  H1470   1.107   .     S
C1469  H1471   1.111   .     S
C1469  H1472   1.111   .     S
C1473  H1475   1.111   .     S
C1473  H1476   1.111   .     S
C1473  H1474   1.107   .     S
