data_str_m2_o10_o18_pcu_sym.69
_audit_creation_date              2020-01-03
_audit_creation_method            'Materials Studio'
_symmetry_space_group_name_H-M    'P1'
_symmetry_Int_Tables_number       1
_symmetry_cell_setting            triclinic
loop_
_symmetry_equiv_pos_as_xyz
  x,y,z
_cell_length_a                    22.4167
_cell_length_b                    25.8509
_cell_length_c                    31.6316
_cell_angle_alpha                 94.2241
_cell_angle_beta                  75.2095
_cell_angle_gamma                 103.1170
loop_
_atom_site_label
_atom_site_type_symbol
_atom_site_fract_x
_atom_site_fract_y
_atom_site_fract_z
_atom_site_U_iso_or_equiv
_atom_site_adp_type
_atom_site_occupancy
C1     C     0.18374   0.26686   0.24711   0.00000  Uiso   1.00
C2     C     0.20512   0.17008   0.16692   0.00000  Uiso   1.00
C3     C     0.10492   0.15486   0.38040   0.00000  Uiso   1.00
C4     C     0.22828   0.17381   0.11921   0.00000  Uiso   1.00
C5     C     0.02679   0.11226   0.44254   0.00000  Uiso   1.00
C6     C     0.31029   0.20460   0.05477   0.00000  Uiso   1.00
C7     C     0.04378   0.12647   0.39876   0.00000  Uiso   1.00
C8     C     0.29172   0.19498   0.09947   0.00000  Uiso   1.00
C9     C     0.14782   0.17089   0.40658   0.00000  Uiso   1.00
C10    C     0.18458   0.15910   0.09344   0.00000  Uiso   1.00
C11    C     0.13285   0.15535   0.45039   0.00000  Uiso   1.00
C12    C     0.15389   0.06663   0.24413   0.00000  Uiso   1.00
C13    C     0.20238   0.16690   0.04805   0.00000  Uiso   1.00
C14    C     0.07086   0.12596   0.46829   0.00000  Uiso   1.00
C15    C     0.26599   0.19180   0.02918   0.00000  Uiso   1.00
C16    C     0.17777   0.16739   0.47655   0.00000  Uiso   1.00
C17    C     0.15841   0.15248   0.02131   0.00000  Uiso   1.00
C18    C     0.09616   0.12278   0.03760   0.00000  Uiso   1.00
C19    C     0.24173   0.19268   0.45927   0.00000  Uiso   1.00
C20    C     0.05355   0.10977   0.01149   0.00000  Uiso   1.00
C21    C     0.28477   0.20424   0.48509   0.00000  Uiso   1.00
C22    C     0.19810   0.32260   0.23551   0.00000  Uiso   1.00
C23    C     0.15140   0.01094   0.23135   0.00000  Uiso   1.00
C24    C     0.12814   0.16253   0.33304   0.00000  Uiso   1.00
Cu25   Cu    0.10737   0.16108   0.24517   0.00000  Uiso   1.00
Cu26   Cu    0.22596   0.17225   0.25484   0.00000  Uiso   1.00
H27    H     0.00646   0.08682   0.02534   0.00000  Uiso   1.00
H28    H     0.26104   0.20310   0.42546   0.00000  Uiso   1.00
H29    H     0.33270   0.20219   0.28662   0.00000  Uiso   1.00
H30    H     0.00173   0.13306   0.21240   0.00000  Uiso   1.00
H31    H     0.27770   0.29816   0.14407   0.00000  Uiso   1.00
H32    H     0.03751   0.24728   0.19210   0.00000  Uiso   1.00
H33    H    -0.00000   0.22328   0.47034   0.00000  Uiso   1.00
H34    H     0.13618   0.14358   0.11001   0.00000  Uiso   1.00
H35    H     0.19309   0.19498   0.39143   0.00000  Uiso   1.00
H36    H     0.32633   0.20619   0.11879   0.00000  Uiso   1.00
H37    H     0.00998   0.11367   0.37897   0.00000  Uiso   1.00
H38    H     0.31275   0.08972   0.45615   0.00000  Uiso   1.00
H39    H     0.02588   0.22279   0.04025   0.00000  Uiso   1.00
H40    H     0.07898   0.10741   0.07021   0.00000  Uiso   1.00
N41    N     0.31506   0.18068   0.26212   0.00000  Uiso   1.00
N42    N     0.01827   0.15265   0.23788   0.00000  Uiso   1.00
O43    O     0.12815   0.23809   0.24686   0.00000  Uiso   1.00
O44    O     0.31843   0.03237   0.23184   0.00000  Uiso   1.00
O45    O     0.29825   0.29912   0.16843   0.00000  Uiso   1.00
O46    O     0.09858   0.02790   0.16714   0.00000  Uiso   1.00
O47    O     0.15143   0.28666   0.15693   0.00000  Uiso   1.00
O48    O     0.04328   0.27667   0.21361   0.00000  Uiso   1.00
O49    O     0.20518   0.09524   0.25314   0.00000  Uiso   1.00
O50    O     0.22829   0.24753   0.25503   0.00000  Uiso   1.00
O51    O     0.10504   0.08580   0.24498   0.00000  Uiso   1.00
O52    O     0.08851   0.15930   0.30855   0.00000  Uiso   1.00
O53    O     0.24482   0.17403   0.19146   0.00000  Uiso   1.00
O54    O     0.18866   0.16874   0.31671   0.00000  Uiso   1.00
O55    O     0.14468   0.16460   0.18329   0.00000  Uiso   1.00
O56    O     0.27506   0.05983   0.17531   0.00000  Uiso   1.00
S57    S     0.27445   0.01424   0.20245   0.00000  Uiso   1.00
S58    S     0.11153   0.31763   0.19009   0.00000  Uiso   1.00
C59    C     0.51707   0.26686   0.24711   0.00000  Uiso   1.00
C60    C     0.53846   0.17008   0.16692   0.00000  Uiso   1.00
C61    C     0.43825   0.15486   0.38040   0.00000  Uiso   1.00
C62    C     0.56161   0.17381   0.11921   0.00000  Uiso   1.00
C63    C     0.36013   0.11226   0.44254   0.00000  Uiso   1.00
C64    C     0.64363   0.20460   0.05477   0.00000  Uiso   1.00
C65    C     0.37712   0.12647   0.39876   0.00000  Uiso   1.00
C66    C     0.62505   0.19498   0.09947   0.00000  Uiso   1.00
C67    C     0.48116   0.17089   0.40658   0.00000  Uiso   1.00
C68    C     0.51791   0.15910   0.09344   0.00000  Uiso   1.00
C69    C     0.46619   0.15535   0.45039   0.00000  Uiso   1.00
C70    C     0.48723   0.06663   0.24413   0.00000  Uiso   1.00
C71    C     0.53572   0.16690   0.04805   0.00000  Uiso   1.00
C72    C     0.40419   0.12596   0.46829   0.00000  Uiso   1.00
C73    C     0.59933   0.19180   0.02918   0.00000  Uiso   1.00
C74    C     0.51111   0.16739   0.47655   0.00000  Uiso   1.00
C75    C     0.49174   0.15248   0.02131   0.00000  Uiso   1.00
C76    C     0.42949   0.12278   0.03760   0.00000  Uiso   1.00
C77    C     0.57506   0.19268   0.45927   0.00000  Uiso   1.00
C78    C     0.38689   0.10977   0.01149   0.00000  Uiso   1.00
C79    C     0.61810   0.20424   0.48509   0.00000  Uiso   1.00
C80    C     0.53143   0.32260   0.23551   0.00000  Uiso   1.00
C81    C     0.48474   0.01094   0.23135   0.00000  Uiso   1.00
C82    C     0.46147   0.16253   0.33304   0.00000  Uiso   1.00
Cu83   Cu    0.44071   0.16108   0.24517   0.00000  Uiso   1.00
Cu84   Cu    0.55929   0.17225   0.25484   0.00000  Uiso   1.00
H85    H     0.33980   0.08682   0.02534   0.00000  Uiso   1.00
H86    H     0.59437   0.20310   0.42546   0.00000  Uiso   1.00
H87    H     0.66603   0.20219   0.28662   0.00000  Uiso   1.00
H88    H     0.33506   0.13306   0.21240   0.00000  Uiso   1.00
H89    H     0.61103   0.29816   0.14407   0.00000  Uiso   1.00
H90    H     0.37084   0.24728   0.19210   0.00000  Uiso   1.00
H91    H     0.33333   0.22328   0.47034   0.00000  Uiso   1.00
H92    H     0.46952   0.14358   0.11001   0.00000  Uiso   1.00
H93    H     0.52642   0.19498   0.39143   0.00000  Uiso   1.00
H94    H     0.65966   0.20619   0.11879   0.00000  Uiso   1.00
H95    H     0.34332   0.11367   0.37897   0.00000  Uiso   1.00
H96    H     0.64609   0.08972   0.45615   0.00000  Uiso   1.00
H97    H     0.35921   0.22279   0.04025   0.00000  Uiso   1.00
H98    H     0.41231   0.10741   0.07021   0.00000  Uiso   1.00
N99    N     0.64839   0.18068   0.26212   0.00000  Uiso   1.00
N100   N     0.35161   0.15265   0.23788   0.00000  Uiso   1.00
O101   O     0.46148   0.23809   0.24686   0.00000  Uiso   1.00
O102   O     0.65177   0.03237   0.23184   0.00000  Uiso   1.00
O103   O     0.63158   0.29912   0.16843   0.00000  Uiso   1.00
O104   O     0.43191   0.02790   0.16714   0.00000  Uiso   1.00
O105   O     0.48476   0.28666   0.15693   0.00000  Uiso   1.00
O106   O     0.37661   0.27667   0.21361   0.00000  Uiso   1.00
O107   O     0.53852   0.09524   0.25314   0.00000  Uiso   1.00
O108   O     0.56163   0.24753   0.25503   0.00000  Uiso   1.00
O109   O     0.43837   0.08580   0.24498   0.00000  Uiso   1.00
O110   O     0.42185   0.15930   0.30855   0.00000  Uiso   1.00
O111   O     0.57815   0.17403   0.19146   0.00000  Uiso   1.00
O112   O     0.52199   0.16874   0.31671   0.00000  Uiso   1.00
O113   O     0.47801   0.16460   0.18329   0.00000  Uiso   1.00
O114   O     0.60839   0.05983   0.17531   0.00000  Uiso   1.00
S115   S     0.60778   0.01424   0.20245   0.00000  Uiso   1.00
S116   S     0.44486   0.31763   0.19009   0.00000  Uiso   1.00
C117   C     0.85040   0.26686   0.24711   0.00000  Uiso   1.00
C118   C     0.87179   0.17008   0.16692   0.00000  Uiso   1.00
C119   C     0.77159   0.15486   0.38040   0.00000  Uiso   1.00
C120   C     0.89494   0.17381   0.11921   0.00000  Uiso   1.00
C121   C     0.69346   0.11226   0.44254   0.00000  Uiso   1.00
C122   C     0.97696   0.20460   0.05477   0.00000  Uiso   1.00
C123   C     0.71045   0.12647   0.39876   0.00000  Uiso   1.00
C124   C     0.95839   0.19498   0.09947   0.00000  Uiso   1.00
C125   C     0.81449   0.17089   0.40658   0.00000  Uiso   1.00
C126   C     0.85125   0.15910   0.09344   0.00000  Uiso   1.00
C127   C     0.79952   0.15535   0.45039   0.00000  Uiso   1.00
C128   C     0.82056   0.06663   0.24413   0.00000  Uiso   1.00
C129   C     0.86905   0.16690   0.04805   0.00000  Uiso   1.00
C130   C     0.73752   0.12596   0.46829   0.00000  Uiso   1.00
C131   C     0.93266   0.19180   0.02918   0.00000  Uiso   1.00
C132   C     0.84444   0.16739   0.47655   0.00000  Uiso   1.00
C133   C     0.82507   0.15248   0.02131   0.00000  Uiso   1.00
C134   C     0.76282   0.12278   0.03760   0.00000  Uiso   1.00
C135   C     0.90839   0.19268   0.45927   0.00000  Uiso   1.00
C136   C     0.72022   0.10977   0.01149   0.00000  Uiso   1.00
C137   C     0.95144   0.20424   0.48509   0.00000  Uiso   1.00
C138   C     0.86477   0.32260   0.23551   0.00000  Uiso   1.00
C139   C     0.81807   0.01094   0.23135   0.00000  Uiso   1.00
C140   C     0.79480   0.16253   0.33304   0.00000  Uiso   1.00
Cu141  Cu    0.77404   0.16108   0.24517   0.00000  Uiso   1.00
Cu142  Cu    0.89263   0.17225   0.25484   0.00000  Uiso   1.00
H143   H     0.67313   0.08682   0.02534   0.00000  Uiso   1.00
H144   H     0.92770   0.20310   0.42546   0.00000  Uiso   1.00
H145   H     0.99936   0.20219   0.28662   0.00000  Uiso   1.00
H146   H     0.66840   0.13306   0.21240   0.00000  Uiso   1.00
H147   H     0.94436   0.29816   0.14407   0.00000  Uiso   1.00
H148   H     0.70417   0.24728   0.19210   0.00000  Uiso   1.00
H149   H     0.66666   0.22328   0.47034   0.00000  Uiso   1.00
H150   H     0.80285   0.14358   0.11001   0.00000  Uiso   1.00
H151   H     0.85975   0.19498   0.39143   0.00000  Uiso   1.00
H152   H     0.99299   0.20619   0.11879   0.00000  Uiso   1.00
H153   H     0.67665   0.11367   0.37897   0.00000  Uiso   1.00
H154   H     0.97942   0.08972   0.45615   0.00000  Uiso   1.00
H155   H     0.69255   0.22279   0.04025   0.00000  Uiso   1.00
H156   H     0.74564   0.10741   0.07021   0.00000  Uiso   1.00
N157   N     0.98173   0.18068   0.26212   0.00000  Uiso   1.00
N158   N     0.68494   0.15265   0.23788   0.00000  Uiso   1.00
O159   O     0.79482   0.23809   0.24686   0.00000  Uiso   1.00
O160   O     0.98510   0.03237   0.23184   0.00000  Uiso   1.00
O161   O     0.96491   0.29912   0.16843   0.00000  Uiso   1.00
O162   O     0.76524   0.02790   0.16714   0.00000  Uiso   1.00
O163   O     0.81809   0.28666   0.15693   0.00000  Uiso   1.00
O164   O     0.70995   0.27667   0.21361   0.00000  Uiso   1.00
O165   O     0.87185   0.09524   0.25314   0.00000  Uiso   1.00
O166   O     0.89496   0.24753   0.25503   0.00000  Uiso   1.00
O167   O     0.77171   0.08580   0.24498   0.00000  Uiso   1.00
O168   O     0.75518   0.15930   0.30855   0.00000  Uiso   1.00
O169   O     0.91149   0.17403   0.19146   0.00000  Uiso   1.00
O170   O     0.85532   0.16874   0.31671   0.00000  Uiso   1.00
O171   O     0.81134   0.16460   0.18329   0.00000  Uiso   1.00
O172   O     0.94172   0.05983   0.17531   0.00000  Uiso   1.00
S173   S     0.94112   0.01424   0.20245   0.00000  Uiso   1.00
S174   S     0.77819   0.31763   0.19009   0.00000  Uiso   1.00
C175   C     0.18374   0.60020   0.24711   0.00000  Uiso   1.00
C176   C     0.20512   0.50341   0.16692   0.00000  Uiso   1.00
C177   C     0.10492   0.48819   0.38040   0.00000  Uiso   1.00
C178   C     0.22828   0.50714   0.11921   0.00000  Uiso   1.00
C179   C     0.02679   0.44559   0.44254   0.00000  Uiso   1.00
C180   C     0.31029   0.53793   0.05477   0.00000  Uiso   1.00
C181   C     0.04378   0.45980   0.39876   0.00000  Uiso   1.00
C182   C     0.29172   0.52831   0.09947   0.00000  Uiso   1.00
C183   C     0.14782   0.50423   0.40658   0.00000  Uiso   1.00
C184   C     0.18458   0.49243   0.09344   0.00000  Uiso   1.00
C185   C     0.13285   0.48869   0.45039   0.00000  Uiso   1.00
C186   C     0.15389   0.39997   0.24413   0.00000  Uiso   1.00
C187   C     0.20238   0.50023   0.04805   0.00000  Uiso   1.00
C188   C     0.07086   0.45929   0.46829   0.00000  Uiso   1.00
C189   C     0.26599   0.52513   0.02918   0.00000  Uiso   1.00
C190   C     0.17777   0.50072   0.47655   0.00000  Uiso   1.00
C191   C     0.15841   0.48581   0.02131   0.00000  Uiso   1.00
C192   C     0.09616   0.45612   0.03760   0.00000  Uiso   1.00
C193   C     0.24173   0.52601   0.45927   0.00000  Uiso   1.00
C194   C     0.05355   0.44310   0.01149   0.00000  Uiso   1.00
C195   C     0.28477   0.53758   0.48509   0.00000  Uiso   1.00
C196   C     0.19810   0.65593   0.23551   0.00000  Uiso   1.00
C197   C     0.15140   0.34427   0.23135   0.00000  Uiso   1.00
C198   C     0.12814   0.49586   0.33304   0.00000  Uiso   1.00
Cu199  Cu    0.10737   0.49441   0.24517   0.00000  Uiso   1.00
Cu200  Cu    0.22596   0.50559   0.25484   0.00000  Uiso   1.00
H201   H     0.00646   0.42016   0.02534   0.00000  Uiso   1.00
H202   H     0.26104   0.53643   0.42546   0.00000  Uiso   1.00
H203   H     0.33270   0.53553   0.28662   0.00000  Uiso   1.00
H204   H     0.00173   0.46639   0.21240   0.00000  Uiso   1.00
H205   H     0.27770   0.63149   0.14407   0.00000  Uiso   1.00
H206   H     0.03751   0.58061   0.19210   0.00000  Uiso   1.00
H207   H    -0.00000   0.55661   0.47034   0.00000  Uiso   1.00
H208   H     0.13618   0.47691   0.11001   0.00000  Uiso   1.00
H209   H     0.19309   0.52831   0.39143   0.00000  Uiso   1.00
H210   H     0.32633   0.53952   0.11879   0.00000  Uiso   1.00
H211   H     0.00998   0.44700   0.37897   0.00000  Uiso   1.00
H212   H     0.31275   0.42305   0.45615   0.00000  Uiso   1.00
H213   H     0.02588   0.55613   0.04025   0.00000  Uiso   1.00
H214   H     0.07898   0.44075   0.07021   0.00000  Uiso   1.00
N215   N     0.31506   0.51401   0.26212   0.00000  Uiso   1.00
N216   N     0.01827   0.48599   0.23788   0.00000  Uiso   1.00
O217   O     0.12815   0.57142   0.24686   0.00000  Uiso   1.00
O218   O     0.31843   0.36571   0.23184   0.00000  Uiso   1.00
O219   O     0.29825   0.63246   0.16843   0.00000  Uiso   1.00
O220   O     0.09858   0.36124   0.16714   0.00000  Uiso   1.00
O221   O     0.15143   0.62000   0.15693   0.00000  Uiso   1.00
O222   O     0.04328   0.61000   0.21361   0.00000  Uiso   1.00
O223   O     0.20518   0.42858   0.25314   0.00000  Uiso   1.00
O224   O     0.22829   0.58086   0.25503   0.00000  Uiso   1.00
O225   O     0.10504   0.41914   0.24498   0.00000  Uiso   1.00
O226   O     0.08851   0.49263   0.30855   0.00000  Uiso   1.00
O227   O     0.24482   0.50737   0.19146   0.00000  Uiso   1.00
O228   O     0.18866   0.50207   0.31671   0.00000  Uiso   1.00
O229   O     0.14468   0.49793   0.18329   0.00000  Uiso   1.00
O230   O     0.27506   0.39316   0.17531   0.00000  Uiso   1.00
S231   S     0.27445   0.34757   0.20245   0.00000  Uiso   1.00
S232   S     0.11153   0.65096   0.19009   0.00000  Uiso   1.00
C233   C     0.51707   0.60020   0.24711   0.00000  Uiso   1.00
C234   C     0.53846   0.50341   0.16692   0.00000  Uiso   1.00
C235   C     0.43825   0.48819   0.38040   0.00000  Uiso   1.00
C236   C     0.56161   0.50714   0.11921   0.00000  Uiso   1.00
C237   C     0.36013   0.44559   0.44254   0.00000  Uiso   1.00
C238   C     0.64363   0.53793   0.05477   0.00000  Uiso   1.00
C239   C     0.37712   0.45980   0.39876   0.00000  Uiso   1.00
C240   C     0.62505   0.52831   0.09947   0.00000  Uiso   1.00
C241   C     0.48116   0.50423   0.40658   0.00000  Uiso   1.00
C242   C     0.51791   0.49243   0.09344   0.00000  Uiso   1.00
C243   C     0.46619   0.48869   0.45039   0.00000  Uiso   1.00
C244   C     0.48723   0.39997   0.24413   0.00000  Uiso   1.00
C245   C     0.53572   0.50023   0.04805   0.00000  Uiso   1.00
C246   C     0.40419   0.45929   0.46829   0.00000  Uiso   1.00
C247   C     0.59933   0.52513   0.02918   0.00000  Uiso   1.00
C248   C     0.51111   0.50072   0.47655   0.00000  Uiso   1.00
C249   C     0.49174   0.48581   0.02131   0.00000  Uiso   1.00
C250   C     0.42949   0.45612   0.03760   0.00000  Uiso   1.00
C251   C     0.57506   0.52601   0.45927   0.00000  Uiso   1.00
C252   C     0.38689   0.44310   0.01149   0.00000  Uiso   1.00
C253   C     0.61810   0.53758   0.48509   0.00000  Uiso   1.00
C254   C     0.53143   0.65593   0.23551   0.00000  Uiso   1.00
C255   C     0.48474   0.34427   0.23135   0.00000  Uiso   1.00
C256   C     0.46147   0.49586   0.33304   0.00000  Uiso   1.00
Cu257  Cu    0.44071   0.49441   0.24517   0.00000  Uiso   1.00
Cu258  Cu    0.55929   0.50559   0.25484   0.00000  Uiso   1.00
H259   H     0.33980   0.42016   0.02534   0.00000  Uiso   1.00
H260   H     0.59437   0.53643   0.42546   0.00000  Uiso   1.00
H261   H     0.66603   0.53553   0.28662   0.00000  Uiso   1.00
H262   H     0.33506   0.46639   0.21240   0.00000  Uiso   1.00
H263   H     0.61103   0.63149   0.14407   0.00000  Uiso   1.00
H264   H     0.37084   0.58061   0.19210   0.00000  Uiso   1.00
H265   H     0.33333   0.55661   0.47034   0.00000  Uiso   1.00
H266   H     0.46952   0.47691   0.11001   0.00000  Uiso   1.00
H267   H     0.52642   0.52831   0.39143   0.00000  Uiso   1.00
H268   H     0.65966   0.53952   0.11879   0.00000  Uiso   1.00
H269   H     0.34332   0.44700   0.37897   0.00000  Uiso   1.00
H270   H     0.64609   0.42305   0.45615   0.00000  Uiso   1.00
H271   H     0.35921   0.55613   0.04025   0.00000  Uiso   1.00
H272   H     0.41231   0.44075   0.07021   0.00000  Uiso   1.00
N273   N     0.64839   0.51401   0.26212   0.00000  Uiso   1.00
N274   N     0.35161   0.48599   0.23788   0.00000  Uiso   1.00
O275   O     0.46148   0.57142   0.24686   0.00000  Uiso   1.00
O276   O     0.65177   0.36571   0.23184   0.00000  Uiso   1.00
O277   O     0.63158   0.63246   0.16843   0.00000  Uiso   1.00
O278   O     0.43191   0.36124   0.16714   0.00000  Uiso   1.00
O279   O     0.48476   0.62000   0.15693   0.00000  Uiso   1.00
O280   O     0.37661   0.61000   0.21361   0.00000  Uiso   1.00
O281   O     0.53852   0.42858   0.25314   0.00000  Uiso   1.00
O282   O     0.56163   0.58086   0.25503   0.00000  Uiso   1.00
O283   O     0.43837   0.41914   0.24498   0.00000  Uiso   1.00
O284   O     0.42185   0.49263   0.30855   0.00000  Uiso   1.00
O285   O     0.57815   0.50737   0.19146   0.00000  Uiso   1.00
O286   O     0.52199   0.50207   0.31671   0.00000  Uiso   1.00
O287   O     0.47801   0.49793   0.18329   0.00000  Uiso   1.00
O288   O     0.60839   0.39316   0.17531   0.00000  Uiso   1.00
S289   S     0.60778   0.34757   0.20245   0.00000  Uiso   1.00
S290   S     0.44486   0.65096   0.19009   0.00000  Uiso   1.00
C291   C     0.85040   0.60020   0.24711   0.00000  Uiso   1.00
C292   C     0.87179   0.50341   0.16692   0.00000  Uiso   1.00
C293   C     0.77159   0.48819   0.38040   0.00000  Uiso   1.00
C294   C     0.89494   0.50714   0.11921   0.00000  Uiso   1.00
C295   C     0.69346   0.44559   0.44254   0.00000  Uiso   1.00
C296   C     0.97696   0.53793   0.05477   0.00000  Uiso   1.00
C297   C     0.71045   0.45980   0.39876   0.00000  Uiso   1.00
C298   C     0.95839   0.52831   0.09947   0.00000  Uiso   1.00
C299   C     0.81449   0.50423   0.40658   0.00000  Uiso   1.00
C300   C     0.85125   0.49243   0.09344   0.00000  Uiso   1.00
C301   C     0.79952   0.48869   0.45039   0.00000  Uiso   1.00
C302   C     0.82056   0.39997   0.24413   0.00000  Uiso   1.00
C303   C     0.86905   0.50023   0.04805   0.00000  Uiso   1.00
C304   C     0.73752   0.45929   0.46829   0.00000  Uiso   1.00
C305   C     0.93266   0.52513   0.02918   0.00000  Uiso   1.00
C306   C     0.84444   0.50072   0.47655   0.00000  Uiso   1.00
C307   C     0.82507   0.48581   0.02131   0.00000  Uiso   1.00
C308   C     0.76282   0.45612   0.03760   0.00000  Uiso   1.00
C309   C     0.90839   0.52601   0.45927   0.00000  Uiso   1.00
C310   C     0.72022   0.44310   0.01149   0.00000  Uiso   1.00
C311   C     0.95144   0.53758   0.48509   0.00000  Uiso   1.00
C312   C     0.86477   0.65593   0.23551   0.00000  Uiso   1.00
C313   C     0.81807   0.34427   0.23135   0.00000  Uiso   1.00
C314   C     0.79480   0.49586   0.33304   0.00000  Uiso   1.00
Cu315  Cu    0.77404   0.49441   0.24517   0.00000  Uiso   1.00
Cu316  Cu    0.89263   0.50559   0.25484   0.00000  Uiso   1.00
H317   H     0.67313   0.42016   0.02534   0.00000  Uiso   1.00
H318   H     0.92770   0.53643   0.42546   0.00000  Uiso   1.00
H319   H     0.99936   0.53553   0.28662   0.00000  Uiso   1.00
H320   H     0.66840   0.46639   0.21240   0.00000  Uiso   1.00
H321   H     0.94436   0.63149   0.14407   0.00000  Uiso   1.00
H322   H     0.70417   0.58061   0.19210   0.00000  Uiso   1.00
H323   H     0.66666   0.55661   0.47034   0.00000  Uiso   1.00
H324   H     0.80285   0.47691   0.11001   0.00000  Uiso   1.00
H325   H     0.85975   0.52831   0.39143   0.00000  Uiso   1.00
H326   H     0.99299   0.53952   0.11879   0.00000  Uiso   1.00
H327   H     0.67665   0.44700   0.37897   0.00000  Uiso   1.00
H328   H     0.97942   0.42305   0.45615   0.00000  Uiso   1.00
H329   H     0.69255   0.55613   0.04025   0.00000  Uiso   1.00
H330   H     0.74564   0.44075   0.07021   0.00000  Uiso   1.00
N331   N     0.98173   0.51401   0.26212   0.00000  Uiso   1.00
N332   N     0.68494   0.48599   0.23788   0.00000  Uiso   1.00
O333   O     0.79482   0.57142   0.24686   0.00000  Uiso   1.00
O334   O     0.98510   0.36571   0.23184   0.00000  Uiso   1.00
O335   O     0.96491   0.63246   0.16843   0.00000  Uiso   1.00
O336   O     0.76524   0.36124   0.16714   0.00000  Uiso   1.00
O337   O     0.81809   0.62000   0.15693   0.00000  Uiso   1.00
O338   O     0.70995   0.61000   0.21361   0.00000  Uiso   1.00
O339   O     0.87185   0.42858   0.25314   0.00000  Uiso   1.00
O340   O     0.89496   0.58086   0.25503   0.00000  Uiso   1.00
O341   O     0.77171   0.41914   0.24498   0.00000  Uiso   1.00
O342   O     0.75518   0.49263   0.30855   0.00000  Uiso   1.00
O343   O     0.91149   0.50737   0.19146   0.00000  Uiso   1.00
O344   O     0.85532   0.50207   0.31671   0.00000  Uiso   1.00
O345   O     0.81134   0.49793   0.18329   0.00000  Uiso   1.00
O346   O     0.94172   0.39316   0.17531   0.00000  Uiso   1.00
S347   S     0.94112   0.34757   0.20245   0.00000  Uiso   1.00
S348   S     0.77819   0.65096   0.19009   0.00000  Uiso   1.00
C349   C     0.18374   0.93353   0.24711   0.00000  Uiso   1.00
C350   C     0.20512   0.83674   0.16692   0.00000  Uiso   1.00
C351   C     0.10492   0.82152   0.38040   0.00000  Uiso   1.00
C352   C     0.22828   0.84047   0.11921   0.00000  Uiso   1.00
C353   C     0.02679   0.77893   0.44254   0.00000  Uiso   1.00
C354   C     0.31029   0.87126   0.05477   0.00000  Uiso   1.00
C355   C     0.04378   0.79314   0.39876   0.00000  Uiso   1.00
C356   C     0.29172   0.86164   0.09947   0.00000  Uiso   1.00
C357   C     0.14782   0.83756   0.40658   0.00000  Uiso   1.00
C358   C     0.18458   0.82577   0.09344   0.00000  Uiso   1.00
C359   C     0.13285   0.82202   0.45039   0.00000  Uiso   1.00
C360   C     0.15389   0.73330   0.24413   0.00000  Uiso   1.00
C361   C     0.20238   0.83357   0.04805   0.00000  Uiso   1.00
C362   C     0.07086   0.79263   0.46829   0.00000  Uiso   1.00
C363   C     0.26599   0.85846   0.02918   0.00000  Uiso   1.00
C364   C     0.17777   0.83406   0.47655   0.00000  Uiso   1.00
C365   C     0.15841   0.81915   0.02131   0.00000  Uiso   1.00
C366   C     0.09616   0.78945   0.03760   0.00000  Uiso   1.00
C367   C     0.24173   0.85934   0.45927   0.00000  Uiso   1.00
C368   C     0.05355   0.77644   0.01149   0.00000  Uiso   1.00
C369   C     0.28477   0.87091   0.48509   0.00000  Uiso   1.00
C370   C     0.19810   0.98927   0.23551   0.00000  Uiso   1.00
C371   C     0.15140   0.67761   0.23135   0.00000  Uiso   1.00
C372   C     0.12814   0.82920   0.33304   0.00000  Uiso   1.00
Cu373  Cu    0.10737   0.82775   0.24517   0.00000  Uiso   1.00
Cu374  Cu    0.22596   0.83892   0.25484   0.00000  Uiso   1.00
H375   H     0.00646   0.75349   0.02534   0.00000  Uiso   1.00
H376   H     0.26104   0.86977   0.42546   0.00000  Uiso   1.00
H377   H     0.33270   0.86886   0.28662   0.00000  Uiso   1.00
H378   H     0.00173   0.79972   0.21240   0.00000  Uiso   1.00
H379   H     0.27770   0.96482   0.14407   0.00000  Uiso   1.00
H380   H     0.03751   0.91394   0.19210   0.00000  Uiso   1.00
H381   H    -0.00000   0.88994   0.47034   0.00000  Uiso   1.00
H382   H     0.13618   0.81025   0.11001   0.00000  Uiso   1.00
H383   H     0.19309   0.86164   0.39143   0.00000  Uiso   1.00
H384   H     0.32633   0.87285   0.11879   0.00000  Uiso   1.00
H385   H     0.00998   0.78034   0.37897   0.00000  Uiso   1.00
H386   H     0.31275   0.75639   0.45615   0.00000  Uiso   1.00
H387   H     0.02588   0.88946   0.04025   0.00000  Uiso   1.00
H388   H     0.07898   0.77408   0.07021   0.00000  Uiso   1.00
N389   N     0.31506   0.84735   0.26212   0.00000  Uiso   1.00
N390   N     0.01827   0.81932   0.23788   0.00000  Uiso   1.00
O391   O     0.12815   0.90476   0.24686   0.00000  Uiso   1.00
O392   O     0.31843   0.69904   0.23184   0.00000  Uiso   1.00
O393   O     0.29825   0.96579   0.16843   0.00000  Uiso   1.00
O394   O     0.09858   0.69457   0.16714   0.00000  Uiso   1.00
O395   O     0.15143   0.95333   0.15693   0.00000  Uiso   1.00
O396   O     0.04328   0.94334   0.21361   0.00000  Uiso   1.00
O397   O     0.20518   0.76191   0.25314   0.00000  Uiso   1.00
O398   O     0.22829   0.91420   0.25503   0.00000  Uiso   1.00
O399   O     0.10504   0.75247   0.24498   0.00000  Uiso   1.00
O400   O     0.08851   0.82597   0.30855   0.00000  Uiso   1.00
O401   O     0.24482   0.84070   0.19146   0.00000  Uiso   1.00
O402   O     0.18866   0.83540   0.31671   0.00000  Uiso   1.00
O403   O     0.14468   0.83126   0.18329   0.00000  Uiso   1.00
O404   O     0.27506   0.72650   0.17531   0.00000  Uiso   1.00
S405   S     0.27445   0.68090   0.20245   0.00000  Uiso   1.00
S406   S     0.11153   0.98429   0.19009   0.00000  Uiso   1.00
C407   C     0.51707   0.93353   0.24711   0.00000  Uiso   1.00
C408   C     0.53846   0.83674   0.16692   0.00000  Uiso   1.00
C409   C     0.43825   0.82152   0.38040   0.00000  Uiso   1.00
C410   C     0.56161   0.84047   0.11921   0.00000  Uiso   1.00
C411   C     0.36013   0.77893   0.44254   0.00000  Uiso   1.00
C412   C     0.64363   0.87126   0.05477   0.00000  Uiso   1.00
C413   C     0.37712   0.79314   0.39876   0.00000  Uiso   1.00
C414   C     0.62505   0.86164   0.09947   0.00000  Uiso   1.00
C415   C     0.48116   0.83756   0.40658   0.00000  Uiso   1.00
C416   C     0.51791   0.82577   0.09344   0.00000  Uiso   1.00
C417   C     0.46619   0.82202   0.45039   0.00000  Uiso   1.00
C418   C     0.48723   0.73330   0.24413   0.00000  Uiso   1.00
C419   C     0.53572   0.83357   0.04805   0.00000  Uiso   1.00
C420   C     0.40419   0.79263   0.46829   0.00000  Uiso   1.00
C421   C     0.59933   0.85846   0.02918   0.00000  Uiso   1.00
C422   C     0.51111   0.83406   0.47655   0.00000  Uiso   1.00
C423   C     0.49174   0.81915   0.02131   0.00000  Uiso   1.00
C424   C     0.42949   0.78945   0.03760   0.00000  Uiso   1.00
C425   C     0.57506   0.85934   0.45927   0.00000  Uiso   1.00
C426   C     0.38689   0.77644   0.01149   0.00000  Uiso   1.00
C427   C     0.61810   0.87091   0.48509   0.00000  Uiso   1.00
C428   C     0.53143   0.98927   0.23551   0.00000  Uiso   1.00
C429   C     0.48474   0.67761   0.23135   0.00000  Uiso   1.00
C430   C     0.46147   0.82920   0.33304   0.00000  Uiso   1.00
Cu431  Cu    0.44071   0.82775   0.24517   0.00000  Uiso   1.00
Cu432  Cu    0.55929   0.83892   0.25484   0.00000  Uiso   1.00
H433   H     0.33980   0.75349   0.02534   0.00000  Uiso   1.00
H434   H     0.59437   0.86977   0.42546   0.00000  Uiso   1.00
H435   H     0.66603   0.86886   0.28662   0.00000  Uiso   1.00
H436   H     0.33506   0.79972   0.21240   0.00000  Uiso   1.00
H437   H     0.61103   0.96482   0.14407   0.00000  Uiso   1.00
H438   H     0.37084   0.91394   0.19210   0.00000  Uiso   1.00
H439   H     0.33333   0.88994   0.47034   0.00000  Uiso   1.00
H440   H     0.46952   0.81025   0.11001   0.00000  Uiso   1.00
H441   H     0.52642   0.86164   0.39143   0.00000  Uiso   1.00
H442   H     0.65966   0.87285   0.11879   0.00000  Uiso   1.00
H443   H     0.34332   0.78034   0.37897   0.00000  Uiso   1.00
H444   H     0.64609   0.75639   0.45615   0.00000  Uiso   1.00
H445   H     0.35921   0.88946   0.04025   0.00000  Uiso   1.00
H446   H     0.41231   0.77408   0.07021   0.00000  Uiso   1.00
N447   N     0.64839   0.84735   0.26212   0.00000  Uiso   1.00
N448   N     0.35161   0.81932   0.23788   0.00000  Uiso   1.00
O449   O     0.46148   0.90476   0.24686   0.00000  Uiso   1.00
O450   O     0.65177   0.69904   0.23184   0.00000  Uiso   1.00
O451   O     0.63158   0.96579   0.16843   0.00000  Uiso   1.00
O452   O     0.43191   0.69457   0.16714   0.00000  Uiso   1.00
O453   O     0.48476   0.95333   0.15693   0.00000  Uiso   1.00
O454   O     0.37661   0.94334   0.21361   0.00000  Uiso   1.00
O455   O     0.53852   0.76191   0.25314   0.00000  Uiso   1.00
O456   O     0.56163   0.91420   0.25503   0.00000  Uiso   1.00
O457   O     0.43837   0.75247   0.24498   0.00000  Uiso   1.00
O458   O     0.42185   0.82597   0.30855   0.00000  Uiso   1.00
O459   O     0.57815   0.84070   0.19146   0.00000  Uiso   1.00
O460   O     0.52199   0.83540   0.31671   0.00000  Uiso   1.00
O461   O     0.47801   0.83126   0.18329   0.00000  Uiso   1.00
O462   O     0.60839   0.72650   0.17531   0.00000  Uiso   1.00
S463   S     0.60778   0.68090   0.20245   0.00000  Uiso   1.00
S464   S     0.44486   0.98429   0.19009   0.00000  Uiso   1.00
C465   C     0.85040   0.93353   0.24711   0.00000  Uiso   1.00
C466   C     0.87179   0.83674   0.16692   0.00000  Uiso   1.00
C467   C     0.77159   0.82152   0.38040   0.00000  Uiso   1.00
C468   C     0.89494   0.84047   0.11921   0.00000  Uiso   1.00
C469   C     0.69346   0.77893   0.44254   0.00000  Uiso   1.00
C470   C     0.97696   0.87126   0.05477   0.00000  Uiso   1.00
C471   C     0.71045   0.79314   0.39876   0.00000  Uiso   1.00
C472   C     0.95839   0.86164   0.09947   0.00000  Uiso   1.00
C473   C     0.81449   0.83756   0.40658   0.00000  Uiso   1.00
C474   C     0.85125   0.82577   0.09344   0.00000  Uiso   1.00
C475   C     0.79952   0.82202   0.45039   0.00000  Uiso   1.00
C476   C     0.82056   0.73330   0.24413   0.00000  Uiso   1.00
C477   C     0.86905   0.83357   0.04805   0.00000  Uiso   1.00
C478   C     0.73752   0.79263   0.46829   0.00000  Uiso   1.00
C479   C     0.93266   0.85846   0.02918   0.00000  Uiso   1.00
C480   C     0.84444   0.83406   0.47655   0.00000  Uiso   1.00
C481   C     0.82507   0.81915   0.02131   0.00000  Uiso   1.00
C482   C     0.76282   0.78945   0.03760   0.00000  Uiso   1.00
C483   C     0.90839   0.85934   0.45927   0.00000  Uiso   1.00
C484   C     0.72022   0.77644   0.01149   0.00000  Uiso   1.00
C485   C     0.95144   0.87091   0.48509   0.00000  Uiso   1.00
C486   C     0.86477   0.98927   0.23551   0.00000  Uiso   1.00
C487   C     0.81807   0.67761   0.23135   0.00000  Uiso   1.00
C488   C     0.79480   0.82920   0.33304   0.00000  Uiso   1.00
Cu489  Cu    0.77404   0.82775   0.24517   0.00000  Uiso   1.00
Cu490  Cu    0.89263   0.83892   0.25484   0.00000  Uiso   1.00
H491   H     0.67313   0.75349   0.02534   0.00000  Uiso   1.00
H492   H     0.92770   0.86977   0.42546   0.00000  Uiso   1.00
H493   H     0.99936   0.86886   0.28662   0.00000  Uiso   1.00
H494   H     0.66840   0.79972   0.21240   0.00000  Uiso   1.00
H495   H     0.94436   0.96482   0.14407   0.00000  Uiso   1.00
H496   H     0.70417   0.91394   0.19210   0.00000  Uiso   1.00
H497   H     0.66666   0.88994   0.47034   0.00000  Uiso   1.00
H498   H     0.80285   0.81025   0.11001   0.00000  Uiso   1.00
H499   H     0.85975   0.86164   0.39143   0.00000  Uiso   1.00
H500   H     0.99299   0.87285   0.11879   0.00000  Uiso   1.00
H501   H     0.67665   0.78034   0.37897   0.00000  Uiso   1.00
H502   H     0.97942   0.75639   0.45615   0.00000  Uiso   1.00
H503   H     0.69255   0.88946   0.04025   0.00000  Uiso   1.00
H504   H     0.74564   0.77408   0.07021   0.00000  Uiso   1.00
N505   N     0.98173   0.84735   0.26212   0.00000  Uiso   1.00
N506   N     0.68494   0.81932   0.23788   0.00000  Uiso   1.00
O507   O     0.79482   0.90476   0.24686   0.00000  Uiso   1.00
O508   O     0.98510   0.69904   0.23184   0.00000  Uiso   1.00
O509   O     0.96491   0.96579   0.16843   0.00000  Uiso   1.00
O510   O     0.76524   0.69457   0.16714   0.00000  Uiso   1.00
O511   O     0.81809   0.95333   0.15693   0.00000  Uiso   1.00
O512   O     0.70995   0.94334   0.21361   0.00000  Uiso   1.00
O513   O     0.87185   0.76191   0.25314   0.00000  Uiso   1.00
O514   O     0.89496   0.91420   0.25503   0.00000  Uiso   1.00
O515   O     0.77171   0.75247   0.24498   0.00000  Uiso   1.00
O516   O     0.75518   0.82597   0.30855   0.00000  Uiso   1.00
O517   O     0.91149   0.84070   0.19146   0.00000  Uiso   1.00
O518   O     0.85532   0.83540   0.31671   0.00000  Uiso   1.00
O519   O     0.81134   0.83126   0.18329   0.00000  Uiso   1.00
O520   O     0.94172   0.72650   0.17531   0.00000  Uiso   1.00
S521   S     0.94112   0.68090   0.20245   0.00000  Uiso   1.00
S522   S     0.77819   0.98429   0.19009   0.00000  Uiso   1.00
C523   C     0.18374   0.26686   0.74711   0.00000  Uiso   1.00
C524   C     0.20512   0.17008   0.66692   0.00000  Uiso   1.00
C525   C     0.10492   0.15486   0.88040   0.00000  Uiso   1.00
C526   C     0.22828   0.17381   0.61921   0.00000  Uiso   1.00
C527   C     0.02679   0.11226   0.94254   0.00000  Uiso   1.00
C528   C     0.31029   0.20460   0.55477   0.00000  Uiso   1.00
C529   C     0.04378   0.12647   0.89876   0.00000  Uiso   1.00
C530   C     0.29172   0.19498   0.59947   0.00000  Uiso   1.00
C531   C     0.14782   0.17089   0.90658   0.00000  Uiso   1.00
C532   C     0.18458   0.15910   0.59344   0.00000  Uiso   1.00
C533   C     0.13285   0.15535   0.95039   0.00000  Uiso   1.00
C534   C     0.15389   0.06663   0.74413   0.00000  Uiso   1.00
C535   C     0.20238   0.16690   0.54805   0.00000  Uiso   1.00
C536   C     0.07086   0.12596   0.96829   0.00000  Uiso   1.00
C537   C     0.26599   0.19180   0.52918   0.00000  Uiso   1.00
C538   C     0.17777   0.16739   0.97655   0.00000  Uiso   1.00
C539   C     0.15841   0.15248   0.52131   0.00000  Uiso   1.00
C540   C     0.09616   0.12278   0.53760   0.00000  Uiso   1.00
C541   C     0.24173   0.19268   0.95927   0.00000  Uiso   1.00
C542   C     0.05355   0.10977   0.51149   0.00000  Uiso   1.00
C543   C     0.28477   0.20424   0.98509   0.00000  Uiso   1.00
C544   C     0.19810   0.32260   0.73551   0.00000  Uiso   1.00
C545   C     0.15140   0.01094   0.73135   0.00000  Uiso   1.00
C546   C     0.12814   0.16253   0.83304   0.00000  Uiso   1.00
Cu547  Cu    0.10737   0.16108   0.74517   0.00000  Uiso   1.00
Cu548  Cu    0.22596   0.17225   0.75484   0.00000  Uiso   1.00
H549   H     0.00646   0.08682   0.52534   0.00000  Uiso   1.00
H550   H     0.26104   0.20310   0.92546   0.00000  Uiso   1.00
H551   H     0.33270   0.20219   0.78662   0.00000  Uiso   1.00
H552   H     0.00173   0.13306   0.71240   0.00000  Uiso   1.00
H553   H     0.27770   0.29816   0.64407   0.00000  Uiso   1.00
H554   H     0.03751   0.24728   0.69210   0.00000  Uiso   1.00
H555   H    -0.00000   0.22328   0.97034   0.00000  Uiso   1.00
H556   H     0.13618   0.14358   0.61001   0.00000  Uiso   1.00
H557   H     0.19309   0.19498   0.89143   0.00000  Uiso   1.00
H558   H     0.32633   0.20619   0.61879   0.00000  Uiso   1.00
H559   H     0.00998   0.11367   0.87897   0.00000  Uiso   1.00
H560   H     0.31275   0.08972   0.95615   0.00000  Uiso   1.00
H561   H     0.02588   0.22279   0.54025   0.00000  Uiso   1.00
H562   H     0.07898   0.10741   0.57021   0.00000  Uiso   1.00
N563   N     0.31506   0.18068   0.76212   0.00000  Uiso   1.00
N564   N     0.01827   0.15265   0.73788   0.00000  Uiso   1.00
O565   O     0.12815   0.23809   0.74686   0.00000  Uiso   1.00
O566   O     0.31843   0.03237   0.73184   0.00000  Uiso   1.00
O567   O     0.29825   0.29912   0.66843   0.00000  Uiso   1.00
O568   O     0.09858   0.02790   0.66714   0.00000  Uiso   1.00
O569   O     0.15143   0.28666   0.65693   0.00000  Uiso   1.00
O570   O     0.04328   0.27667   0.71361   0.00000  Uiso   1.00
O571   O     0.20518   0.09524   0.75314   0.00000  Uiso   1.00
O572   O     0.22829   0.24753   0.75503   0.00000  Uiso   1.00
O573   O     0.10504   0.08580   0.74498   0.00000  Uiso   1.00
O574   O     0.08851   0.15930   0.80855   0.00000  Uiso   1.00
O575   O     0.24482   0.17403   0.69146   0.00000  Uiso   1.00
O576   O     0.18866   0.16874   0.81671   0.00000  Uiso   1.00
O577   O     0.14468   0.16460   0.68329   0.00000  Uiso   1.00
O578   O     0.27506   0.05983   0.67531   0.00000  Uiso   1.00
S579   S     0.27445   0.01424   0.70245   0.00000  Uiso   1.00
S580   S     0.11153   0.31763   0.69009   0.00000  Uiso   1.00
C581   C     0.51707   0.26686   0.74711   0.00000  Uiso   1.00
C582   C     0.53846   0.17008   0.66692   0.00000  Uiso   1.00
C583   C     0.43825   0.15486   0.88040   0.00000  Uiso   1.00
C584   C     0.56161   0.17381   0.61921   0.00000  Uiso   1.00
C585   C     0.36013   0.11226   0.94254   0.00000  Uiso   1.00
C586   C     0.64363   0.20460   0.55477   0.00000  Uiso   1.00
C587   C     0.37712   0.12647   0.89876   0.00000  Uiso   1.00
C588   C     0.62505   0.19498   0.59947   0.00000  Uiso   1.00
C589   C     0.48116   0.17089   0.90658   0.00000  Uiso   1.00
C590   C     0.51791   0.15910   0.59344   0.00000  Uiso   1.00
C591   C     0.46619   0.15535   0.95039   0.00000  Uiso   1.00
C592   C     0.48723   0.06663   0.74413   0.00000  Uiso   1.00
C593   C     0.53572   0.16690   0.54805   0.00000  Uiso   1.00
C594   C     0.40419   0.12596   0.96829   0.00000  Uiso   1.00
C595   C     0.59933   0.19180   0.52918   0.00000  Uiso   1.00
C596   C     0.51111   0.16739   0.97655   0.00000  Uiso   1.00
C597   C     0.49174   0.15248   0.52131   0.00000  Uiso   1.00
C598   C     0.42949   0.12278   0.53760   0.00000  Uiso   1.00
C599   C     0.57506   0.19268   0.95927   0.00000  Uiso   1.00
C600   C     0.38689   0.10977   0.51149   0.00000  Uiso   1.00
C601   C     0.61810   0.20424   0.98509   0.00000  Uiso   1.00
C602   C     0.53143   0.32260   0.73551   0.00000  Uiso   1.00
C603   C     0.48474   0.01094   0.73135   0.00000  Uiso   1.00
C604   C     0.46147   0.16253   0.83304   0.00000  Uiso   1.00
Cu605  Cu    0.44071   0.16108   0.74517   0.00000  Uiso   1.00
Cu606  Cu    0.55929   0.17225   0.75484   0.00000  Uiso   1.00
H607   H     0.33980   0.08682   0.52534   0.00000  Uiso   1.00
H608   H     0.59437   0.20310   0.92546   0.00000  Uiso   1.00
H609   H     0.66603   0.20219   0.78662   0.00000  Uiso   1.00
H610   H     0.33506   0.13306   0.71240   0.00000  Uiso   1.00
H611   H     0.61103   0.29816   0.64407   0.00000  Uiso   1.00
H612   H     0.37084   0.24728   0.69210   0.00000  Uiso   1.00
H613   H     0.33333   0.22328   0.97034   0.00000  Uiso   1.00
H614   H     0.46952   0.14358   0.61001   0.00000  Uiso   1.00
H615   H     0.52642   0.19498   0.89143   0.00000  Uiso   1.00
H616   H     0.65966   0.20619   0.61879   0.00000  Uiso   1.00
H617   H     0.34332   0.11367   0.87897   0.00000  Uiso   1.00
H618   H     0.64609   0.08972   0.95615   0.00000  Uiso   1.00
H619   H     0.35921   0.22279   0.54025   0.00000  Uiso   1.00
H620   H     0.41231   0.10741   0.57021   0.00000  Uiso   1.00
N621   N     0.64839   0.18068   0.76212   0.00000  Uiso   1.00
N622   N     0.35161   0.15265   0.73788   0.00000  Uiso   1.00
O623   O     0.46148   0.23809   0.74686   0.00000  Uiso   1.00
O624   O     0.65177   0.03237   0.73184   0.00000  Uiso   1.00
O625   O     0.63158   0.29912   0.66843   0.00000  Uiso   1.00
O626   O     0.43191   0.02790   0.66714   0.00000  Uiso   1.00
O627   O     0.48476   0.28666   0.65693   0.00000  Uiso   1.00
O628   O     0.37661   0.27667   0.71361   0.00000  Uiso   1.00
O629   O     0.53852   0.09524   0.75314   0.00000  Uiso   1.00
O630   O     0.56163   0.24753   0.75503   0.00000  Uiso   1.00
O631   O     0.43837   0.08580   0.74498   0.00000  Uiso   1.00
O632   O     0.42185   0.15930   0.80855   0.00000  Uiso   1.00
O633   O     0.57815   0.17403   0.69146   0.00000  Uiso   1.00
O634   O     0.52199   0.16874   0.81671   0.00000  Uiso   1.00
O635   O     0.47801   0.16460   0.68329   0.00000  Uiso   1.00
O636   O     0.60839   0.05983   0.67531   0.00000  Uiso   1.00
S637   S     0.60778   0.01424   0.70245   0.00000  Uiso   1.00
S638   S     0.44486   0.31763   0.69009   0.00000  Uiso   1.00
C639   C     0.85040   0.26686   0.74711   0.00000  Uiso   1.00
C640   C     0.87179   0.17008   0.66692   0.00000  Uiso   1.00
C641   C     0.77159   0.15486   0.88040   0.00000  Uiso   1.00
C642   C     0.89494   0.17381   0.61921   0.00000  Uiso   1.00
C643   C     0.69346   0.11226   0.94254   0.00000  Uiso   1.00
C644   C     0.97696   0.20460   0.55477   0.00000  Uiso   1.00
C645   C     0.71045   0.12647   0.89876   0.00000  Uiso   1.00
C646   C     0.95839   0.19498   0.59947   0.00000  Uiso   1.00
C647   C     0.81449   0.17089   0.90658   0.00000  Uiso   1.00
C648   C     0.85125   0.15910   0.59344   0.00000  Uiso   1.00
C649   C     0.79952   0.15535   0.95039   0.00000  Uiso   1.00
C650   C     0.82056   0.06663   0.74413   0.00000  Uiso   1.00
C651   C     0.86905   0.16690   0.54805   0.00000  Uiso   1.00
C652   C     0.73752   0.12596   0.96829   0.00000  Uiso   1.00
C653   C     0.93266   0.19180   0.52918   0.00000  Uiso   1.00
C654   C     0.84444   0.16739   0.97655   0.00000  Uiso   1.00
C655   C     0.82507   0.15248   0.52131   0.00000  Uiso   1.00
C656   C     0.76282   0.12278   0.53760   0.00000  Uiso   1.00
C657   C     0.90839   0.19268   0.95927   0.00000  Uiso   1.00
C658   C     0.72022   0.10977   0.51149   0.00000  Uiso   1.00
C659   C     0.95144   0.20424   0.98509   0.00000  Uiso   1.00
C660   C     0.86477   0.32260   0.73551   0.00000  Uiso   1.00
C661   C     0.81807   0.01094   0.73135   0.00000  Uiso   1.00
C662   C     0.79480   0.16253   0.83304   0.00000  Uiso   1.00
Cu663  Cu    0.77404   0.16108   0.74517   0.00000  Uiso   1.00
Cu664  Cu    0.89263   0.17225   0.75484   0.00000  Uiso   1.00
H665   H     0.67313   0.08682   0.52534   0.00000  Uiso   1.00
H666   H     0.92770   0.20310   0.92546   0.00000  Uiso   1.00
H667   H     0.99936   0.20219   0.78662   0.00000  Uiso   1.00
H668   H     0.66840   0.13306   0.71240   0.00000  Uiso   1.00
H669   H     0.94436   0.29816   0.64407   0.00000  Uiso   1.00
H670   H     0.70417   0.24728   0.69210   0.00000  Uiso   1.00
H671   H     0.66666   0.22328   0.97034   0.00000  Uiso   1.00
H672   H     0.80285   0.14358   0.61001   0.00000  Uiso   1.00
H673   H     0.85975   0.19498   0.89143   0.00000  Uiso   1.00
H674   H     0.99299   0.20619   0.61879   0.00000  Uiso   1.00
H675   H     0.67665   0.11367   0.87897   0.00000  Uiso   1.00
H676   H     0.97942   0.08972   0.95615   0.00000  Uiso   1.00
H677   H     0.69255   0.22279   0.54025   0.00000  Uiso   1.00
H678   H     0.74564   0.10741   0.57021   0.00000  Uiso   1.00
N679   N     0.98173   0.18068   0.76212   0.00000  Uiso   1.00
N680   N     0.68494   0.15265   0.73788   0.00000  Uiso   1.00
O681   O     0.79482   0.23809   0.74686   0.00000  Uiso   1.00
O682   O     0.98510   0.03237   0.73184   0.00000  Uiso   1.00
O683   O     0.96491   0.29912   0.66843   0.00000  Uiso   1.00
O684   O     0.76524   0.02790   0.66714   0.00000  Uiso   1.00
O685   O     0.81809   0.28666   0.65693   0.00000  Uiso   1.00
O686   O     0.70995   0.27667   0.71361   0.00000  Uiso   1.00
O687   O     0.87185   0.09524   0.75314   0.00000  Uiso   1.00
O688   O     0.89496   0.24753   0.75503   0.00000  Uiso   1.00
O689   O     0.77171   0.08580   0.74498   0.00000  Uiso   1.00
O690   O     0.75518   0.15930   0.80855   0.00000  Uiso   1.00
O691   O     0.91149   0.17403   0.69146   0.00000  Uiso   1.00
O692   O     0.85532   0.16874   0.81671   0.00000  Uiso   1.00
O693   O     0.81134   0.16460   0.68329   0.00000  Uiso   1.00
O694   O     0.94172   0.05983   0.67531   0.00000  Uiso   1.00
S695   S     0.94112   0.01424   0.70245   0.00000  Uiso   1.00
S696   S     0.77819   0.31763   0.69009   0.00000  Uiso   1.00
C697   C     0.18374   0.60020   0.74711   0.00000  Uiso   1.00
C698   C     0.20512   0.50341   0.66692   0.00000  Uiso   1.00
C699   C     0.10492   0.48819   0.88040   0.00000  Uiso   1.00
C700   C     0.22828   0.50714   0.61921   0.00000  Uiso   1.00
C701   C     0.02679   0.44559   0.94254   0.00000  Uiso   1.00
C702   C     0.31029   0.53793   0.55477   0.00000  Uiso   1.00
C703   C     0.04378   0.45980   0.89876   0.00000  Uiso   1.00
C704   C     0.29172   0.52831   0.59947   0.00000  Uiso   1.00
C705   C     0.14782   0.50423   0.90658   0.00000  Uiso   1.00
C706   C     0.18458   0.49243   0.59344   0.00000  Uiso   1.00
C707   C     0.13285   0.48869   0.95039   0.00000  Uiso   1.00
C708   C     0.15389   0.39997   0.74413   0.00000  Uiso   1.00
C709   C     0.20238   0.50023   0.54805   0.00000  Uiso   1.00
C710   C     0.07086   0.45929   0.96829   0.00000  Uiso   1.00
C711   C     0.26599   0.52513   0.52918   0.00000  Uiso   1.00
C712   C     0.17777   0.50072   0.97655   0.00000  Uiso   1.00
C713   C     0.15841   0.48581   0.52131   0.00000  Uiso   1.00
C714   C     0.09616   0.45612   0.53760   0.00000  Uiso   1.00
C715   C     0.24173   0.52601   0.95927   0.00000  Uiso   1.00
C716   C     0.05355   0.44310   0.51149   0.00000  Uiso   1.00
C717   C     0.28477   0.53758   0.98509   0.00000  Uiso   1.00
C718   C     0.19810   0.65593   0.73551   0.00000  Uiso   1.00
C719   C     0.15140   0.34427   0.73135   0.00000  Uiso   1.00
C720   C     0.12814   0.49586   0.83304   0.00000  Uiso   1.00
Cu721  Cu    0.10737   0.49441   0.74517   0.00000  Uiso   1.00
Cu722  Cu    0.22596   0.50559   0.75484   0.00000  Uiso   1.00
H723   H     0.00646   0.42016   0.52534   0.00000  Uiso   1.00
H724   H     0.26104   0.53643   0.92546   0.00000  Uiso   1.00
H725   H     0.33270   0.53553   0.78662   0.00000  Uiso   1.00
H726   H     0.00173   0.46639   0.71240   0.00000  Uiso   1.00
H727   H     0.27770   0.63149   0.64407   0.00000  Uiso   1.00
H728   H     0.03751   0.58061   0.69210   0.00000  Uiso   1.00
H729   H    -0.00000   0.55661   0.97034   0.00000  Uiso   1.00
H730   H     0.13618   0.47691   0.61001   0.00000  Uiso   1.00
H731   H     0.19309   0.52831   0.89143   0.00000  Uiso   1.00
H732   H     0.32633   0.53952   0.61879   0.00000  Uiso   1.00
H733   H     0.00998   0.44700   0.87897   0.00000  Uiso   1.00
H734   H     0.31275   0.42305   0.95615   0.00000  Uiso   1.00
H735   H     0.02588   0.55613   0.54025   0.00000  Uiso   1.00
H736   H     0.07898   0.44075   0.57021   0.00000  Uiso   1.00
N737   N     0.31506   0.51401   0.76212   0.00000  Uiso   1.00
N738   N     0.01827   0.48599   0.73788   0.00000  Uiso   1.00
O739   O     0.12815   0.57142   0.74686   0.00000  Uiso   1.00
O740   O     0.31843   0.36571   0.73184   0.00000  Uiso   1.00
O741   O     0.29825   0.63246   0.66843   0.00000  Uiso   1.00
O742   O     0.09858   0.36124   0.66714   0.00000  Uiso   1.00
O743   O     0.15143   0.62000   0.65693   0.00000  Uiso   1.00
O744   O     0.04328   0.61000   0.71361   0.00000  Uiso   1.00
O745   O     0.20518   0.42858   0.75314   0.00000  Uiso   1.00
O746   O     0.22829   0.58086   0.75503   0.00000  Uiso   1.00
O747   O     0.10504   0.41914   0.74498   0.00000  Uiso   1.00
O748   O     0.08851   0.49263   0.80855   0.00000  Uiso   1.00
O749   O     0.24482   0.50737   0.69146   0.00000  Uiso   1.00
O750   O     0.18866   0.50207   0.81671   0.00000  Uiso   1.00
O751   O     0.14468   0.49793   0.68329   0.00000  Uiso   1.00
O752   O     0.27506   0.39316   0.67531   0.00000  Uiso   1.00
S753   S     0.27445   0.34757   0.70245   0.00000  Uiso   1.00
S754   S     0.11153   0.65096   0.69009   0.00000  Uiso   1.00
C755   C     0.51707   0.60020   0.74711   0.00000  Uiso   1.00
C756   C     0.53846   0.50341   0.66692   0.00000  Uiso   1.00
C757   C     0.43825   0.48819   0.88040   0.00000  Uiso   1.00
C758   C     0.56161   0.50714   0.61921   0.00000  Uiso   1.00
C759   C     0.36013   0.44559   0.94254   0.00000  Uiso   1.00
C760   C     0.64363   0.53793   0.55477   0.00000  Uiso   1.00
C761   C     0.37712   0.45980   0.89876   0.00000  Uiso   1.00
C762   C     0.62505   0.52831   0.59947   0.00000  Uiso   1.00
C763   C     0.48116   0.50423   0.90658   0.00000  Uiso   1.00
C764   C     0.51791   0.49243   0.59344   0.00000  Uiso   1.00
C765   C     0.46619   0.48869   0.95039   0.00000  Uiso   1.00
C766   C     0.48723   0.39997   0.74413   0.00000  Uiso   1.00
C767   C     0.53572   0.50023   0.54805   0.00000  Uiso   1.00
C768   C     0.40419   0.45929   0.96829   0.00000  Uiso   1.00
C769   C     0.59933   0.52513   0.52918   0.00000  Uiso   1.00
C770   C     0.51111   0.50072   0.97655   0.00000  Uiso   1.00
C771   C     0.49174   0.48581   0.52131   0.00000  Uiso   1.00
C772   C     0.42949   0.45612   0.53760   0.00000  Uiso   1.00
C773   C     0.57506   0.52601   0.95927   0.00000  Uiso   1.00
C774   C     0.38689   0.44310   0.51149   0.00000  Uiso   1.00
C775   C     0.61810   0.53758   0.98509   0.00000  Uiso   1.00
C776   C     0.53143   0.65593   0.73551   0.00000  Uiso   1.00
C777   C     0.48474   0.34427   0.73135   0.00000  Uiso   1.00
C778   C     0.46147   0.49586   0.83304   0.00000  Uiso   1.00
Cu779  Cu    0.44071   0.49441   0.74517   0.00000  Uiso   1.00
Cu780  Cu    0.55929   0.50559   0.75484   0.00000  Uiso   1.00
H781   H     0.33980   0.42016   0.52534   0.00000  Uiso   1.00
H782   H     0.59437   0.53643   0.92546   0.00000  Uiso   1.00
H783   H     0.66603   0.53553   0.78662   0.00000  Uiso   1.00
H784   H     0.33506   0.46639   0.71240   0.00000  Uiso   1.00
H785   H     0.61103   0.63149   0.64407   0.00000  Uiso   1.00
H786   H     0.37084   0.58061   0.69210   0.00000  Uiso   1.00
H787   H     0.33333   0.55661   0.97034   0.00000  Uiso   1.00
H788   H     0.46952   0.47691   0.61001   0.00000  Uiso   1.00
H789   H     0.52642   0.52831   0.89143   0.00000  Uiso   1.00
H790   H     0.65966   0.53952   0.61879   0.00000  Uiso   1.00
H791   H     0.34332   0.44700   0.87897   0.00000  Uiso   1.00
H792   H     0.64609   0.42305   0.95615   0.00000  Uiso   1.00
H793   H     0.35921   0.55613   0.54025   0.00000  Uiso   1.00
H794   H     0.41231   0.44075   0.57021   0.00000  Uiso   1.00
N795   N     0.64839   0.51401   0.76212   0.00000  Uiso   1.00
N796   N     0.35161   0.48599   0.73788   0.00000  Uiso   1.00
O797   O     0.46148   0.57142   0.74686   0.00000  Uiso   1.00
O798   O     0.65177   0.36571   0.73184   0.00000  Uiso   1.00
O799   O     0.63158   0.63246   0.66843   0.00000  Uiso   1.00
O800   O     0.43191   0.36124   0.66714   0.00000  Uiso   1.00
O801   O     0.48476   0.62000   0.65693   0.00000  Uiso   1.00
O802   O     0.37661   0.61000   0.71361   0.00000  Uiso   1.00
O803   O     0.53852   0.42858   0.75314   0.00000  Uiso   1.00
O804   O     0.56163   0.58086   0.75503   0.00000  Uiso   1.00
O805   O     0.43837   0.41914   0.74498   0.00000  Uiso   1.00
O806   O     0.42185   0.49263   0.80855   0.00000  Uiso   1.00
O807   O     0.57815   0.50737   0.69146   0.00000  Uiso   1.00
O808   O     0.52199   0.50207   0.81671   0.00000  Uiso   1.00
O809   O     0.47801   0.49793   0.68329   0.00000  Uiso   1.00
O810   O     0.60839   0.39316   0.67531   0.00000  Uiso   1.00
S811   S     0.60778   0.34757   0.70245   0.00000  Uiso   1.00
S812   S     0.44486   0.65096   0.69009   0.00000  Uiso   1.00
C813   C     0.85040   0.60020   0.74711   0.00000  Uiso   1.00
C814   C     0.87179   0.50341   0.66692   0.00000  Uiso   1.00
C815   C     0.77159   0.48819   0.88040   0.00000  Uiso   1.00
C816   C     0.89494   0.50714   0.61921   0.00000  Uiso   1.00
C817   C     0.69346   0.44559   0.94254   0.00000  Uiso   1.00
C818   C     0.97696   0.53793   0.55477   0.00000  Uiso   1.00
C819   C     0.71045   0.45980   0.89876   0.00000  Uiso   1.00
C820   C     0.95839   0.52831   0.59947   0.00000  Uiso   1.00
C821   C     0.81449   0.50423   0.90658   0.00000  Uiso   1.00
C822   C     0.85125   0.49243   0.59344   0.00000  Uiso   1.00
C823   C     0.79952   0.48869   0.95039   0.00000  Uiso   1.00
C824   C     0.82056   0.39997   0.74413   0.00000  Uiso   1.00
C825   C     0.86905   0.50023   0.54805   0.00000  Uiso   1.00
C826   C     0.73752   0.45929   0.96829   0.00000  Uiso   1.00
C827   C     0.93266   0.52513   0.52918   0.00000  Uiso   1.00
C828   C     0.84444   0.50072   0.97655   0.00000  Uiso   1.00
C829   C     0.82507   0.48581   0.52131   0.00000  Uiso   1.00
C830   C     0.76282   0.45612   0.53760   0.00000  Uiso   1.00
C831   C     0.90839   0.52601   0.95927   0.00000  Uiso   1.00
C832   C     0.72022   0.44310   0.51149   0.00000  Uiso   1.00
C833   C     0.95144   0.53758   0.98509   0.00000  Uiso   1.00
C834   C     0.86477   0.65593   0.73551   0.00000  Uiso   1.00
C835   C     0.81807   0.34427   0.73135   0.00000  Uiso   1.00
C836   C     0.79480   0.49586   0.83304   0.00000  Uiso   1.00
Cu837  Cu    0.77404   0.49441   0.74517   0.00000  Uiso   1.00
Cu838  Cu    0.89263   0.50559   0.75484   0.00000  Uiso   1.00
H839   H     0.67313   0.42016   0.52534   0.00000  Uiso   1.00
H840   H     0.92770   0.53643   0.92546   0.00000  Uiso   1.00
H841   H     0.99936   0.53553   0.78662   0.00000  Uiso   1.00
H842   H     0.66840   0.46639   0.71240   0.00000  Uiso   1.00
H843   H     0.94436   0.63149   0.64407   0.00000  Uiso   1.00
H844   H     0.70417   0.58061   0.69210   0.00000  Uiso   1.00
H845   H     0.66666   0.55661   0.97034   0.00000  Uiso   1.00
H846   H     0.80285   0.47691   0.61001   0.00000  Uiso   1.00
H847   H     0.85975   0.52831   0.89143   0.00000  Uiso   1.00
H848   H     0.99299   0.53952   0.61879   0.00000  Uiso   1.00
H849   H     0.67665   0.44700   0.87897   0.00000  Uiso   1.00
H850   H     0.97942   0.42305   0.95615   0.00000  Uiso   1.00
H851   H     0.69255   0.55613   0.54025   0.00000  Uiso   1.00
H852   H     0.74564   0.44075   0.57021   0.00000  Uiso   1.00
N853   N     0.98173   0.51401   0.76212   0.00000  Uiso   1.00
N854   N     0.68494   0.48599   0.73788   0.00000  Uiso   1.00
O855   O     0.79482   0.57142   0.74686   0.00000  Uiso   1.00
O856   O     0.98510   0.36571   0.73184   0.00000  Uiso   1.00
O857   O     0.96491   0.63246   0.66843   0.00000  Uiso   1.00
O858   O     0.76524   0.36124   0.66714   0.00000  Uiso   1.00
O859   O     0.81809   0.62000   0.65693   0.00000  Uiso   1.00
O860   O     0.70995   0.61000   0.71361   0.00000  Uiso   1.00
O861   O     0.87185   0.42858   0.75314   0.00000  Uiso   1.00
O862   O     0.89496   0.58086   0.75503   0.00000  Uiso   1.00
O863   O     0.77171   0.41914   0.74498   0.00000  Uiso   1.00
O864   O     0.75518   0.49263   0.80855   0.00000  Uiso   1.00
O865   O     0.91149   0.50737   0.69146   0.00000  Uiso   1.00
O866   O     0.85532   0.50207   0.81671   0.00000  Uiso   1.00
O867   O     0.81134   0.49793   0.68329   0.00000  Uiso   1.00
O868   O     0.94172   0.39316   0.67531   0.00000  Uiso   1.00
S869   S     0.94112   0.34757   0.70245   0.00000  Uiso   1.00
S870   S     0.77819   0.65096   0.69009   0.00000  Uiso   1.00
C871   C     0.18374   0.93353   0.74711   0.00000  Uiso   1.00
C872   C     0.20512   0.83674   0.66692   0.00000  Uiso   1.00
C873   C     0.10492   0.82152   0.88040   0.00000  Uiso   1.00
C874   C     0.22828   0.84047   0.61921   0.00000  Uiso   1.00
C875   C     0.02679   0.77893   0.94254   0.00000  Uiso   1.00
C876   C     0.31029   0.87126   0.55477   0.00000  Uiso   1.00
C877   C     0.04378   0.79314   0.89876   0.00000  Uiso   1.00
C878   C     0.29172   0.86164   0.59947   0.00000  Uiso   1.00
C879   C     0.14782   0.83756   0.90658   0.00000  Uiso   1.00
C880   C     0.18458   0.82577   0.59344   0.00000  Uiso   1.00
C881   C     0.13285   0.82202   0.95039   0.00000  Uiso   1.00
C882   C     0.15389   0.73330   0.74413   0.00000  Uiso   1.00
C883   C     0.20238   0.83357   0.54805   0.00000  Uiso   1.00
C884   C     0.07086   0.79263   0.96829   0.00000  Uiso   1.00
C885   C     0.26599   0.85846   0.52918   0.00000  Uiso   1.00
C886   C     0.17777   0.83406   0.97655   0.00000  Uiso   1.00
C887   C     0.15841   0.81915   0.52131   0.00000  Uiso   1.00
C888   C     0.09616   0.78945   0.53760   0.00000  Uiso   1.00
C889   C     0.24173   0.85934   0.95927   0.00000  Uiso   1.00
C890   C     0.05355   0.77644   0.51149   0.00000  Uiso   1.00
C891   C     0.28477   0.87091   0.98509   0.00000  Uiso   1.00
C892   C     0.19810   0.98927   0.73551   0.00000  Uiso   1.00
C893   C     0.15140   0.67761   0.73135   0.00000  Uiso   1.00
C894   C     0.12814   0.82920   0.83304   0.00000  Uiso   1.00
Cu895  Cu    0.10737   0.82775   0.74517   0.00000  Uiso   1.00
Cu896  Cu    0.22596   0.83892   0.75484   0.00000  Uiso   1.00
H897   H     0.00646   0.75349   0.52534   0.00000  Uiso   1.00
H898   H     0.26104   0.86977   0.92546   0.00000  Uiso   1.00
H899   H     0.33270   0.86886   0.78662   0.00000  Uiso   1.00
H900   H     0.00173   0.79972   0.71240   0.00000  Uiso   1.00
H901   H     0.27770   0.96482   0.64407   0.00000  Uiso   1.00
H902   H     0.03751   0.91394   0.69210   0.00000  Uiso   1.00
H903   H    -0.00000   0.88994   0.97034   0.00000  Uiso   1.00
H904   H     0.13618   0.81025   0.61001   0.00000  Uiso   1.00
H905   H     0.19309   0.86164   0.89143   0.00000  Uiso   1.00
H906   H     0.32633   0.87285   0.61879   0.00000  Uiso   1.00
H907   H     0.00998   0.78034   0.87897   0.00000  Uiso   1.00
H908   H     0.31275   0.75639   0.95615   0.00000  Uiso   1.00
H909   H     0.02588   0.88946   0.54025   0.00000  Uiso   1.00
H910   H     0.07898   0.77408   0.57021   0.00000  Uiso   1.00
N911   N     0.31506   0.84735   0.76212   0.00000  Uiso   1.00
N912   N     0.01827   0.81932   0.73788   0.00000  Uiso   1.00
O913   O     0.12815   0.90476   0.74686   0.00000  Uiso   1.00
O914   O     0.31843   0.69904   0.73184   0.00000  Uiso   1.00
O915   O     0.29825   0.96579   0.66843   0.00000  Uiso   1.00
O916   O     0.09858   0.69457   0.66714   0.00000  Uiso   1.00
O917   O     0.15143   0.95333   0.65693   0.00000  Uiso   1.00
O918   O     0.04328   0.94334   0.71361   0.00000  Uiso   1.00
O919   O     0.20518   0.76191   0.75314   0.00000  Uiso   1.00
O920   O     0.22829   0.91420   0.75503   0.00000  Uiso   1.00
O921   O     0.10504   0.75247   0.74498   0.00000  Uiso   1.00
O922   O     0.08851   0.82597   0.80855   0.00000  Uiso   1.00
O923   O     0.24482   0.84070   0.69146   0.00000  Uiso   1.00
O924   O     0.18866   0.83540   0.81671   0.00000  Uiso   1.00
O925   O     0.14468   0.83126   0.68329   0.00000  Uiso   1.00
O926   O     0.27506   0.72650   0.67531   0.00000  Uiso   1.00
S927   S     0.27445   0.68090   0.70245   0.00000  Uiso   1.00
S928   S     0.11153   0.98429   0.69009   0.00000  Uiso   1.00
C929   C     0.51707   0.93353   0.74711   0.00000  Uiso   1.00
C930   C     0.53846   0.83674   0.66692   0.00000  Uiso   1.00
C931   C     0.43825   0.82152   0.88040   0.00000  Uiso   1.00
C932   C     0.56161   0.84047   0.61921   0.00000  Uiso   1.00
C933   C     0.36013   0.77893   0.94254   0.00000  Uiso   1.00
C934   C     0.64363   0.87126   0.55477   0.00000  Uiso   1.00
C935   C     0.37712   0.79314   0.89876   0.00000  Uiso   1.00
C936   C     0.62505   0.86164   0.59947   0.00000  Uiso   1.00
C937   C     0.48116   0.83756   0.90658   0.00000  Uiso   1.00
C938   C     0.51791   0.82577   0.59344   0.00000  Uiso   1.00
C939   C     0.46619   0.82202   0.95039   0.00000  Uiso   1.00
C940   C     0.48723   0.73330   0.74413   0.00000  Uiso   1.00
C941   C     0.53572   0.83357   0.54805   0.00000  Uiso   1.00
C942   C     0.40419   0.79263   0.96829   0.00000  Uiso   1.00
C943   C     0.59933   0.85846   0.52918   0.00000  Uiso   1.00
C944   C     0.51111   0.83406   0.97655   0.00000  Uiso   1.00
C945   C     0.49174   0.81915   0.52131   0.00000  Uiso   1.00
C946   C     0.42949   0.78945   0.53760   0.00000  Uiso   1.00
C947   C     0.57506   0.85934   0.95927   0.00000  Uiso   1.00
C948   C     0.38689   0.77644   0.51149   0.00000  Uiso   1.00
C949   C     0.61810   0.87091   0.98509   0.00000  Uiso   1.00
C950   C     0.53143   0.98927   0.73551   0.00000  Uiso   1.00
C951   C     0.48474   0.67761   0.73135   0.00000  Uiso   1.00
C952   C     0.46147   0.82920   0.83304   0.00000  Uiso   1.00
Cu953  Cu    0.44071   0.82775   0.74517   0.00000  Uiso   1.00
Cu954  Cu    0.55929   0.83892   0.75484   0.00000  Uiso   1.00
H955   H     0.33980   0.75349   0.52534   0.00000  Uiso   1.00
H956   H     0.59437   0.86977   0.92546   0.00000  Uiso   1.00
H957   H     0.66603   0.86886   0.78662   0.00000  Uiso   1.00
H958   H     0.33506   0.79972   0.71240   0.00000  Uiso   1.00
H959   H     0.61103   0.96482   0.64407   0.00000  Uiso   1.00
H960   H     0.37084   0.91394   0.69210   0.00000  Uiso   1.00
H961   H     0.33333   0.88994   0.97034   0.00000  Uiso   1.00
H962   H     0.46952   0.81025   0.61001   0.00000  Uiso   1.00
H963   H     0.52642   0.86164   0.89143   0.00000  Uiso   1.00
H964   H     0.65966   0.87285   0.61879   0.00000  Uiso   1.00
H965   H     0.34332   0.78034   0.87897   0.00000  Uiso   1.00
H966   H     0.64609   0.75639   0.95615   0.00000  Uiso   1.00
H967   H     0.35921   0.88946   0.54025   0.00000  Uiso   1.00
H968   H     0.41231   0.77408   0.57021   0.00000  Uiso   1.00
N969   N     0.64839   0.84735   0.76212   0.00000  Uiso   1.00
N970   N     0.35161   0.81932   0.73788   0.00000  Uiso   1.00
O971   O     0.46148   0.90476   0.74686   0.00000  Uiso   1.00
O972   O     0.65177   0.69904   0.73184   0.00000  Uiso   1.00
O973   O     0.63158   0.96579   0.66843   0.00000  Uiso   1.00
O974   O     0.43191   0.69457   0.66714   0.00000  Uiso   1.00
O975   O     0.48476   0.95333   0.65693   0.00000  Uiso   1.00
O976   O     0.37661   0.94334   0.71361   0.00000  Uiso   1.00
O977   O     0.53852   0.76191   0.75314   0.00000  Uiso   1.00
O978   O     0.56163   0.91420   0.75503   0.00000  Uiso   1.00
O979   O     0.43837   0.75247   0.74498   0.00000  Uiso   1.00
O980   O     0.42185   0.82597   0.80855   0.00000  Uiso   1.00
O981   O     0.57815   0.84070   0.69146   0.00000  Uiso   1.00
O982   O     0.52199   0.83540   0.81671   0.00000  Uiso   1.00
O983   O     0.47801   0.83126   0.68329   0.00000  Uiso   1.00
O984   O     0.60839   0.72650   0.67531   0.00000  Uiso   1.00
S985   S     0.60778   0.68090   0.70245   0.00000  Uiso   1.00
S986   S     0.44486   0.98429   0.69009   0.00000  Uiso   1.00
C987   C     0.85040   0.93353   0.74711   0.00000  Uiso   1.00
C988   C     0.87179   0.83674   0.66692   0.00000  Uiso   1.00
C989   C     0.77159   0.82152   0.88040   0.00000  Uiso   1.00
C990   C     0.89494   0.84047   0.61921   0.00000  Uiso   1.00
C991   C     0.69346   0.77893   0.94254   0.00000  Uiso   1.00
C992   C     0.97696   0.87126   0.55477   0.00000  Uiso   1.00
C993   C     0.71045   0.79314   0.89876   0.00000  Uiso   1.00
C994   C     0.95839   0.86164   0.59947   0.00000  Uiso   1.00
C995   C     0.81449   0.83756   0.90658   0.00000  Uiso   1.00
C996   C     0.85125   0.82577   0.59344   0.00000  Uiso   1.00
C997   C     0.79952   0.82202   0.95039   0.00000  Uiso   1.00
C998   C     0.82056   0.73330   0.74413   0.00000  Uiso   1.00
C999   C     0.86905   0.83357   0.54805   0.00000  Uiso   1.00
C1000  C     0.73752   0.79263   0.96829   0.00000  Uiso   1.00
C1001  C     0.93266   0.85846   0.52918   0.00000  Uiso   1.00
C1002  C     0.84444   0.83406   0.97655   0.00000  Uiso   1.00
C1003  C     0.82507   0.81915   0.52131   0.00000  Uiso   1.00
C1004  C     0.76282   0.78945   0.53760   0.00000  Uiso   1.00
C1005  C     0.90839   0.85934   0.95927   0.00000  Uiso   1.00
C1006  C     0.72022   0.77644   0.51149   0.00000  Uiso   1.00
C1007  C     0.95144   0.87091   0.98509   0.00000  Uiso   1.00
C1008  C     0.86477   0.98927   0.73551   0.00000  Uiso   1.00
C1009  C     0.81807   0.67761   0.73135   0.00000  Uiso   1.00
C1010  C     0.79480   0.82920   0.83304   0.00000  Uiso   1.00
Cu1011 Cu    0.77404   0.82775   0.74517   0.00000  Uiso   1.00
Cu1012 Cu    0.89263   0.83892   0.75484   0.00000  Uiso   1.00
H1013  H     0.67313   0.75349   0.52534   0.00000  Uiso   1.00
H1014  H     0.92770   0.86977   0.92546   0.00000  Uiso   1.00
H1015  H     0.99936   0.86886   0.78662   0.00000  Uiso   1.00
H1016  H     0.66840   0.79972   0.71240   0.00000  Uiso   1.00
H1017  H     0.94436   0.96482   0.64407   0.00000  Uiso   1.00
H1018  H     0.70417   0.91394   0.69210   0.00000  Uiso   1.00
H1019  H     0.66666   0.88994   0.97034   0.00000  Uiso   1.00
H1020  H     0.80285   0.81025   0.61001   0.00000  Uiso   1.00
H1021  H     0.85975   0.86164   0.89143   0.00000  Uiso   1.00
H1022  H     0.99299   0.87285   0.61879   0.00000  Uiso   1.00
H1023  H     0.67665   0.78034   0.87897   0.00000  Uiso   1.00
H1024  H     0.97942   0.75639   0.95615   0.00000  Uiso   1.00
H1025  H     0.69255   0.88946   0.54025   0.00000  Uiso   1.00
H1026  H     0.74564   0.77408   0.57021   0.00000  Uiso   1.00
N1027  N     0.98173   0.84735   0.76212   0.00000  Uiso   1.00
N1028  N     0.68494   0.81932   0.73788   0.00000  Uiso   1.00
O1029  O     0.79482   0.90476   0.74686   0.00000  Uiso   1.00
O1030  O     0.98510   0.69904   0.73184   0.00000  Uiso   1.00
O1031  O     0.96491   0.96579   0.66843   0.00000  Uiso   1.00
O1032  O     0.76524   0.69457   0.66714   0.00000  Uiso   1.00
O1033  O     0.81809   0.95333   0.65693   0.00000  Uiso   1.00
O1034  O     0.70995   0.94334   0.71361   0.00000  Uiso   1.00
O1035  O     0.87185   0.76191   0.75314   0.00000  Uiso   1.00
O1036  O     0.89496   0.91420   0.75503   0.00000  Uiso   1.00
O1037  O     0.77171   0.75247   0.74498   0.00000  Uiso   1.00
O1038  O     0.75518   0.82597   0.80855   0.00000  Uiso   1.00
O1039  O     0.91149   0.84070   0.69146   0.00000  Uiso   1.00
O1040  O     0.85532   0.83540   0.81671   0.00000  Uiso   1.00
O1041  O     0.81134   0.83126   0.68329   0.00000  Uiso   1.00
O1042  O     0.94172   0.72650   0.67531   0.00000  Uiso   1.00
S1043  S     0.94112   0.68090   0.70245   0.00000  Uiso   1.00
S1044  S     0.77819   0.98429   0.69009   0.00000  Uiso   1.00
loop_
_geom_bond_atom_site_label_1
_geom_bond_atom_site_label_2
_geom_bond_distance
_geom_bond_site_symmetry_2
_ccdc_geom_bond_type
C1     C22     1.456   .     S
C1     O50     1.297   .     A
C1     O43     1.300   .     A
C2     C4      1.468   .     S
C2     O55     1.300   .     A
C2     O53     1.306   .     A
C3     C9      1.399   .     A
C3     C7      1.398   .     A
C3     C24     1.468   .     S
C4     C8      1.398   .     A
C4     C10     1.400   .     A
C5     C14     1.405   .     A
C5     C7      1.393   .     A
C5     H154    1.084   1_455 S
C6     C8      1.392   .     A
C6     C15     1.404   .     A
C6     H97     1.084   .     S
C7     H37     1.083   .     S
C8     H36     1.083   .     S
C9     C11     1.406   .     A
C9     H35     1.075   .     S
C10    H34     1.075   .     S
C10    C13     1.405   .     A
C11    C14     1.418   .     A
C11    C16     1.429   .     A
C12    C23     1.459   .     S
C12    O49     1.304   .     A
C12    O51     1.294   .     A
C13    C17     1.428   .     A
C13    C15     1.417   .     A
C14    C542    1.390   .     S
C15    C543    1.389   1_554 S
C16    C19     1.417   .     A
C16    C539    1.425   .     S
C17    C18     1.417   .     A
C17    C538    1.425   1_554 S
C18    C20     1.387   .     A
C18    H40     1.076   .     S
C19    H28     1.076   .     S
C19    C21     1.387   .     A
C20    H27     1.084   .     S
C20    C536    1.390   1_554 S
C21    H91     1.085   .     S
C21    C537    1.389   .     S
C22    C197    1.332   .     S
C22    S231    1.767   .     S
C23    C370    1.332   1_545 S
C23    S406    1.778   1_545 S
C24    O52     1.305   .     A
C24    O54     1.299   .     A
Cu25   N42     2.030   .     S
Cu25   O51     1.934   .     S
Cu25   O43     1.939   .     S
Cu25   O52     1.942   .     S
Cu25   Cu26    2.701   .     S
Cu25   O55     1.922   .     S
Cu26   O50     1.934   .     S
Cu26   O54     1.922   .     S
Cu26   O53     1.942   .     S
Cu26   O49     1.939   .     S
Cu26   N41     2.030   .     S
H29    N41     1.029   .     S
H30    N42     1.025   .     S
H31    O45     0.990   .     S
H32    O48     0.991   .     S
H33    C137    1.085   1_455 S
H38    C63     1.084   .     S
H39    C122    1.084   1_455 S
N41    N100    1.285   .     S
N42    N157    1.285   1_455 S
O44    S57     1.500   .     D
O45    S231    1.680   .     S
O46    S406    1.503   1_545 S
O47    S58     1.504   .     D
O48    S58     1.678   .     S
O56    S57     1.504   .     D
S57    O393    1.680   1_545 S
S57    C370    1.767   1_545 S
S58    C197    1.778   .     S
S58    O220    1.503   .     S
C59    C80     1.456   .     S
C59    O108    1.297   .     A
C59    O101    1.300   .     A
C60    C62     1.468   .     S
C60    O113    1.300   .     A
C60    O111    1.306   .     A
C61    C67     1.399   .     A
C61    C65     1.398   .     A
C61    C82     1.468   .     S
C62    C66     1.398   .     A
C62    C68     1.400   .     A
C63    C72     1.405   .     A
C63    C65     1.393   .     A
C64    C66     1.392   .     A
C64    C73     1.404   .     A
C64    H155    1.084   .     S
C65    H95     1.083   .     S
C66    H94     1.083   .     S
C67    C69     1.406   .     A
C67    H93     1.075   .     S
C68    H92     1.075   .     S
C68    C71     1.405   .     A
C69    C72     1.418   .     A
C69    C74     1.429   .     A
C70    C81     1.459   .     S
C70    O107    1.304   .     A
C70    O109    1.294   .     A
C71    C75     1.428   .     A
C71    C73     1.417   .     A
C72    C600    1.390   .     S
C73    C601    1.389   1_554 S
C74    C77     1.417   .     A
C74    C597    1.425   .     S
C75    C76     1.417   .     A
C75    C596    1.425   1_554 S
C76    C78     1.387   .     A
C76    H98     1.076   .     S
C77    H86     1.076   .     S
C77    C79     1.387   .     A
C78    H85     1.084   .     S
C78    C594    1.390   1_554 S
C79    H149    1.085   .     S
C79    C595    1.389   .     S
C80    C255    1.332   .     S
C80    S289    1.767   .     S
C81    C428    1.332   1_545 S
C81    S464    1.778   1_545 S
C82    O110    1.305   .     A
C82    O112    1.299   .     A
Cu83   N100    2.030   .     S
Cu83   O109    1.934   .     S
Cu83   O101    1.939   .     S
Cu83   O110    1.942   .     S
Cu83   Cu84    2.701   .     S
Cu83   O113    1.922   .     S
Cu84   O108    1.934   .     S
Cu84   O112    1.922   .     S
Cu84   O111    1.942   .     S
Cu84   O107    1.939   .     S
Cu84   N99     2.030   .     S
H87    N99     1.029   .     S
H88    N100    1.025   .     S
H89    O103    0.990   .     S
H90    O106    0.991   .     S
H96    C121    1.084   .     S
N99    N158    1.285   .     S
O102   S115    1.500   .     D
O103   S289    1.680   .     S
O104   S464    1.503   1_545 S
O105   S116    1.504   .     D
O106   S116    1.678   .     S
O114   S115    1.504   .     D
S115   O451    1.680   1_545 S
S115   C428    1.767   1_545 S
S116   C255    1.778   .     S
S116   O278    1.503   .     S
C117   C138    1.456   .     S
C117   O166    1.297   .     A
C117   O159    1.300   .     A
C118   C120    1.468   .     S
C118   O171    1.300   .     A
C118   O169    1.306   .     A
C119   C125    1.399   .     A
C119   C123    1.398   .     A
C119   C140    1.468   .     S
C120   C124    1.398   .     A
C120   C126    1.400   .     A
C121   C130    1.405   .     A
C121   C123    1.393   .     A
C122   C124    1.392   .     A
C122   C131    1.404   .     A
C122   H39     1.084   1_655 S
C123   H153    1.083   .     S
C124   H152    1.083   .     S
C125   C127    1.406   .     A
C125   H151    1.075   .     S
C126   H150    1.075   .     S
C126   C129    1.405   .     A
C127   C130    1.418   .     A
C127   C132    1.429   .     A
C128   C139    1.459   .     S
C128   O165    1.304   .     A
C128   O167    1.294   .     A
C129   C133    1.428   .     A
C129   C131    1.417   .     A
C130   C658    1.390   .     S
C131   C659    1.389   1_554 S
C132   C135    1.417   .     A
C132   C655    1.425   .     S
C133   C134    1.417   .     A
C133   C654    1.425   1_554 S
C134   C136    1.387   .     A
C134   H156    1.076   .     S
C135   H144    1.076   .     S
C135   C137    1.387   .     A
C136   H143    1.084   .     S
C136   C652    1.390   1_554 S
C137   H33     1.085   1_655 S
C137   C653    1.389   .     S
C138   C313    1.332   .     S
C138   S347    1.767   .     S
C139   C486    1.332   1_545 S
C139   S522    1.778   1_545 S
C140   O168    1.305   .     A
C140   O170    1.299   .     A
Cu141  N158    2.030   .     S
Cu141  O167    1.934   .     S
Cu141  O159    1.939   .     S
Cu141  O168    1.942   .     S
Cu141  Cu142   2.701   .     S
Cu141  O171    1.922   .     S
Cu142  O166    1.934   .     S
Cu142  O170    1.922   .     S
Cu142  O169    1.942   .     S
Cu142  O165    1.939   .     S
Cu142  N157    2.030   .     S
H145   N157    1.029   .     S
H146   N158    1.025   .     S
H147   O161    0.990   .     S
H148   O164    0.991   .     S
H154   C5      1.084   1_655 S
N157   N42     1.285   1_655 S
O160   S173    1.500   .     D
O161   S347    1.680   .     S
O162   S522    1.503   1_545 S
O163   S174    1.504   .     D
O164   S174    1.678   .     S
O172   S173    1.504   .     D
S173   O509    1.680   1_545 S
S173   C486    1.767   1_545 S
S174   C313    1.778   .     S
S174   O336    1.503   .     S
C175   C196    1.456   .     S
C175   O224    1.297   .     A
C175   O217    1.300   .     A
C176   C178    1.468   .     S
C176   O229    1.300   .     A
C176   O227    1.306   .     A
C177   C183    1.399   .     A
C177   C181    1.398   .     A
C177   C198    1.468   .     S
C178   C182    1.398   .     A
C178   C184    1.400   .     A
C179   C188    1.405   .     A
C179   C181    1.393   .     A
C179   H328    1.084   1_455 S
C180   C182    1.392   .     A
C180   C189    1.404   .     A
C180   H271    1.084   .     S
C181   H211    1.083   .     S
C182   H210    1.083   .     S
C183   C185    1.406   .     A
C183   H209    1.075   .     S
C184   H208    1.075   .     S
C184   C187    1.405   .     A
C185   C188    1.418   .     A
C185   C190    1.429   .     A
C186   C197    1.459   .     S
C186   O223    1.304   .     A
C186   O225    1.294   .     A
C187   C191    1.428   .     A
C187   C189    1.417   .     A
C188   C716    1.390   .     S
C189   C717    1.389   1_554 S
C190   C193    1.417   .     A
C190   C713    1.425   .     S
C191   C192    1.417   .     A
C191   C712    1.425   1_554 S
C192   C194    1.387   .     A
C192   H214    1.076   .     S
C193   H202    1.076   .     S
C193   C195    1.387   .     A
C194   H201    1.084   .     S
C194   C710    1.390   1_554 S
C195   H265    1.085   .     S
C195   C711    1.389   .     S
C196   C371    1.332   .     S
C196   S405    1.767   .     S
C198   O226    1.305   .     A
C198   O228    1.299   .     A
Cu199  N216    2.030   .     S
Cu199  O225    1.934   .     S
Cu199  O217    1.939   .     S
Cu199  O226    1.942   .     S
Cu199  Cu200   2.701   .     S
Cu199  O229    1.922   .     S
Cu200  O224    1.934   .     S
Cu200  O228    1.922   .     S
Cu200  O227    1.942   .     S
Cu200  O223    1.939   .     S
Cu200  N215    2.030   .     S
H203   N215    1.029   .     S
H204   N216    1.025   .     S
H205   O219    0.990   .     S
H206   O222    0.991   .     S
H207   C311    1.085   1_455 S
H212   C237    1.084   .     S
H213   C296    1.084   1_455 S
N215   N274    1.285   .     S
N216   N331    1.285   1_455 S
O218   S231    1.500   .     D
O219   S405    1.680   .     S
O221   S232    1.504   .     D
O222   S232    1.678   .     S
O230   S231    1.504   .     D
S232   C371    1.778   .     S
S232   O394    1.503   .     S
C233   C254    1.456   .     S
C233   O282    1.297   .     A
C233   O275    1.300   .     A
C234   C236    1.468   .     S
C234   O287    1.300   .     A
C234   O285    1.306   .     A
C235   C241    1.399   .     A
C235   C239    1.398   .     A
C235   C256    1.468   .     S
C236   C240    1.398   .     A
C236   C242    1.400   .     A
C237   C246    1.405   .     A
C237   C239    1.393   .     A
C238   C240    1.392   .     A
C238   C247    1.404   .     A
C238   H329    1.084   .     S
C239   H269    1.083   .     S
C240   H268    1.083   .     S
C241   C243    1.406   .     A
C241   H267    1.075   .     S
C242   H266    1.075   .     S
C242   C245    1.405   .     A
C243   C246    1.418   .     A
C243   C248    1.429   .     A
C244   C255    1.459   .     S
C244   O281    1.304   .     A
C244   O283    1.294   .     A
C245   C249    1.428   .     A
C245   C247    1.417   .     A
C246   C774    1.390   .     S
C247   C775    1.389   1_554 S
C248   C251    1.417   .     A
C248   C771    1.425   .     S
C249   C250    1.417   .     A
C249   C770    1.425   1_554 S
C250   C252    1.387   .     A
C250   H272    1.076   .     S
C251   H260    1.076   .     S
C251   C253    1.387   .     A
C252   H259    1.084   .     S
C252   C768    1.390   1_554 S
C253   H323    1.085   .     S
C253   C769    1.389   .     S
C254   C429    1.332   .     S
C254   S463    1.767   .     S
C256   O284    1.305   .     A
C256   O286    1.299   .     A
Cu257  N274    2.030   .     S
Cu257  O283    1.934   .     S
Cu257  O275    1.939   .     S
Cu257  O284    1.942   .     S
Cu257  Cu258   2.701   .     S
Cu257  O287    1.922   .     S
Cu258  O282    1.934   .     S
Cu258  O286    1.922   .     S
Cu258  O285    1.942   .     S
Cu258  O281    1.939   .     S
Cu258  N273    2.030   .     S
H261   N273    1.029   .     S
H262   N274    1.025   .     S
H263   O277    0.990   .     S
H264   O280    0.991   .     S
H270   C295    1.084   .     S
N273   N332    1.285   .     S
O276   S289    1.500   .     D
O277   S463    1.680   .     S
O279   S290    1.504   .     D
O280   S290    1.678   .     S
O288   S289    1.504   .     D
S290   C429    1.778   .     S
S290   O452    1.503   .     S
C291   C312    1.456   .     S
C291   O340    1.297   .     A
C291   O333    1.300   .     A
C292   C294    1.468   .     S
C292   O345    1.300   .     A
C292   O343    1.306   .     A
C293   C299    1.399   .     A
C293   C297    1.398   .     A
C293   C314    1.468   .     S
C294   C298    1.398   .     A
C294   C300    1.400   .     A
C295   C304    1.405   .     A
C295   C297    1.393   .     A
C296   C298    1.392   .     A
C296   C305    1.404   .     A
C296   H213    1.084   1_655 S
C297   H327    1.083   .     S
C298   H326    1.083   .     S
C299   C301    1.406   .     A
C299   H325    1.075   .     S
C300   H324    1.075   .     S
C300   C303    1.405   .     A
C301   C304    1.418   .     A
C301   C306    1.429   .     A
C302   C313    1.459   .     S
C302   O339    1.304   .     A
C302   O341    1.294   .     A
C303   C307    1.428   .     A
C303   C305    1.417   .     A
C304   C832    1.390   .     S
C305   C833    1.389   1_554 S
C306   C309    1.417   .     A
C306   C829    1.425   .     S
C307   C308    1.417   .     A
C307   C828    1.425   1_554 S
C308   C310    1.387   .     A
C308   H330    1.076   .     S
C309   H318    1.076   .     S
C309   C311    1.387   .     A
C310   H317    1.084   .     S
C310   C826    1.390   1_554 S
C311   H207    1.085   1_655 S
C311   C827    1.389   .     S
C312   C487    1.332   .     S
C312   S521    1.767   .     S
C314   O342    1.305   .     A
C314   O344    1.299   .     A
Cu315  N332    2.030   .     S
Cu315  O341    1.934   .     S
Cu315  O333    1.939   .     S
Cu315  O342    1.942   .     S
Cu315  Cu316   2.701   .     S
Cu315  O345    1.922   .     S
Cu316  O340    1.934   .     S
Cu316  O344    1.922   .     S
Cu316  O343    1.942   .     S
Cu316  O339    1.939   .     S
Cu316  N331    2.030   .     S
H319   N331    1.029   .     S
H320   N332    1.025   .     S
H321   O335    0.990   .     S
H322   O338    0.991   .     S
H328   C179    1.084   1_655 S
N331   N216    1.285   1_655 S
O334   S347    1.500   .     D
O335   S521    1.680   .     S
O337   S348    1.504   .     D
O338   S348    1.678   .     S
O346   S347    1.504   .     D
S348   C487    1.778   .     S
S348   O510    1.503   .     S
C349   C370    1.456   .     S
C349   O398    1.297   .     A
C349   O391    1.300   .     A
C350   C352    1.468   .     S
C350   O403    1.300   .     A
C350   O401    1.306   .     A
C351   C357    1.399   .     A
C351   C355    1.398   .     A
C351   C372    1.468   .     S
C352   C356    1.398   .     A
C352   C358    1.400   .     A
C353   C362    1.405   .     A
C353   C355    1.393   .     A
C353   H502    1.084   1_455 S
C354   C356    1.392   .     A
C354   C363    1.404   .     A
C354   H445    1.084   .     S
C355   H385    1.083   .     S
C356   H384    1.083   .     S
C357   C359    1.406   .     A
C357   H383    1.075   .     S
C358   H382    1.075   .     S
C358   C361    1.405   .     A
C359   C362    1.418   .     A
C359   C364    1.429   .     A
C360   C371    1.459   .     S
C360   O397    1.304   .     A
C360   O399    1.294   .     A
C361   C365    1.428   .     A
C361   C363    1.417   .     A
C362   C890    1.390   .     S
C363   C891    1.389   1_554 S
C364   C367    1.417   .     A
C364   C887    1.425   .     S
C365   C366    1.417   .     A
C365   C886    1.425   1_554 S
C366   C368    1.387   .     A
C366   H388    1.076   .     S
C367   H376    1.076   .     S
C367   C369    1.387   .     A
C368   H375    1.084   .     S
C368   C884    1.390   1_554 S
C369   H439    1.085   .     S
C369   C885    1.389   .     S
C370   C23     1.332   1_565 S
C370   S57     1.767   1_565 S
C372   O400    1.305   .     A
C372   O402    1.299   .     A
Cu373  N390    2.030   .     S
Cu373  O399    1.934   .     S
Cu373  O391    1.939   .     S
Cu373  O400    1.942   .     S
Cu373  Cu374   2.701   .     S
Cu373  O403    1.922   .     S
Cu374  O398    1.934   .     S
Cu374  O402    1.922   .     S
Cu374  O401    1.942   .     S
Cu374  O397    1.939   .     S
Cu374  N389    2.030   .     S
H377   N389    1.029   .     S
H378   N390    1.025   .     S
H379   O393    0.990   .     S
H380   O396    0.991   .     S
H381   C485    1.085   1_455 S
H386   C411    1.084   .     S
H387   C470    1.084   1_455 S
N389   N448    1.285   .     S
N390   N505    1.285   1_455 S
O392   S405    1.500   .     D
O393   S57     1.680   1_565 S
O395   S406    1.504   .     D
O396   S406    1.678   .     S
O404   S405    1.504   .     D
S406   C23     1.778   1_565 S
S406   O46     1.503   1_565 S
C407   C428    1.456   .     S
C407   O456    1.297   .     A
C407   O449    1.300   .     A
C408   C410    1.468   .     S
C408   O461    1.300   .     A
C408   O459    1.306   .     A
C409   C415    1.399   .     A
C409   C413    1.398   .     A
C409   C430    1.468   .     S
C410   C414    1.398   .     A
C410   C416    1.400   .     A
C411   C420    1.405   .     A
C411   C413    1.393   .     A
C412   C414    1.392   .     A
C412   C421    1.404   .     A
C412   H503    1.084   .     S
C413   H443    1.083   .     S
C414   H442    1.083   .     S
C415   C417    1.406   .     A
C415   H441    1.075   .     S
C416   H440    1.075   .     S
C416   C419    1.405   .     A
C417   C420    1.418   .     A
C417   C422    1.429   .     A
C418   C429    1.459   .     S
C418   O455    1.304   .     A
C418   O457    1.294   .     A
C419   C423    1.428   .     A
C419   C421    1.417   .     A
C420   C948    1.390   .     S
C421   C949    1.389   1_554 S
C422   C425    1.417   .     A
C422   C945    1.425   .     S
C423   C424    1.417   .     A
C423   C944    1.425   1_554 S
C424   C426    1.387   .     A
C424   H446    1.076   .     S
C425   H434    1.076   .     S
C425   C427    1.387   .     A
C426   H433    1.084   .     S
C426   C942    1.390   1_554 S
C427   H497    1.085   .     S
C427   C943    1.389   .     S
C428   C81     1.332   1_565 S
C428   S115    1.767   1_565 S
C430   O458    1.305   .     A
C430   O460    1.299   .     A
Cu431  N448    2.030   .     S
Cu431  O457    1.934   .     S
Cu431  O449    1.939   .     S
Cu431  O458    1.942   .     S
Cu431  Cu432   2.701   .     S
Cu431  O461    1.922   .     S
Cu432  O456    1.934   .     S
Cu432  O460    1.922   .     S
Cu432  O459    1.942   .     S
Cu432  O455    1.939   .     S
Cu432  N447    2.030   .     S
H435   N447    1.029   .     S
H436   N448    1.025   .     S
H437   O451    0.990   .     S
H438   O454    0.991   .     S
H444   C469    1.084   .     S
N447   N506    1.285   .     S
O450   S463    1.500   .     D
O451   S115    1.680   1_565 S
O453   S464    1.504   .     D
O454   S464    1.678   .     S
O462   S463    1.504   .     D
S464   C81     1.778   1_565 S
S464   O104    1.503   1_565 S
C465   C486    1.456   .     S
C465   O514    1.297   .     A
C465   O507    1.300   .     A
C466   C468    1.468   .     S
C466   O519    1.300   .     A
C466   O517    1.306   .     A
C467   C473    1.399   .     A
C467   C471    1.398   .     A
C467   C488    1.468   .     S
C468   C472    1.398   .     A
C468   C474    1.400   .     A
C469   C478    1.405   .     A
C469   C471    1.393   .     A
C470   C472    1.392   .     A
C470   C479    1.404   .     A
C470   H387    1.084   1_655 S
C471   H501    1.083   .     S
C472   H500    1.083   .     S
C473   C475    1.406   .     A
C473   H499    1.075   .     S
C474   H498    1.075   .     S
C474   C477    1.405   .     A
C475   C478    1.418   .     A
C475   C480    1.429   .     A
C476   C487    1.459   .     S
C476   O513    1.304   .     A
C476   O515    1.294   .     A
C477   C481    1.428   .     A
C477   C479    1.417   .     A
C478   C1006   1.390   .     S
C479   C1007   1.389   1_554 S
C480   C483    1.417   .     A
C480   C1003   1.425   .     S
C481   C482    1.417   .     A
C481   C1002   1.425   1_554 S
C482   C484    1.387   .     A
C482   H504    1.076   .     S
C483   H492    1.076   .     S
C483   C485    1.387   .     A
C484   H491    1.084   .     S
C484   C1000   1.390   1_554 S
C485   H381    1.085   1_655 S
C485   C1001   1.389   .     S
C486   C139    1.332   1_565 S
C486   S173    1.767   1_565 S
C488   O516    1.305   .     A
C488   O518    1.299   .     A
Cu489  N506    2.030   .     S
Cu489  O515    1.934   .     S
Cu489  O507    1.939   .     S
Cu489  O516    1.942   .     S
Cu489  Cu490   2.701   .     S
Cu489  O519    1.922   .     S
Cu490  O514    1.934   .     S
Cu490  O518    1.922   .     S
Cu490  O517    1.942   .     S
Cu490  O513    1.939   .     S
Cu490  N505    2.030   .     S
H493   N505    1.029   .     S
H494   N506    1.025   .     S
H495   O509    0.990   .     S
H496   O512    0.991   .     S
H502   C353    1.084   1_655 S
N505   N390    1.285   1_655 S
O508   S521    1.500   .     D
O509   S173    1.680   1_565 S
O511   S522    1.504   .     D
O512   S522    1.678   .     S
O520   S521    1.504   .     D
S522   C139    1.778   1_565 S
S522   O162    1.503   1_565 S
C523   C544    1.456   .     S
C523   O572    1.297   .     A
C523   O565    1.300   .     A
C524   C526    1.468   .     S
C524   O577    1.300   .     A
C524   O575    1.306   .     A
C525   C531    1.399   .     A
C525   C529    1.398   .     A
C525   C546    1.468   .     S
C526   C530    1.398   .     A
C526   C532    1.400   .     A
C527   C536    1.405   .     A
C527   C529    1.393   .     A
C527   H676    1.084   1_455 S
C528   C530    1.392   .     A
C528   C537    1.404   .     A
C528   H619    1.084   .     S
C529   H559    1.083   .     S
C530   H558    1.083   .     S
C531   C533    1.406   .     A
C531   H557    1.075   .     S
C532   H556    1.075   .     S
C532   C535    1.405   .     A
C533   C536    1.418   .     A
C533   C538    1.429   .     A
C534   C545    1.459   .     S
C534   O571    1.304   .     A
C534   O573    1.294   .     A
C535   C539    1.428   .     A
C535   C537    1.417   .     A
C536   C20     1.390   1_556 S
C538   C541    1.417   .     A
C538   C17     1.425   1_556 S
C539   C540    1.417   .     A
C540   C542    1.387   .     A
C540   H562    1.076   .     S
C541   H550    1.076   .     S
C541   C543    1.387   .     A
C542   H549    1.084   .     S
C543   H613    1.085   .     S
C543   C15     1.389   1_556 S
C544   C719    1.332   .     S
C544   S753    1.767   .     S
C545   C892    1.332   1_545 S
C545   S928    1.778   1_545 S
C546   O574    1.305   .     A
C546   O576    1.299   .     A
Cu547  N564    2.030   .     S
Cu547  O573    1.934   .     S
Cu547  O565    1.939   .     S
Cu547  O574    1.942   .     S
Cu547  Cu548   2.701   .     S
Cu547  O577    1.922   .     S
Cu548  O572    1.934   .     S
Cu548  O576    1.922   .     S
Cu548  O575    1.942   .     S
Cu548  O571    1.939   .     S
Cu548  N563    2.030   .     S
H551   N563    1.029   .     S
H552   N564    1.025   .     S
H553   O567    0.990   .     S
H554   O570    0.991   .     S
H555   C659    1.085   1_455 S
H560   C585    1.084   .     S
H561   C644    1.084   1_455 S
N563   N622    1.285   .     S
N564   N679    1.285   1_455 S
O566   S579    1.500   .     D
O567   S753    1.680   .     S
O568   S928    1.503   1_545 S
O569   S580    1.504   .     D
O570   S580    1.678   .     S
O578   S579    1.504   .     D
S579   O915    1.680   1_545 S
S579   C892    1.767   1_545 S
S580   C719    1.778   .     S
S580   O742    1.503   .     S
C581   C602    1.456   .     S
C581   O630    1.297   .     A
C581   O623    1.300   .     A
C582   C584    1.468   .     S
C582   O635    1.300   .     A
C582   O633    1.306   .     A
C583   C589    1.399   .     A
C583   C587    1.398   .     A
C583   C604    1.468   .     S
C584   C588    1.398   .     A
C584   C590    1.400   .     A
C585   C594    1.405   .     A
C585   C587    1.393   .     A
C586   C588    1.392   .     A
C586   C595    1.404   .     A
C586   H677    1.084   .     S
C587   H617    1.083   .     S
C588   H616    1.083   .     S
C589   C591    1.406   .     A
C589   H615    1.075   .     S
C590   H614    1.075   .     S
C590   C593    1.405   .     A
C591   C594    1.418   .     A
C591   C596    1.429   .     A
C592   C603    1.459   .     S
C592   O629    1.304   .     A
C592   O631    1.294   .     A
C593   C597    1.428   .     A
C593   C595    1.417   .     A
C594   C78     1.390   1_556 S
C596   C599    1.417   .     A
C596   C75     1.425   1_556 S
C597   C598    1.417   .     A
C598   C600    1.387   .     A
C598   H620    1.076   .     S
C599   H608    1.076   .     S
C599   C601    1.387   .     A
C600   H607    1.084   .     S
C601   H671    1.085   .     S
C601   C73     1.389   1_556 S
C602   C777    1.332   .     S
C602   S811    1.767   .     S
C603   C950    1.332   1_545 S
C603   S986    1.778   1_545 S
C604   O632    1.305   .     A
C604   O634    1.299   .     A
Cu605  N622    2.030   .     S
Cu605  O631    1.934   .     S
Cu605  O623    1.939   .     S
Cu605  O632    1.942   .     S
Cu605  Cu606   2.701   .     S
Cu605  O635    1.922   .     S
Cu606  O630    1.934   .     S
Cu606  O634    1.922   .     S
Cu606  O633    1.942   .     S
Cu606  O629    1.939   .     S
Cu606  N621    2.030   .     S
H609   N621    1.029   .     S
H610   N622    1.025   .     S
H611   O625    0.990   .     S
H612   O628    0.991   .     S
H618   C643    1.084   .     S
N621   N680    1.285   .     S
O624   S637    1.500   .     D
O625   S811    1.680   .     S
O626   S986    1.503   1_545 S
O627   S638    1.504   .     D
O628   S638    1.678   .     S
O636   S637    1.504   .     D
S637   O973    1.680   1_545 S
S637   C950    1.767   1_545 S
S638   C777    1.778   .     S
S638   O800    1.503   .     S
C639   C660    1.456   .     S
C639   O688    1.297   .     A
C639   O681    1.300   .     A
C640   C642    1.468   .     S
C640   O693    1.300   .     A
C640   O691    1.306   .     A
C641   C647    1.399   .     A
C641   C645    1.398   .     A
C641   C662    1.468   .     S
C642   C646    1.398   .     A
C642   C648    1.400   .     A
C643   C652    1.405   .     A
C643   C645    1.393   .     A
C644   C646    1.392   .     A
C644   C653    1.404   .     A
C644   H561    1.084   1_655 S
C645   H675    1.083   .     S
C646   H674    1.083   .     S
C647   C649    1.406   .     A
C647   H673    1.075   .     S
C648   H672    1.075   .     S
C648   C651    1.405   .     A
C649   C652    1.418   .     A
C649   C654    1.429   .     A
C650   C661    1.459   .     S
C650   O687    1.304   .     A
C650   O689    1.294   .     A
C651   C655    1.428   .     A
C651   C653    1.417   .     A
C652   C136    1.390   1_556 S
C654   C657    1.417   .     A
C654   C133    1.425   1_556 S
C655   C656    1.417   .     A
C656   C658    1.387   .     A
C656   H678    1.076   .     S
C657   H666    1.076   .     S
C657   C659    1.387   .     A
C658   H665    1.084   .     S
C659   H555    1.085   1_655 S
C659   C131    1.389   1_556 S
C660   C835    1.332   .     S
C660   S869    1.767   .     S
C661   C1008   1.332   1_545 S
C661   S1044   1.778   1_545 S
C662   O690    1.305   .     A
C662   O692    1.299   .     A
Cu663  N680    2.030   .     S
Cu663  O689    1.934   .     S
Cu663  O681    1.939   .     S
Cu663  O690    1.942   .     S
Cu663  Cu664   2.701   .     S
Cu663  O693    1.922   .     S
Cu664  O688    1.934   .     S
Cu664  O692    1.922   .     S
Cu664  O691    1.942   .     S
Cu664  O687    1.939   .     S
Cu664  N679    2.030   .     S
H667   N679    1.029   .     S
H668   N680    1.025   .     S
H669   O683    0.990   .     S
H670   O686    0.991   .     S
H676   C527    1.084   1_655 S
N679   N564    1.285   1_655 S
O682   S695    1.500   .     D
O683   S869    1.680   .     S
O684   S1044   1.503   1_545 S
O685   S696    1.504   .     D
O686   S696    1.678   .     S
O694   S695    1.504   .     D
S695   O1031   1.680   1_545 S
S695   C1008   1.767   1_545 S
S696   C835    1.778   .     S
S696   O858    1.503   .     S
C697   C718    1.456   .     S
C697   O746    1.297   .     A
C697   O739    1.300   .     A
C698   C700    1.468   .     S
C698   O751    1.300   .     A
C698   O749    1.306   .     A
C699   C705    1.399   .     A
C699   C703    1.398   .     A
C699   C720    1.468   .     S
C700   C704    1.398   .     A
C700   C706    1.400   .     A
C701   C710    1.405   .     A
C701   C703    1.393   .     A
C701   H850    1.084   1_455 S
C702   C704    1.392   .     A
C702   C711    1.404   .     A
C702   H793    1.084   .     S
C703   H733    1.083   .     S
C704   H732    1.083   .     S
C705   C707    1.406   .     A
C705   H731    1.075   .     S
C706   H730    1.075   .     S
C706   C709    1.405   .     A
C707   C710    1.418   .     A
C707   C712    1.429   .     A
C708   C719    1.459   .     S
C708   O745    1.304   .     A
C708   O747    1.294   .     A
C709   C713    1.428   .     A
C709   C711    1.417   .     A
C710   C194    1.390   1_556 S
C712   C715    1.417   .     A
C712   C191    1.425   1_556 S
C713   C714    1.417   .     A
C714   C716    1.387   .     A
C714   H736    1.076   .     S
C715   H724    1.076   .     S
C715   C717    1.387   .     A
C716   H723    1.084   .     S
C717   H787    1.085   .     S
C717   C189    1.389   1_556 S
C718   C893    1.332   .     S
C718   S927    1.767   .     S
C720   O748    1.305   .     A
C720   O750    1.299   .     A
Cu721  N738    2.030   .     S
Cu721  O747    1.934   .     S
Cu721  O739    1.939   .     S
Cu721  O748    1.942   .     S
Cu721  Cu722   2.701   .     S
Cu721  O751    1.922   .     S
Cu722  O746    1.934   .     S
Cu722  O750    1.922   .     S
Cu722  O749    1.942   .     S
Cu722  O745    1.939   .     S
Cu722  N737    2.030   .     S
H725   N737    1.029   .     S
H726   N738    1.025   .     S
H727   O741    0.990   .     S
H728   O744    0.991   .     S
H729   C833    1.085   1_455 S
H734   C759    1.084   .     S
H735   C818    1.084   1_455 S
N737   N796    1.285   .     S
N738   N853    1.285   1_455 S
O740   S753    1.500   .     D
O741   S927    1.680   .     S
O743   S754    1.504   .     D
O744   S754    1.678   .     S
O752   S753    1.504   .     D
S754   C893    1.778   .     S
S754   O916    1.503   .     S
C755   C776    1.456   .     S
C755   O804    1.297   .     A
C755   O797    1.300   .     A
C756   C758    1.468   .     S
C756   O809    1.300   .     A
C756   O807    1.306   .     A
C757   C763    1.399   .     A
C757   C761    1.398   .     A
C757   C778    1.468   .     S
C758   C762    1.398   .     A
C758   C764    1.400   .     A
C759   C768    1.405   .     A
C759   C761    1.393   .     A
C760   C762    1.392   .     A
C760   C769    1.404   .     A
C760   H851    1.084   .     S
C761   H791    1.083   .     S
C762   H790    1.083   .     S
C763   C765    1.406   .     A
C763   H789    1.075   .     S
C764   H788    1.075   .     S
C764   C767    1.405   .     A
C765   C768    1.418   .     A
C765   C770    1.429   .     A
C766   C777    1.459   .     S
C766   O803    1.304   .     A
C766   O805    1.294   .     A
C767   C771    1.428   .     A
C767   C769    1.417   .     A
C768   C252    1.390   1_556 S
C770   C773    1.417   .     A
C770   C249    1.425   1_556 S
C771   C772    1.417   .     A
C772   C774    1.387   .     A
C772   H794    1.076   .     S
C773   H782    1.076   .     S
C773   C775    1.387   .     A
C774   H781    1.084   .     S
C775   H845    1.085   .     S
C775   C247    1.389   1_556 S
C776   C951    1.332   .     S
C776   S985    1.767   .     S
C778   O806    1.305   .     A
C778   O808    1.299   .     A
Cu779  N796    2.030   .     S
Cu779  O805    1.934   .     S
Cu779  O797    1.939   .     S
Cu779  O806    1.942   .     S
Cu779  Cu780   2.701   .     S
Cu779  O809    1.922   .     S
Cu780  O804    1.934   .     S
Cu780  O808    1.922   .     S
Cu780  O807    1.942   .     S
Cu780  O803    1.939   .     S
Cu780  N795    2.030   .     S
H783   N795    1.029   .     S
H784   N796    1.025   .     S
H785   O799    0.990   .     S
H786   O802    0.991   .     S
H792   C817    1.084   .     S
N795   N854    1.285   .     S
O798   S811    1.500   .     D
O799   S985    1.680   .     S
O801   S812    1.504   .     D
O802   S812    1.678   .     S
O810   S811    1.504   .     D
S812   C951    1.778   .     S
S812   O974    1.503   .     S
C813   C834    1.456   .     S
C813   O862    1.297   .     A
C813   O855    1.300   .     A
C814   C816    1.468   .     S
C814   O867    1.300   .     A
C814   O865    1.306   .     A
C815   C821    1.399   .     A
C815   C819    1.398   .     A
C815   C836    1.468   .     S
C816   C820    1.398   .     A
C816   C822    1.400   .     A
C817   C826    1.405   .     A
C817   C819    1.393   .     A
C818   C820    1.392   .     A
C818   C827    1.404   .     A
C818   H735    1.084   1_655 S
C819   H849    1.083   .     S
C820   H848    1.083   .     S
C821   C823    1.406   .     A
C821   H847    1.075   .     S
C822   H846    1.075   .     S
C822   C825    1.405   .     A
C823   C826    1.418   .     A
C823   C828    1.429   .     A
C824   C835    1.459   .     S
C824   O861    1.304   .     A
C824   O863    1.294   .     A
C825   C829    1.428   .     A
C825   C827    1.417   .     A
C826   C310    1.390   1_556 S
C828   C831    1.417   .     A
C828   C307    1.425   1_556 S
C829   C830    1.417   .     A
C830   C832    1.387   .     A
C830   H852    1.076   .     S
C831   H840    1.076   .     S
C831   C833    1.387   .     A
C832   H839    1.084   .     S
C833   H729    1.085   1_655 S
C833   C305    1.389   1_556 S
C834   C1009   1.332   .     S
C834   S1043   1.767   .     S
C836   O864    1.305   .     A
C836   O866    1.299   .     A
Cu837  N854    2.030   .     S
Cu837  O863    1.934   .     S
Cu837  O855    1.939   .     S
Cu837  O864    1.942   .     S
Cu837  Cu838   2.701   .     S
Cu837  O867    1.922   .     S
Cu838  O862    1.934   .     S
Cu838  O866    1.922   .     S
Cu838  O865    1.942   .     S
Cu838  O861    1.939   .     S
Cu838  N853    2.030   .     S
H841   N853    1.029   .     S
H842   N854    1.025   .     S
H843   O857    0.990   .     S
H844   O860    0.991   .     S
H850   C701    1.084   1_655 S
N853   N738    1.285   1_655 S
O856   S869    1.500   .     D
O857   S1043   1.680   .     S
O859   S870    1.504   .     D
O860   S870    1.678   .     S
O868   S869    1.504   .     D
S870   C1009   1.778   .     S
S870   O1032   1.503   .     S
C871   C892    1.456   .     S
C871   O920    1.297   .     A
C871   O913    1.300   .     A
C872   C874    1.468   .     S
C872   O925    1.300   .     A
C872   O923    1.306   .     A
C873   C879    1.399   .     A
C873   C877    1.398   .     A
C873   C894    1.468   .     S
C874   C878    1.398   .     A
C874   C880    1.400   .     A
C875   C884    1.405   .     A
C875   C877    1.393   .     A
C875   H1024   1.084   1_455 S
C876   C878    1.392   .     A
C876   C885    1.404   .     A
C876   H967    1.084   .     S
C877   H907    1.083   .     S
C878   H906    1.083   .     S
C879   C881    1.406   .     A
C879   H905    1.075   .     S
C880   H904    1.075   .     S
C880   C883    1.405   .     A
C881   C884    1.418   .     A
C881   C886    1.429   .     A
C882   C893    1.459   .     S
C882   O919    1.304   .     A
C882   O921    1.294   .     A
C883   C887    1.428   .     A
C883   C885    1.417   .     A
C884   C368    1.390   1_556 S
C886   C889    1.417   .     A
C886   C365    1.425   1_556 S
C887   C888    1.417   .     A
C888   C890    1.387   .     A
C888   H910    1.076   .     S
C889   H898    1.076   .     S
C889   C891    1.387   .     A
C890   H897    1.084   .     S
C891   H961    1.085   .     S
C891   C363    1.389   1_556 S
C892   C545    1.332   1_565 S
C892   S579    1.767   1_565 S
C894   O922    1.305   .     A
C894   O924    1.299   .     A
Cu895  N912    2.030   .     S
Cu895  O921    1.934   .     S
Cu895  O913    1.939   .     S
Cu895  O922    1.942   .     S
Cu895  Cu896   2.701   .     S
Cu895  O925    1.922   .     S
Cu896  O920    1.934   .     S
Cu896  O924    1.922   .     S
Cu896  O923    1.942   .     S
Cu896  O919    1.939   .     S
Cu896  N911    2.030   .     S
H899   N911    1.029   .     S
H900   N912    1.025   .     S
H901   O915    0.990   .     S
H902   O918    0.991   .     S
H903   C1007   1.085   1_455 S
H908   C933    1.084   .     S
H909   C992    1.084   1_455 S
N911   N970    1.285   .     S
N912   N1027   1.285   1_455 S
O914   S927    1.500   .     D
O915   S579    1.680   1_565 S
O917   S928    1.504   .     D
O918   S928    1.678   .     S
O926   S927    1.504   .     D
S928   C545    1.778   1_565 S
S928   O568    1.503   1_565 S
C929   C950    1.456   .     S
C929   O978    1.297   .     A
C929   O971    1.300   .     A
C930   C932    1.468   .     S
C930   O983    1.300   .     A
C930   O981    1.306   .     A
C931   C937    1.399   .     A
C931   C935    1.398   .     A
C931   C952    1.468   .     S
C932   C936    1.398   .     A
C932   C938    1.400   .     A
C933   C942    1.405   .     A
C933   C935    1.393   .     A
C934   C936    1.392   .     A
C934   C943    1.404   .     A
C934   H1025   1.084   .     S
C935   H965    1.083   .     S
C936   H964    1.083   .     S
C937   C939    1.406   .     A
C937   H963    1.075   .     S
C938   H962    1.075   .     S
C938   C941    1.405   .     A
C939   C942    1.418   .     A
C939   C944    1.429   .     A
C940   C951    1.459   .     S
C940   O977    1.304   .     A
C940   O979    1.294   .     A
C941   C945    1.428   .     A
C941   C943    1.417   .     A
C942   C426    1.390   1_556 S
C944   C947    1.417   .     A
C944   C423    1.425   1_556 S
C945   C946    1.417   .     A
C946   C948    1.387   .     A
C946   H968    1.076   .     S
C947   H956    1.076   .     S
C947   C949    1.387   .     A
C948   H955    1.084   .     S
C949   H1019   1.085   .     S
C949   C421    1.389   1_556 S
C950   C603    1.332   1_565 S
C950   S637    1.767   1_565 S
C952   O980    1.305   .     A
C952   O982    1.299   .     A
Cu953  N970    2.030   .     S
Cu953  O979    1.934   .     S
Cu953  O971    1.939   .     S
Cu953  O980    1.942   .     S
Cu953  Cu954   2.701   .     S
Cu953  O983    1.922   .     S
Cu954  O978    1.934   .     S
Cu954  O982    1.922   .     S
Cu954  O981    1.942   .     S
Cu954  O977    1.939   .     S
Cu954  N969    2.030   .     S
H957   N969    1.029   .     S
H958   N970    1.025   .     S
H959   O973    0.990   .     S
H960   O976    0.991   .     S
H966   C991    1.084   .     S
N969   N1028   1.285   .     S
O972   S985    1.500   .     D
O973   S637    1.680   1_565 S
O975   S986    1.504   .     D
O976   S986    1.678   .     S
O984   S985    1.504   .     D
S986   C603    1.778   1_565 S
S986   O626    1.503   1_565 S
C987   C1008   1.456   .     S
C987   O1036   1.297   .     A
C987   O1029   1.300   .     A
C988   C990    1.468   .     S
C988   O1041   1.300   .     A
C988   O1039   1.306   .     A
C989   C995    1.399   .     A
C989   C993    1.398   .     A
C989   C1010   1.468   .     S
C990   C994    1.398   .     A
C990   C996    1.400   .     A
C991   C1000   1.405   .     A
C991   C993    1.393   .     A
C992   C994    1.392   .     A
C992   C1001   1.404   .     A
C992   H909    1.084   1_655 S
C993   H1023   1.083   .     S
C994   H1022   1.083   .     S
C995   C997    1.406   .     A
C995   H1021   1.075   .     S
C996   H1020   1.075   .     S
C996   C999    1.405   .     A
C997   C1000   1.418   .     A
C997   C1002   1.429   .     A
C998   C1009   1.459   .     S
C998   O1035   1.304   .     A
C998   O1037   1.294   .     A
C999   C1003   1.428   .     A
C999   C1001   1.417   .     A
C1000  C484    1.390   1_556 S
C1002  C1005   1.417   .     A
C1002  C481    1.425   1_556 S
C1003  C1004   1.417   .     A
C1004  C1006   1.387   .     A
C1004  H1026   1.076   .     S
C1005  H1014   1.076   .     S
C1005  C1007   1.387   .     A
C1006  H1013   1.084   .     S
C1007  H903    1.085   1_655 S
C1007  C479    1.389   1_556 S
C1008  C661    1.332   1_565 S
C1008  S695    1.767   1_565 S
C1010  O1038   1.305   .     A
C1010  O1040   1.299   .     A
Cu1011 N1028   2.030   .     S
Cu1011 O1037   1.934   .     S
Cu1011 O1029   1.939   .     S
Cu1011 O1038   1.942   .     S
Cu1011 Cu1012  2.701   .     S
Cu1011 O1041   1.922   .     S
Cu1012 O1036   1.934   .     S
Cu1012 O1040   1.922   .     S
Cu1012 O1039   1.942   .     S
Cu1012 O1035   1.939   .     S
Cu1012 N1027   2.030   .     S
H1015  N1027   1.029   .     S
H1016  N1028   1.025   .     S
H1017  O1031   0.990   .     S
H1018  O1034   0.991   .     S
H1024  C875    1.084   1_655 S
N1027  N912    1.285   1_655 S
O1030  S1043   1.500   .     D
O1031  S695    1.680   1_565 S
O1033  S1044   1.504   .     D
O1034  S1044   1.678   .     S
O1042  S1043   1.504   .     D
S1044  C661    1.778   1_565 S
S1044  O684    1.503   1_565 S
