data_str_m2_o2_o10_pcu_sym.231
_audit_creation_date              2020-01-03
_audit_creation_method            'Materials Studio'
_symmetry_space_group_name_H-M    'P1'
_symmetry_Int_Tables_number       1
_symmetry_cell_setting            triclinic
loop_
_symmetry_equiv_pos_as_xyz
  x,y,z
_cell_length_a                    26.6917
_cell_length_b                    30.0389
_cell_length_c                    27.9927
_cell_angle_alpha                 91.8751
_cell_angle_beta                  97.9906
_cell_angle_gamma                 93.2014
loop_
_atom_site_label
_atom_site_type_symbol
_atom_site_fract_x
_atom_site_fract_y
_atom_site_fract_z
_atom_site_U_iso_or_equiv
_atom_site_adp_type
_atom_site_occupancy
C1     C     0.17151   0.16488   0.24969   0.00000  Uiso   1.00
C2     C     0.16174   0.33509   0.25026   0.00000  Uiso   1.00
C3     C     0.19916   0.27926   0.05899   0.00000  Uiso   1.00
C4     C     0.13973   0.21727   0.44189   0.00000  Uiso   1.00
C5     C     0.19743   0.28074   0.10897   0.00000  Uiso   1.00
C6     C     0.13888   0.21735   0.39157   0.00000  Uiso   1.00
C7     C     0.13394   0.22143   0.09873   0.00000  Uiso   1.00
C8     C     0.19689   0.28078   0.40077   0.00000  Uiso   1.00
C9     C     0.13322   0.22161   0.04849   0.00000  Uiso   1.00
C10    C     0.19584   0.28237   0.45081   0.00000  Uiso   1.00
C11    C     0.16682   0.25003   0.02723   0.00000  Uiso   1.00
C12    C     0.16709   0.25032   0.47284   0.00000  Uiso   1.00
C13    C     0.06827   0.25049   0.23778   0.00000  Uiso   1.00
C14    C     0.26505   0.24942   0.26222   0.00000  Uiso   1.00
C15    C     0.01330   0.24798   0.23089   0.00000  Uiso   1.00
C16    C     0.31999   0.25176   0.26913   0.00000  Uiso   1.00
C17    C     0.19763   0.04819   0.29305   0.00000  Uiso   1.00
C18    C     0.13604   0.45162   0.20625   0.00000  Uiso   1.00
C19    C     0.19885   0.09527   0.29303   0.00000  Uiso   1.00
C20    C     0.13487   0.40457   0.20649   0.00000  Uiso   1.00
C21    C     0.18326   0.11640   0.24899   0.00000  Uiso   1.00
C22    C     0.15000   0.38356   0.25071   0.00000  Uiso   1.00
C23    C     0.18347   0.09034   0.20505   0.00000  Uiso   1.00
C24    C     0.14947   0.40977   0.29447   0.00000  Uiso   1.00
C25    C     0.18837   0.04376   0.20747   0.00000  Uiso   1.00
C26    C     0.14510   0.45641   0.29175   0.00000  Uiso   1.00
C27    C     0.17854   0.02351   0.24999   0.00000  Uiso   1.00
C28    C     0.15505   0.47644   0.24922   0.00000  Uiso   1.00
Cu29   Cu    0.16667   0.24999   0.29821   0.00000  Uiso   1.00
Cu30   Cu    0.16667   0.25000   0.20178   0.00000  Uiso   1.00
H31    H     0.22583   0.30233   0.04572   0.00000  Uiso   1.00
H32    H     0.11887   0.19029   0.45621   0.00000  Uiso   1.00
H33    H     0.10492   0.19973   0.02695   0.00000  Uiso   1.00
H34    H     0.21909   0.30859   0.47154   0.00000  Uiso   1.00
N35    N     0.16667   0.25001   0.12934   0.00000  Uiso   1.00
N36    N     0.16667   0.24999   0.37065   0.00000  Uiso   1.00
O37    O     0.16667   0.18572   0.29071   0.00000  Uiso   1.00
O38    O     0.16666   0.31427   0.20928   0.00000  Uiso   1.00
O39    O     0.16667   0.18573   0.20928   0.00000  Uiso   1.00
O40    O     0.16666   0.31427   0.29072   0.00000  Uiso   1.00
O41    O     0.09161   0.24999   0.28132   0.00000  Uiso   1.00
O42    O     0.24172   0.25000   0.21868   0.00000  Uiso   1.00
O43    O     0.09161   0.25000   0.19988   0.00000  Uiso   1.00
O44    O     0.24172   0.25000   0.30011   0.00000  Uiso   1.00
C45    C     0.32294   0.23654   0.18040   0.00000  Uiso   1.00
O46    O     0.32900   0.26224   0.14842   0.00000  Uiso   1.00
O47    O     0.29642   0.19537   0.16915   0.00000  Uiso   1.00
H48    H     0.28429   0.19097   0.13325   0.00000  Uiso   1.00
C49    C     0.01024   0.26313   0.31966   0.00000  Uiso   1.00
O50    O     0.00461   0.23716   0.35149   0.00000  Uiso   1.00
O51    O     0.03589   0.30462   0.33116   0.00000  Uiso   1.00
H52    H     0.04775   0.30901   0.36711   0.00000  Uiso   1.00
I53    I     0.24284   0.01587   0.34987   0.00000  Uiso   1.00
I54    I     0.09114   0.48362   0.14898   0.00000  Uiso   1.00
C55    C     0.22133   0.12155   0.33744   0.00000  Uiso   1.00
O56    O     0.20978   0.11170   0.37668   0.00000  Uiso   1.00
O57    O     0.25676   0.15704   0.33449   0.00000  Uiso   1.00
H58    H     0.26913   0.17238   0.36713   0.00000  Uiso   1.00
C59    C     0.11297   0.37818   0.16196   0.00000  Uiso   1.00
O60    O     0.12560   0.38762   0.12301   0.00000  Uiso   1.00
O61    O     0.07698   0.34304   0.16448   0.00000  Uiso   1.00
H62    H     0.06509   0.32755   0.13183   0.00000  Uiso   1.00
C63    C     0.17955   0.10967   0.15687   0.00000  Uiso   1.00
O64    O     0.20989   0.13937   0.14873   0.00000  Uiso   1.00
O65    O     0.14353   0.09098   0.11950   0.00000  Uiso   1.00
H66    H     0.14667   0.10470   0.08735   0.00000  Uiso   1.00
C67    C     0.15162   0.39042   0.34258   0.00000  Uiso   1.00
O68    O     0.12110   0.36045   0.34958   0.00000  Uiso   1.00
O69    O     0.18620   0.40922   0.38105   0.00000  Uiso   1.00
H70    H     0.18200   0.39524   0.41285   0.00000  Uiso   1.00
C71    C     0.21427   0.01798   0.17198   0.00000  Uiso   1.00
O72    O     0.23478   0.48394   0.18434   0.00000  Uiso   1.00
O73    O     0.21744   0.03288   0.12564   0.00000  Uiso   1.00
H74    H     0.23642   0.01236   0.10603   0.00000  Uiso   1.00
C75    C     0.11886   0.48263   0.32646   0.00000  Uiso   1.00
O76    O     0.11753   0.47110   0.36774   0.00000  Uiso   1.00
O77    O     0.09358   0.02018   0.31063   0.00000  Uiso   1.00
H78    H     0.07590   0.03444   0.33647   0.00000  Uiso   1.00
C79    C     0.22566   0.32039   0.13533   0.00000  Uiso   1.00
O80    O     0.25323   0.31739   0.17337   0.00000  Uiso   1.00
O81    O     0.22332   0.36179   0.11389   0.00000  Uiso   1.00
H82    H     0.24439   0.38645   0.13433   0.00000  Uiso   1.00
C83    C     0.10975   0.17840   0.36476   0.00000  Uiso   1.00
O84    O     0.08091   0.18269   0.32776   0.00000  Uiso   1.00
O85    O     0.11240   0.13634   0.38462   0.00000  Uiso   1.00
H86    H     0.09007   0.11251   0.36414   0.00000  Uiso   1.00
I87    I     0.07765   0.17759   0.12135   0.00000  Uiso   1.00
I88    I     0.25362   0.32416   0.37805   0.00000  Uiso   1.00
C89    C     0.50484   0.16488   0.24969   0.00000  Uiso   1.00
C90    C     0.49508   0.33509   0.25026   0.00000  Uiso   1.00
C91    C     0.53249   0.27926   0.05899   0.00000  Uiso   1.00
C92    C     0.47306   0.21727   0.44189   0.00000  Uiso   1.00
C93    C     0.53076   0.28074   0.10897   0.00000  Uiso   1.00
C94    C     0.47221   0.21735   0.39157   0.00000  Uiso   1.00
C95    C     0.46728   0.22143   0.09873   0.00000  Uiso   1.00
C96    C     0.53022   0.28078   0.40077   0.00000  Uiso   1.00
C97    C     0.46656   0.22161   0.04849   0.00000  Uiso   1.00
C98    C     0.52917   0.28237   0.45081   0.00000  Uiso   1.00
C99    C     0.50015   0.25003   0.02723   0.00000  Uiso   1.00
C100   C     0.50042   0.25032   0.47284   0.00000  Uiso   1.00
C101   C     0.40160   0.25049   0.23778   0.00000  Uiso   1.00
C102   C     0.59838   0.24942   0.26222   0.00000  Uiso   1.00
C103   C     0.34664   0.24798   0.23089   0.00000  Uiso   1.00
C104   C     0.65332   0.25176   0.26913   0.00000  Uiso   1.00
C105   C     0.53096   0.04819   0.29305   0.00000  Uiso   1.00
C106   C     0.46937   0.45162   0.20625   0.00000  Uiso   1.00
C107   C     0.53218   0.09527   0.29303   0.00000  Uiso   1.00
C108   C     0.46820   0.40457   0.20649   0.00000  Uiso   1.00
C109   C     0.51660   0.11640   0.24899   0.00000  Uiso   1.00
C110   C     0.48334   0.38356   0.25071   0.00000  Uiso   1.00
C111   C     0.51680   0.09034   0.20505   0.00000  Uiso   1.00
C112   C     0.48281   0.40977   0.29447   0.00000  Uiso   1.00
C113   C     0.52170   0.04376   0.20747   0.00000  Uiso   1.00
C114   C     0.47843   0.45641   0.29175   0.00000  Uiso   1.00
C115   C     0.51187   0.02351   0.24999   0.00000  Uiso   1.00
C116   C     0.48839   0.47644   0.24922   0.00000  Uiso   1.00
Cu117  Cu    0.50000   0.24999   0.29821   0.00000  Uiso   1.00
Cu118  Cu    0.50000   0.25000   0.20178   0.00000  Uiso   1.00
H119   H     0.55916   0.30233   0.04572   0.00000  Uiso   1.00
H120   H     0.45220   0.19029   0.45621   0.00000  Uiso   1.00
H121   H     0.43825   0.19973   0.02695   0.00000  Uiso   1.00
H122   H     0.55243   0.30859   0.47154   0.00000  Uiso   1.00
N123   N     0.50000   0.25001   0.12934   0.00000  Uiso   1.00
N124   N     0.50000   0.24999   0.37065   0.00000  Uiso   1.00
O125   O     0.50000   0.18572   0.29071   0.00000  Uiso   1.00
O126   O     0.50000   0.31427   0.20928   0.00000  Uiso   1.00
O127   O     0.50000   0.18573   0.20928   0.00000  Uiso   1.00
O128   O     0.50000   0.31427   0.29072   0.00000  Uiso   1.00
O129   O     0.42495   0.24999   0.28132   0.00000  Uiso   1.00
O130   O     0.57505   0.25000   0.21868   0.00000  Uiso   1.00
O131   O     0.42495   0.25000   0.19988   0.00000  Uiso   1.00
O132   O     0.57505   0.25000   0.30011   0.00000  Uiso   1.00
C133   C     0.65628   0.23654   0.18040   0.00000  Uiso   1.00
O134   O     0.66233   0.26224   0.14842   0.00000  Uiso   1.00
O135   O     0.62975   0.19537   0.16915   0.00000  Uiso   1.00
H136   H     0.61762   0.19097   0.13325   0.00000  Uiso   1.00
C137   C     0.34357   0.26313   0.31966   0.00000  Uiso   1.00
O138   O     0.33795   0.23716   0.35149   0.00000  Uiso   1.00
O139   O     0.36923   0.30462   0.33116   0.00000  Uiso   1.00
H140   H     0.38108   0.30901   0.36711   0.00000  Uiso   1.00
I141   I     0.57617   0.01587   0.34987   0.00000  Uiso   1.00
I142   I     0.42448   0.48362   0.14898   0.00000  Uiso   1.00
C143   C     0.55466   0.12155   0.33744   0.00000  Uiso   1.00
O144   O     0.54311   0.11170   0.37668   0.00000  Uiso   1.00
O145   O     0.59009   0.15704   0.33449   0.00000  Uiso   1.00
H146   H     0.60246   0.17238   0.36713   0.00000  Uiso   1.00
C147   C     0.44631   0.37818   0.16196   0.00000  Uiso   1.00
O148   O     0.45894   0.38762   0.12301   0.00000  Uiso   1.00
O149   O     0.41031   0.34304   0.16448   0.00000  Uiso   1.00
H150   H     0.39843   0.32755   0.13183   0.00000  Uiso   1.00
C151   C     0.51289   0.10967   0.15687   0.00000  Uiso   1.00
O152   O     0.54322   0.13937   0.14873   0.00000  Uiso   1.00
O153   O     0.47686   0.09098   0.11950   0.00000  Uiso   1.00
H154   H     0.48000   0.10470   0.08735   0.00000  Uiso   1.00
C155   C     0.48495   0.39042   0.34258   0.00000  Uiso   1.00
O156   O     0.45443   0.36045   0.34958   0.00000  Uiso   1.00
O157   O     0.51953   0.40922   0.38105   0.00000  Uiso   1.00
H158   H     0.51533   0.39524   0.41285   0.00000  Uiso   1.00
C159   C     0.54761   0.01798   0.17198   0.00000  Uiso   1.00
O160   O     0.56811   0.48394   0.18434   0.00000  Uiso   1.00
O161   O     0.55078   0.03288   0.12564   0.00000  Uiso   1.00
H162   H     0.56976   0.01236   0.10603   0.00000  Uiso   1.00
C163   C     0.45220   0.48263   0.32646   0.00000  Uiso   1.00
O164   O     0.45086   0.47110   0.36774   0.00000  Uiso   1.00
O165   O     0.42692   0.02018   0.31063   0.00000  Uiso   1.00
H166   H     0.40924   0.03444   0.33647   0.00000  Uiso   1.00
C167   C     0.55900   0.32039   0.13533   0.00000  Uiso   1.00
O168   O     0.58657   0.31739   0.17337   0.00000  Uiso   1.00
O169   O     0.55665   0.36179   0.11389   0.00000  Uiso   1.00
H170   H     0.57773   0.38645   0.13433   0.00000  Uiso   1.00
C171   C     0.44308   0.17840   0.36476   0.00000  Uiso   1.00
O172   O     0.41424   0.18269   0.32776   0.00000  Uiso   1.00
O173   O     0.44573   0.13634   0.38462   0.00000  Uiso   1.00
H174   H     0.42340   0.11251   0.36414   0.00000  Uiso   1.00
I175   I     0.41099   0.17759   0.12135   0.00000  Uiso   1.00
I176   I     0.58695   0.32416   0.37805   0.00000  Uiso   1.00
C177   C     0.83817   0.16488   0.24969   0.00000  Uiso   1.00
C178   C     0.82841   0.33509   0.25026   0.00000  Uiso   1.00
C179   C     0.86582   0.27926   0.05899   0.00000  Uiso   1.00
C180   C     0.80639   0.21727   0.44189   0.00000  Uiso   1.00
C181   C     0.86409   0.28074   0.10897   0.00000  Uiso   1.00
C182   C     0.80554   0.21735   0.39157   0.00000  Uiso   1.00
C183   C     0.80061   0.22143   0.09873   0.00000  Uiso   1.00
C184   C     0.86356   0.28078   0.40077   0.00000  Uiso   1.00
C185   C     0.79989   0.22161   0.04849   0.00000  Uiso   1.00
C186   C     0.86250   0.28237   0.45081   0.00000  Uiso   1.00
C187   C     0.83349   0.25003   0.02723   0.00000  Uiso   1.00
C188   C     0.83376   0.25032   0.47284   0.00000  Uiso   1.00
C189   C     0.73494   0.25049   0.23778   0.00000  Uiso   1.00
C190   C     0.93171   0.24942   0.26222   0.00000  Uiso   1.00
C191   C     0.67997   0.24798   0.23089   0.00000  Uiso   1.00
C192   C     0.98665   0.25176   0.26913   0.00000  Uiso   1.00
C193   C     0.86430   0.04819   0.29305   0.00000  Uiso   1.00
C194   C     0.80271   0.45162   0.20625   0.00000  Uiso   1.00
C195   C     0.86551   0.09527   0.29303   0.00000  Uiso   1.00
C196   C     0.80153   0.40457   0.20649   0.00000  Uiso   1.00
C197   C     0.84993   0.11640   0.24899   0.00000  Uiso   1.00
C198   C     0.81667   0.38356   0.25071   0.00000  Uiso   1.00
C199   C     0.85013   0.09034   0.20505   0.00000  Uiso   1.00
C200   C     0.81614   0.40977   0.29447   0.00000  Uiso   1.00
C201   C     0.85503   0.04376   0.20747   0.00000  Uiso   1.00
C202   C     0.81176   0.45641   0.29175   0.00000  Uiso   1.00
C203   C     0.84521   0.02351   0.24999   0.00000  Uiso   1.00
C204   C     0.82172   0.47644   0.24922   0.00000  Uiso   1.00
Cu205  Cu    0.83333   0.24999   0.29821   0.00000  Uiso   1.00
Cu206  Cu    0.83333   0.25000   0.20178   0.00000  Uiso   1.00
H207   H     0.89249   0.30233   0.04572   0.00000  Uiso   1.00
H208   H     0.78554   0.19029   0.45621   0.00000  Uiso   1.00
H209   H     0.77158   0.19973   0.02695   0.00000  Uiso   1.00
H210   H     0.88576   0.30859   0.47154   0.00000  Uiso   1.00
N211   N     0.83333   0.25001   0.12934   0.00000  Uiso   1.00
N212   N     0.83333   0.24999   0.37065   0.00000  Uiso   1.00
O213   O     0.83334   0.18572   0.29071   0.00000  Uiso   1.00
O214   O     0.83333   0.31427   0.20928   0.00000  Uiso   1.00
O215   O     0.83334   0.18573   0.20928   0.00000  Uiso   1.00
O216   O     0.83333   0.31427   0.29072   0.00000  Uiso   1.00
O217   O     0.75828   0.24999   0.28132   0.00000  Uiso   1.00
O218   O     0.90839   0.25000   0.21868   0.00000  Uiso   1.00
O219   O     0.75828   0.25000   0.19988   0.00000  Uiso   1.00
O220   O     0.90839   0.25000   0.30011   0.00000  Uiso   1.00
C221   C     0.98961   0.23654   0.18040   0.00000  Uiso   1.00
O222   O     0.99566   0.26224   0.14842   0.00000  Uiso   1.00
O223   O     0.96309   0.19537   0.16915   0.00000  Uiso   1.00
H224   H     0.95096   0.19097   0.13325   0.00000  Uiso   1.00
C225   C     0.67691   0.26313   0.31966   0.00000  Uiso   1.00
O226   O     0.67128   0.23716   0.35149   0.00000  Uiso   1.00
O227   O     0.70256   0.30462   0.33116   0.00000  Uiso   1.00
H228   H     0.71442   0.30901   0.36711   0.00000  Uiso   1.00
I229   I     0.90951   0.01587   0.34987   0.00000  Uiso   1.00
I230   I     0.75781   0.48362   0.14898   0.00000  Uiso   1.00
C231   C     0.88799   0.12155   0.33744   0.00000  Uiso   1.00
O232   O     0.87644   0.11170   0.37668   0.00000  Uiso   1.00
O233   O     0.92342   0.15704   0.33449   0.00000  Uiso   1.00
H234   H     0.93579   0.17238   0.36713   0.00000  Uiso   1.00
C235   C     0.77964   0.37818   0.16196   0.00000  Uiso   1.00
O236   O     0.79227   0.38762   0.12301   0.00000  Uiso   1.00
O237   O     0.74365   0.34304   0.16448   0.00000  Uiso   1.00
H238   H     0.73176   0.32755   0.13183   0.00000  Uiso   1.00
C239   C     0.84622   0.10967   0.15687   0.00000  Uiso   1.00
O240   O     0.87655   0.13937   0.14873   0.00000  Uiso   1.00
O241   O     0.81019   0.09098   0.11950   0.00000  Uiso   1.00
H242   H     0.81333   0.10470   0.08735   0.00000  Uiso   1.00
C243   C     0.81828   0.39042   0.34258   0.00000  Uiso   1.00
O244   O     0.78777   0.36045   0.34958   0.00000  Uiso   1.00
O245   O     0.85287   0.40922   0.38105   0.00000  Uiso   1.00
H246   H     0.84866   0.39524   0.41285   0.00000  Uiso   1.00
C247   C     0.88094   0.01798   0.17198   0.00000  Uiso   1.00
O248   O     0.90144   0.48394   0.18434   0.00000  Uiso   1.00
O249   O     0.88411   0.03288   0.12564   0.00000  Uiso   1.00
H250   H     0.90309   0.01236   0.10603   0.00000  Uiso   1.00
C251   C     0.78553   0.48263   0.32646   0.00000  Uiso   1.00
O252   O     0.78419   0.47110   0.36774   0.00000  Uiso   1.00
O253   O     0.76025   0.02018   0.31063   0.00000  Uiso   1.00
H254   H     0.74257   0.03444   0.33647   0.00000  Uiso   1.00
C255   C     0.89233   0.32039   0.13533   0.00000  Uiso   1.00
O256   O     0.91990   0.31739   0.17337   0.00000  Uiso   1.00
O257   O     0.88999   0.36179   0.11389   0.00000  Uiso   1.00
H258   H     0.91106   0.38645   0.13433   0.00000  Uiso   1.00
C259   C     0.77641   0.17840   0.36476   0.00000  Uiso   1.00
O260   O     0.74758   0.18269   0.32776   0.00000  Uiso   1.00
O261   O     0.77907   0.13634   0.38462   0.00000  Uiso   1.00
H262   H     0.75673   0.11251   0.36414   0.00000  Uiso   1.00
I263   I     0.74432   0.17759   0.12135   0.00000  Uiso   1.00
I264   I     0.92029   0.32416   0.37805   0.00000  Uiso   1.00
C265   C     0.17151   0.66488   0.24969   0.00000  Uiso   1.00
C266   C     0.16174   0.83509   0.25026   0.00000  Uiso   1.00
C267   C     0.19916   0.77926   0.05899   0.00000  Uiso   1.00
C268   C     0.13973   0.71727   0.44189   0.00000  Uiso   1.00
C269   C     0.19743   0.78074   0.10897   0.00000  Uiso   1.00
C270   C     0.13888   0.71735   0.39157   0.00000  Uiso   1.00
C271   C     0.13394   0.72143   0.09873   0.00000  Uiso   1.00
C272   C     0.19689   0.78078   0.40077   0.00000  Uiso   1.00
C273   C     0.13322   0.72161   0.04849   0.00000  Uiso   1.00
C274   C     0.19584   0.78237   0.45081   0.00000  Uiso   1.00
C275   C     0.16682   0.75003   0.02723   0.00000  Uiso   1.00
C276   C     0.16709   0.75032   0.47284   0.00000  Uiso   1.00
C277   C     0.06827   0.75049   0.23778   0.00000  Uiso   1.00
C278   C     0.26505   0.74942   0.26222   0.00000  Uiso   1.00
C279   C     0.01330   0.74798   0.23089   0.00000  Uiso   1.00
C280   C     0.31999   0.75176   0.26913   0.00000  Uiso   1.00
C281   C     0.19763   0.54819   0.29305   0.00000  Uiso   1.00
C282   C     0.13604   0.95162   0.20625   0.00000  Uiso   1.00
C283   C     0.19885   0.59527   0.29303   0.00000  Uiso   1.00
C284   C     0.13487   0.90457   0.20649   0.00000  Uiso   1.00
C285   C     0.18326   0.61640   0.24899   0.00000  Uiso   1.00
C286   C     0.15000   0.88356   0.25071   0.00000  Uiso   1.00
C287   C     0.18347   0.59034   0.20505   0.00000  Uiso   1.00
C288   C     0.14947   0.90977   0.29447   0.00000  Uiso   1.00
C289   C     0.18837   0.54376   0.20747   0.00000  Uiso   1.00
C290   C     0.14510   0.95641   0.29175   0.00000  Uiso   1.00
C291   C     0.17854   0.52351   0.24999   0.00000  Uiso   1.00
C292   C     0.15505   0.97644   0.24922   0.00000  Uiso   1.00
Cu293  Cu    0.16667   0.74999   0.29821   0.00000  Uiso   1.00
Cu294  Cu    0.16667   0.75000   0.20178   0.00000  Uiso   1.00
H295   H     0.22583   0.80233   0.04572   0.00000  Uiso   1.00
H296   H     0.11887   0.69029   0.45621   0.00000  Uiso   1.00
H297   H     0.10492   0.69973   0.02695   0.00000  Uiso   1.00
H298   H     0.21909   0.80859   0.47154   0.00000  Uiso   1.00
N299   N     0.16667   0.75001   0.12934   0.00000  Uiso   1.00
N300   N     0.16667   0.74999   0.37065   0.00000  Uiso   1.00
O301   O     0.16667   0.68572   0.29071   0.00000  Uiso   1.00
O302   O     0.16666   0.81427   0.20928   0.00000  Uiso   1.00
O303   O     0.16667   0.68573   0.20928   0.00000  Uiso   1.00
O304   O     0.16666   0.81427   0.29072   0.00000  Uiso   1.00
O305   O     0.09161   0.74999   0.28132   0.00000  Uiso   1.00
O306   O     0.24172   0.75000   0.21868   0.00000  Uiso   1.00
O307   O     0.09161   0.75000   0.19988   0.00000  Uiso   1.00
O308   O     0.24172   0.75000   0.30011   0.00000  Uiso   1.00
C309   C     0.32294   0.73654   0.18040   0.00000  Uiso   1.00
O310   O     0.32900   0.76224   0.14842   0.00000  Uiso   1.00
O311   O     0.29642   0.69537   0.16915   0.00000  Uiso   1.00
H312   H     0.28429   0.69097   0.13325   0.00000  Uiso   1.00
C313   C     0.01024   0.76313   0.31966   0.00000  Uiso   1.00
O314   O     0.00461   0.73716   0.35149   0.00000  Uiso   1.00
O315   O     0.03589   0.80462   0.33116   0.00000  Uiso   1.00
H316   H     0.04775   0.80901   0.36711   0.00000  Uiso   1.00
I317   I     0.24284   0.51587   0.34987   0.00000  Uiso   1.00
I318   I     0.09114   0.98362   0.14898   0.00000  Uiso   1.00
C319   C     0.22133   0.62155   0.33744   0.00000  Uiso   1.00
O320   O     0.20978   0.61170   0.37668   0.00000  Uiso   1.00
O321   O     0.25676   0.65704   0.33449   0.00000  Uiso   1.00
H322   H     0.26913   0.67238   0.36713   0.00000  Uiso   1.00
C323   C     0.11297   0.87818   0.16196   0.00000  Uiso   1.00
O324   O     0.12560   0.88762   0.12301   0.00000  Uiso   1.00
O325   O     0.07698   0.84304   0.16448   0.00000  Uiso   1.00
H326   H     0.06509   0.82755   0.13183   0.00000  Uiso   1.00
C327   C     0.17955   0.60967   0.15687   0.00000  Uiso   1.00
O328   O     0.20989   0.63937   0.14873   0.00000  Uiso   1.00
O329   O     0.14353   0.59098   0.11950   0.00000  Uiso   1.00
H330   H     0.14667   0.60470   0.08735   0.00000  Uiso   1.00
C331   C     0.15162   0.89042   0.34258   0.00000  Uiso   1.00
O332   O     0.12110   0.86045   0.34958   0.00000  Uiso   1.00
O333   O     0.18620   0.90922   0.38105   0.00000  Uiso   1.00
H334   H     0.18200   0.89524   0.41285   0.00000  Uiso   1.00
C335   C     0.21427   0.51798   0.17198   0.00000  Uiso   1.00
O336   O     0.23478   0.98394   0.18434   0.00000  Uiso   1.00
O337   O     0.21744   0.53288   0.12564   0.00000  Uiso   1.00
H338   H     0.23642   0.51236   0.10603   0.00000  Uiso   1.00
C339   C     0.11886   0.98263   0.32646   0.00000  Uiso   1.00
O340   O     0.11753   0.97110   0.36774   0.00000  Uiso   1.00
O341   O     0.09358   0.52018   0.31063   0.00000  Uiso   1.00
H342   H     0.07590   0.53444   0.33647   0.00000  Uiso   1.00
C343   C     0.22566   0.82039   0.13533   0.00000  Uiso   1.00
O344   O     0.25323   0.81739   0.17337   0.00000  Uiso   1.00
O345   O     0.22332   0.86179   0.11389   0.00000  Uiso   1.00
H346   H     0.24439   0.88645   0.13433   0.00000  Uiso   1.00
C347   C     0.10975   0.67840   0.36476   0.00000  Uiso   1.00
O348   O     0.08091   0.68269   0.32776   0.00000  Uiso   1.00
O349   O     0.11240   0.63634   0.38462   0.00000  Uiso   1.00
H350   H     0.09007   0.61251   0.36414   0.00000  Uiso   1.00
I351   I     0.07765   0.67759   0.12135   0.00000  Uiso   1.00
I352   I     0.25362   0.82416   0.37805   0.00000  Uiso   1.00
C353   C     0.50484   0.66488   0.24969   0.00000  Uiso   1.00
C354   C     0.49508   0.83509   0.25026   0.00000  Uiso   1.00
C355   C     0.53249   0.77926   0.05899   0.00000  Uiso   1.00
C356   C     0.47306   0.71727   0.44189   0.00000  Uiso   1.00
C357   C     0.53076   0.78074   0.10897   0.00000  Uiso   1.00
C358   C     0.47221   0.71735   0.39157   0.00000  Uiso   1.00
C359   C     0.46728   0.72143   0.09873   0.00000  Uiso   1.00
C360   C     0.53022   0.78078   0.40077   0.00000  Uiso   1.00
C361   C     0.46656   0.72161   0.04849   0.00000  Uiso   1.00
C362   C     0.52917   0.78237   0.45081   0.00000  Uiso   1.00
C363   C     0.50015   0.75003   0.02723   0.00000  Uiso   1.00
C364   C     0.50042   0.75032   0.47284   0.00000  Uiso   1.00
C365   C     0.40160   0.75049   0.23778   0.00000  Uiso   1.00
C366   C     0.59838   0.74942   0.26222   0.00000  Uiso   1.00
C367   C     0.34664   0.74798   0.23089   0.00000  Uiso   1.00
C368   C     0.65332   0.75176   0.26913   0.00000  Uiso   1.00
C369   C     0.53096   0.54819   0.29305   0.00000  Uiso   1.00
C370   C     0.46937   0.95162   0.20625   0.00000  Uiso   1.00
C371   C     0.53218   0.59527   0.29303   0.00000  Uiso   1.00
C372   C     0.46820   0.90457   0.20649   0.00000  Uiso   1.00
C373   C     0.51660   0.61640   0.24899   0.00000  Uiso   1.00
C374   C     0.48334   0.88356   0.25071   0.00000  Uiso   1.00
C375   C     0.51680   0.59034   0.20505   0.00000  Uiso   1.00
C376   C     0.48281   0.90977   0.29447   0.00000  Uiso   1.00
C377   C     0.52170   0.54376   0.20747   0.00000  Uiso   1.00
C378   C     0.47843   0.95641   0.29175   0.00000  Uiso   1.00
C379   C     0.51187   0.52351   0.24999   0.00000  Uiso   1.00
C380   C     0.48839   0.97644   0.24922   0.00000  Uiso   1.00
Cu381  Cu    0.50000   0.74999   0.29821   0.00000  Uiso   1.00
Cu382  Cu    0.50000   0.75000   0.20178   0.00000  Uiso   1.00
H383   H     0.55916   0.80233   0.04572   0.00000  Uiso   1.00
H384   H     0.45220   0.69029   0.45621   0.00000  Uiso   1.00
H385   H     0.43825   0.69973   0.02695   0.00000  Uiso   1.00
H386   H     0.55243   0.80859   0.47154   0.00000  Uiso   1.00
N387   N     0.50000   0.75001   0.12934   0.00000  Uiso   1.00
N388   N     0.50000   0.74999   0.37065   0.00000  Uiso   1.00
O389   O     0.50000   0.68572   0.29071   0.00000  Uiso   1.00
O390   O     0.50000   0.81427   0.20928   0.00000  Uiso   1.00
O391   O     0.50000   0.68573   0.20928   0.00000  Uiso   1.00
O392   O     0.50000   0.81427   0.29072   0.00000  Uiso   1.00
O393   O     0.42495   0.74999   0.28132   0.00000  Uiso   1.00
O394   O     0.57505   0.75000   0.21868   0.00000  Uiso   1.00
O395   O     0.42495   0.75000   0.19988   0.00000  Uiso   1.00
O396   O     0.57505   0.75000   0.30011   0.00000  Uiso   1.00
C397   C     0.65628   0.73654   0.18040   0.00000  Uiso   1.00
O398   O     0.66233   0.76224   0.14842   0.00000  Uiso   1.00
O399   O     0.62975   0.69537   0.16915   0.00000  Uiso   1.00
H400   H     0.61762   0.69097   0.13325   0.00000  Uiso   1.00
C401   C     0.34357   0.76313   0.31966   0.00000  Uiso   1.00
O402   O     0.33795   0.73716   0.35149   0.00000  Uiso   1.00
O403   O     0.36923   0.80462   0.33116   0.00000  Uiso   1.00
H404   H     0.38108   0.80901   0.36711   0.00000  Uiso   1.00
I405   I     0.57617   0.51587   0.34987   0.00000  Uiso   1.00
I406   I     0.42448   0.98362   0.14898   0.00000  Uiso   1.00
C407   C     0.55466   0.62155   0.33744   0.00000  Uiso   1.00
O408   O     0.54311   0.61170   0.37668   0.00000  Uiso   1.00
O409   O     0.59009   0.65704   0.33449   0.00000  Uiso   1.00
H410   H     0.60246   0.67238   0.36713   0.00000  Uiso   1.00
C411   C     0.44631   0.87818   0.16196   0.00000  Uiso   1.00
O412   O     0.45894   0.88762   0.12301   0.00000  Uiso   1.00
O413   O     0.41031   0.84304   0.16448   0.00000  Uiso   1.00
H414   H     0.39843   0.82755   0.13183   0.00000  Uiso   1.00
C415   C     0.51289   0.60967   0.15687   0.00000  Uiso   1.00
O416   O     0.54322   0.63937   0.14873   0.00000  Uiso   1.00
O417   O     0.47686   0.59098   0.11950   0.00000  Uiso   1.00
H418   H     0.48000   0.60470   0.08735   0.00000  Uiso   1.00
C419   C     0.48495   0.89042   0.34258   0.00000  Uiso   1.00
O420   O     0.45443   0.86045   0.34958   0.00000  Uiso   1.00
O421   O     0.51953   0.90922   0.38105   0.00000  Uiso   1.00
H422   H     0.51533   0.89524   0.41285   0.00000  Uiso   1.00
C423   C     0.54761   0.51798   0.17198   0.00000  Uiso   1.00
O424   O     0.56811   0.98394   0.18434   0.00000  Uiso   1.00
O425   O     0.55078   0.53288   0.12564   0.00000  Uiso   1.00
H426   H     0.56976   0.51236   0.10603   0.00000  Uiso   1.00
C427   C     0.45220   0.98263   0.32646   0.00000  Uiso   1.00
O428   O     0.45086   0.97110   0.36774   0.00000  Uiso   1.00
O429   O     0.42692   0.52018   0.31063   0.00000  Uiso   1.00
H430   H     0.40924   0.53444   0.33647   0.00000  Uiso   1.00
C431   C     0.55900   0.82039   0.13533   0.00000  Uiso   1.00
O432   O     0.58657   0.81739   0.17337   0.00000  Uiso   1.00
O433   O     0.55665   0.86179   0.11389   0.00000  Uiso   1.00
H434   H     0.57773   0.88645   0.13433   0.00000  Uiso   1.00
C435   C     0.44308   0.67840   0.36476   0.00000  Uiso   1.00
O436   O     0.41424   0.68269   0.32776   0.00000  Uiso   1.00
O437   O     0.44573   0.63634   0.38462   0.00000  Uiso   1.00
H438   H     0.42340   0.61251   0.36414   0.00000  Uiso   1.00
I439   I     0.41099   0.67759   0.12135   0.00000  Uiso   1.00
I440   I     0.58695   0.82416   0.37805   0.00000  Uiso   1.00
C441   C     0.83817   0.66488   0.24969   0.00000  Uiso   1.00
C442   C     0.82841   0.83509   0.25026   0.00000  Uiso   1.00
C443   C     0.86582   0.77926   0.05899   0.00000  Uiso   1.00
C444   C     0.80639   0.71727   0.44189   0.00000  Uiso   1.00
C445   C     0.86409   0.78074   0.10897   0.00000  Uiso   1.00
C446   C     0.80554   0.71735   0.39157   0.00000  Uiso   1.00
C447   C     0.80061   0.72143   0.09873   0.00000  Uiso   1.00
C448   C     0.86356   0.78078   0.40077   0.00000  Uiso   1.00
C449   C     0.79989   0.72161   0.04849   0.00000  Uiso   1.00
C450   C     0.86250   0.78237   0.45081   0.00000  Uiso   1.00
C451   C     0.83349   0.75003   0.02723   0.00000  Uiso   1.00
C452   C     0.83376   0.75032   0.47284   0.00000  Uiso   1.00
C453   C     0.73494   0.75049   0.23778   0.00000  Uiso   1.00
C454   C     0.93171   0.74942   0.26222   0.00000  Uiso   1.00
C455   C     0.67997   0.74798   0.23089   0.00000  Uiso   1.00
C456   C     0.98665   0.75176   0.26913   0.00000  Uiso   1.00
C457   C     0.86430   0.54819   0.29305   0.00000  Uiso   1.00
C458   C     0.80271   0.95162   0.20625   0.00000  Uiso   1.00
C459   C     0.86551   0.59527   0.29303   0.00000  Uiso   1.00
C460   C     0.80153   0.90457   0.20649   0.00000  Uiso   1.00
C461   C     0.84993   0.61640   0.24899   0.00000  Uiso   1.00
C462   C     0.81667   0.88356   0.25071   0.00000  Uiso   1.00
C463   C     0.85013   0.59034   0.20505   0.00000  Uiso   1.00
C464   C     0.81614   0.90977   0.29447   0.00000  Uiso   1.00
C465   C     0.85503   0.54376   0.20747   0.00000  Uiso   1.00
C466   C     0.81176   0.95641   0.29175   0.00000  Uiso   1.00
C467   C     0.84521   0.52351   0.24999   0.00000  Uiso   1.00
C468   C     0.82172   0.97644   0.24922   0.00000  Uiso   1.00
Cu469  Cu    0.83333   0.74999   0.29821   0.00000  Uiso   1.00
Cu470  Cu    0.83333   0.75000   0.20178   0.00000  Uiso   1.00
H471   H     0.89249   0.80233   0.04572   0.00000  Uiso   1.00
H472   H     0.78554   0.69029   0.45621   0.00000  Uiso   1.00
H473   H     0.77158   0.69973   0.02695   0.00000  Uiso   1.00
H474   H     0.88576   0.80859   0.47154   0.00000  Uiso   1.00
N475   N     0.83333   0.75001   0.12934   0.00000  Uiso   1.00
N476   N     0.83333   0.74999   0.37065   0.00000  Uiso   1.00
O477   O     0.83334   0.68572   0.29071   0.00000  Uiso   1.00
O478   O     0.83333   0.81427   0.20928   0.00000  Uiso   1.00
O479   O     0.83334   0.68573   0.20928   0.00000  Uiso   1.00
O480   O     0.83333   0.81427   0.29072   0.00000  Uiso   1.00
O481   O     0.75828   0.74999   0.28132   0.00000  Uiso   1.00
O482   O     0.90839   0.75000   0.21868   0.00000  Uiso   1.00
O483   O     0.75828   0.75000   0.19988   0.00000  Uiso   1.00
O484   O     0.90839   0.75000   0.30011   0.00000  Uiso   1.00
C485   C     0.98961   0.73654   0.18040   0.00000  Uiso   1.00
O486   O     0.99566   0.76224   0.14842   0.00000  Uiso   1.00
O487   O     0.96309   0.69537   0.16915   0.00000  Uiso   1.00
H488   H     0.95096   0.69097   0.13325   0.00000  Uiso   1.00
C489   C     0.67691   0.76313   0.31966   0.00000  Uiso   1.00
O490   O     0.67128   0.73716   0.35149   0.00000  Uiso   1.00
O491   O     0.70256   0.80462   0.33116   0.00000  Uiso   1.00
H492   H     0.71442   0.80901   0.36711   0.00000  Uiso   1.00
I493   I     0.90951   0.51587   0.34987   0.00000  Uiso   1.00
I494   I     0.75781   0.98362   0.14898   0.00000  Uiso   1.00
C495   C     0.88799   0.62155   0.33744   0.00000  Uiso   1.00
O496   O     0.87644   0.61170   0.37668   0.00000  Uiso   1.00
O497   O     0.92342   0.65704   0.33449   0.00000  Uiso   1.00
H498   H     0.93579   0.67238   0.36713   0.00000  Uiso   1.00
C499   C     0.77964   0.87818   0.16196   0.00000  Uiso   1.00
O500   O     0.79227   0.88762   0.12301   0.00000  Uiso   1.00
O501   O     0.74365   0.84304   0.16448   0.00000  Uiso   1.00
H502   H     0.73176   0.82755   0.13183   0.00000  Uiso   1.00
C503   C     0.84622   0.60967   0.15687   0.00000  Uiso   1.00
O504   O     0.87655   0.63937   0.14873   0.00000  Uiso   1.00
O505   O     0.81019   0.59098   0.11950   0.00000  Uiso   1.00
H506   H     0.81333   0.60470   0.08735   0.00000  Uiso   1.00
C507   C     0.81828   0.89042   0.34258   0.00000  Uiso   1.00
O508   O     0.78777   0.86045   0.34958   0.00000  Uiso   1.00
O509   O     0.85287   0.90922   0.38105   0.00000  Uiso   1.00
H510   H     0.84866   0.89524   0.41285   0.00000  Uiso   1.00
C511   C     0.88094   0.51798   0.17198   0.00000  Uiso   1.00
O512   O     0.90144   0.98394   0.18434   0.00000  Uiso   1.00
O513   O     0.88411   0.53288   0.12564   0.00000  Uiso   1.00
H514   H     0.90309   0.51236   0.10603   0.00000  Uiso   1.00
C515   C     0.78553   0.98263   0.32646   0.00000  Uiso   1.00
O516   O     0.78419   0.97110   0.36774   0.00000  Uiso   1.00
O517   O     0.76025   0.52018   0.31063   0.00000  Uiso   1.00
H518   H     0.74257   0.53444   0.33647   0.00000  Uiso   1.00
C519   C     0.89233   0.82039   0.13533   0.00000  Uiso   1.00
O520   O     0.91990   0.81739   0.17337   0.00000  Uiso   1.00
O521   O     0.88999   0.86179   0.11389   0.00000  Uiso   1.00
H522   H     0.91106   0.88645   0.13433   0.00000  Uiso   1.00
C523   C     0.77641   0.67840   0.36476   0.00000  Uiso   1.00
O524   O     0.74758   0.68269   0.32776   0.00000  Uiso   1.00
O525   O     0.77907   0.63634   0.38462   0.00000  Uiso   1.00
H526   H     0.75673   0.61251   0.36414   0.00000  Uiso   1.00
I527   I     0.74432   0.67759   0.12135   0.00000  Uiso   1.00
I528   I     0.92029   0.82416   0.37805   0.00000  Uiso   1.00
C529   C     0.17151   0.16488   0.74969   0.00000  Uiso   1.00
C530   C     0.16174   0.33509   0.75026   0.00000  Uiso   1.00
C531   C     0.19916   0.27926   0.55899   0.00000  Uiso   1.00
C532   C     0.13973   0.21727   0.94189   0.00000  Uiso   1.00
C533   C     0.19743   0.28074   0.60897   0.00000  Uiso   1.00
C534   C     0.13888   0.21735   0.89157   0.00000  Uiso   1.00
C535   C     0.13394   0.22143   0.59873   0.00000  Uiso   1.00
C536   C     0.19689   0.28078   0.90077   0.00000  Uiso   1.00
C537   C     0.13322   0.22161   0.54849   0.00000  Uiso   1.00
C538   C     0.19584   0.28237   0.95081   0.00000  Uiso   1.00
C539   C     0.16682   0.25003   0.52723   0.00000  Uiso   1.00
C540   C     0.16709   0.25032   0.97284   0.00000  Uiso   1.00
C541   C     0.06827   0.25049   0.73778   0.00000  Uiso   1.00
C542   C     0.26505   0.24942   0.76222   0.00000  Uiso   1.00
C543   C     0.01330   0.24798   0.73089   0.00000  Uiso   1.00
C544   C     0.31999   0.25176   0.76913   0.00000  Uiso   1.00
C545   C     0.19763   0.04819   0.79305   0.00000  Uiso   1.00
C546   C     0.13604   0.45162   0.70625   0.00000  Uiso   1.00
C547   C     0.19885   0.09527   0.79303   0.00000  Uiso   1.00
C548   C     0.13487   0.40457   0.70649   0.00000  Uiso   1.00
C549   C     0.18326   0.11640   0.74899   0.00000  Uiso   1.00
C550   C     0.15000   0.38356   0.75071   0.00000  Uiso   1.00
C551   C     0.18347   0.09034   0.70505   0.00000  Uiso   1.00
C552   C     0.14947   0.40977   0.79447   0.00000  Uiso   1.00
C553   C     0.18837   0.04376   0.70747   0.00000  Uiso   1.00
C554   C     0.14510   0.45641   0.79175   0.00000  Uiso   1.00
C555   C     0.17854   0.02351   0.74999   0.00000  Uiso   1.00
C556   C     0.15505   0.47644   0.74922   0.00000  Uiso   1.00
Cu557  Cu    0.16667   0.24999   0.79821   0.00000  Uiso   1.00
Cu558  Cu    0.16667   0.25000   0.70178   0.00000  Uiso   1.00
H559   H     0.22583   0.30233   0.54572   0.00000  Uiso   1.00
H560   H     0.11887   0.19029   0.95621   0.00000  Uiso   1.00
H561   H     0.10492   0.19973   0.52695   0.00000  Uiso   1.00
H562   H     0.21909   0.30859   0.97154   0.00000  Uiso   1.00
N563   N     0.16667   0.25001   0.62934   0.00000  Uiso   1.00
N564   N     0.16667   0.24999   0.87065   0.00000  Uiso   1.00
O565   O     0.16667   0.18572   0.79071   0.00000  Uiso   1.00
O566   O     0.16666   0.31427   0.70928   0.00000  Uiso   1.00
O567   O     0.16667   0.18573   0.70928   0.00000  Uiso   1.00
O568   O     0.16666   0.31427   0.79072   0.00000  Uiso   1.00
O569   O     0.09161   0.24999   0.78132   0.00000  Uiso   1.00
O570   O     0.24172   0.25000   0.71868   0.00000  Uiso   1.00
O571   O     0.09161   0.25000   0.69988   0.00000  Uiso   1.00
O572   O     0.24172   0.25000   0.80011   0.00000  Uiso   1.00
C573   C     0.32294   0.23654   0.68040   0.00000  Uiso   1.00
O574   O     0.32900   0.26224   0.64842   0.00000  Uiso   1.00
O575   O     0.29642   0.19537   0.66915   0.00000  Uiso   1.00
H576   H     0.28429   0.19097   0.63325   0.00000  Uiso   1.00
C577   C     0.01024   0.26313   0.81966   0.00000  Uiso   1.00
O578   O     0.00461   0.23716   0.85149   0.00000  Uiso   1.00
O579   O     0.03589   0.30462   0.83116   0.00000  Uiso   1.00
H580   H     0.04775   0.30901   0.86711   0.00000  Uiso   1.00
I581   I     0.24284   0.01587   0.84987   0.00000  Uiso   1.00
I582   I     0.09114   0.48362   0.64898   0.00000  Uiso   1.00
C583   C     0.22133   0.12155   0.83744   0.00000  Uiso   1.00
O584   O     0.20978   0.11170   0.87668   0.00000  Uiso   1.00
O585   O     0.25676   0.15704   0.83449   0.00000  Uiso   1.00
H586   H     0.26913   0.17238   0.86713   0.00000  Uiso   1.00
C587   C     0.11297   0.37818   0.66196   0.00000  Uiso   1.00
O588   O     0.12560   0.38762   0.62301   0.00000  Uiso   1.00
O589   O     0.07698   0.34304   0.66448   0.00000  Uiso   1.00
H590   H     0.06509   0.32755   0.63183   0.00000  Uiso   1.00
C591   C     0.17955   0.10967   0.65687   0.00000  Uiso   1.00
O592   O     0.20989   0.13937   0.64873   0.00000  Uiso   1.00
O593   O     0.14353   0.09098   0.61950   0.00000  Uiso   1.00
H594   H     0.14667   0.10470   0.58735   0.00000  Uiso   1.00
C595   C     0.15162   0.39042   0.84258   0.00000  Uiso   1.00
O596   O     0.12110   0.36045   0.84958   0.00000  Uiso   1.00
O597   O     0.18620   0.40922   0.88105   0.00000  Uiso   1.00
H598   H     0.18200   0.39524   0.91285   0.00000  Uiso   1.00
C599   C     0.21427   0.01798   0.67198   0.00000  Uiso   1.00
O600   O     0.23478   0.48394   0.68434   0.00000  Uiso   1.00
O601   O     0.21744   0.03288   0.62564   0.00000  Uiso   1.00
H602   H     0.23642   0.01236   0.60603   0.00000  Uiso   1.00
C603   C     0.11886   0.48263   0.82646   0.00000  Uiso   1.00
O604   O     0.11753   0.47110   0.86774   0.00000  Uiso   1.00
O605   O     0.09358   0.02018   0.81063   0.00000  Uiso   1.00
H606   H     0.07590   0.03444   0.83647   0.00000  Uiso   1.00
C607   C     0.22566   0.32039   0.63533   0.00000  Uiso   1.00
O608   O     0.25323   0.31739   0.67337   0.00000  Uiso   1.00
O609   O     0.22332   0.36179   0.61389   0.00000  Uiso   1.00
H610   H     0.24439   0.38645   0.63433   0.00000  Uiso   1.00
C611   C     0.10975   0.17840   0.86476   0.00000  Uiso   1.00
O612   O     0.08091   0.18269   0.82776   0.00000  Uiso   1.00
O613   O     0.11240   0.13634   0.88462   0.00000  Uiso   1.00
H614   H     0.09007   0.11251   0.86414   0.00000  Uiso   1.00
I615   I     0.07765   0.17759   0.62135   0.00000  Uiso   1.00
I616   I     0.25362   0.32416   0.87805   0.00000  Uiso   1.00
C617   C     0.50484   0.16488   0.74969   0.00000  Uiso   1.00
C618   C     0.49508   0.33509   0.75026   0.00000  Uiso   1.00
C619   C     0.53249   0.27926   0.55899   0.00000  Uiso   1.00
C620   C     0.47306   0.21727   0.94189   0.00000  Uiso   1.00
C621   C     0.53076   0.28074   0.60897   0.00000  Uiso   1.00
C622   C     0.47221   0.21735   0.89157   0.00000  Uiso   1.00
C623   C     0.46728   0.22143   0.59873   0.00000  Uiso   1.00
C624   C     0.53022   0.28078   0.90077   0.00000  Uiso   1.00
C625   C     0.46656   0.22161   0.54849   0.00000  Uiso   1.00
C626   C     0.52917   0.28237   0.95081   0.00000  Uiso   1.00
C627   C     0.50015   0.25003   0.52723   0.00000  Uiso   1.00
C628   C     0.50042   0.25032   0.97284   0.00000  Uiso   1.00
C629   C     0.40160   0.25049   0.73778   0.00000  Uiso   1.00
C630   C     0.59838   0.24942   0.76222   0.00000  Uiso   1.00
C631   C     0.34664   0.24798   0.73089   0.00000  Uiso   1.00
C632   C     0.65332   0.25176   0.76913   0.00000  Uiso   1.00
C633   C     0.53096   0.04819   0.79305   0.00000  Uiso   1.00
C634   C     0.46937   0.45162   0.70625   0.00000  Uiso   1.00
C635   C     0.53218   0.09527   0.79303   0.00000  Uiso   1.00
C636   C     0.46820   0.40457   0.70649   0.00000  Uiso   1.00
C637   C     0.51660   0.11640   0.74899   0.00000  Uiso   1.00
C638   C     0.48334   0.38356   0.75071   0.00000  Uiso   1.00
C639   C     0.51680   0.09034   0.70505   0.00000  Uiso   1.00
C640   C     0.48281   0.40977   0.79447   0.00000  Uiso   1.00
C641   C     0.52170   0.04376   0.70747   0.00000  Uiso   1.00
C642   C     0.47843   0.45641   0.79175   0.00000  Uiso   1.00
C643   C     0.51187   0.02351   0.74999   0.00000  Uiso   1.00
C644   C     0.48839   0.47644   0.74922   0.00000  Uiso   1.00
Cu645  Cu    0.50000   0.24999   0.79821   0.00000  Uiso   1.00
Cu646  Cu    0.50000   0.25000   0.70178   0.00000  Uiso   1.00
H647   H     0.55916   0.30233   0.54572   0.00000  Uiso   1.00
H648   H     0.45220   0.19029   0.95621   0.00000  Uiso   1.00
H649   H     0.43825   0.19973   0.52695   0.00000  Uiso   1.00
H650   H     0.55243   0.30859   0.97154   0.00000  Uiso   1.00
N651   N     0.50000   0.25001   0.62934   0.00000  Uiso   1.00
N652   N     0.50000   0.24999   0.87065   0.00000  Uiso   1.00
O653   O     0.50000   0.18572   0.79071   0.00000  Uiso   1.00
O654   O     0.50000   0.31427   0.70928   0.00000  Uiso   1.00
O655   O     0.50000   0.18573   0.70928   0.00000  Uiso   1.00
O656   O     0.50000   0.31427   0.79072   0.00000  Uiso   1.00
O657   O     0.42495   0.24999   0.78132   0.00000  Uiso   1.00
O658   O     0.57505   0.25000   0.71868   0.00000  Uiso   1.00
O659   O     0.42495   0.25000   0.69988   0.00000  Uiso   1.00
O660   O     0.57505   0.25000   0.80011   0.00000  Uiso   1.00
C661   C     0.65628   0.23654   0.68040   0.00000  Uiso   1.00
O662   O     0.66233   0.26224   0.64842   0.00000  Uiso   1.00
O663   O     0.62975   0.19537   0.66915   0.00000  Uiso   1.00
H664   H     0.61762   0.19097   0.63325   0.00000  Uiso   1.00
C665   C     0.34357   0.26313   0.81966   0.00000  Uiso   1.00
O666   O     0.33795   0.23716   0.85149   0.00000  Uiso   1.00
O667   O     0.36923   0.30462   0.83116   0.00000  Uiso   1.00
H668   H     0.38108   0.30901   0.86711   0.00000  Uiso   1.00
I669   I     0.57617   0.01587   0.84987   0.00000  Uiso   1.00
I670   I     0.42448   0.48362   0.64898   0.00000  Uiso   1.00
C671   C     0.55466   0.12155   0.83744   0.00000  Uiso   1.00
O672   O     0.54311   0.11170   0.87668   0.00000  Uiso   1.00
O673   O     0.59009   0.15704   0.83449   0.00000  Uiso   1.00
H674   H     0.60246   0.17238   0.86713   0.00000  Uiso   1.00
C675   C     0.44631   0.37818   0.66196   0.00000  Uiso   1.00
O676   O     0.45894   0.38762   0.62301   0.00000  Uiso   1.00
O677   O     0.41031   0.34304   0.66448   0.00000  Uiso   1.00
H678   H     0.39843   0.32755   0.63183   0.00000  Uiso   1.00
C679   C     0.51289   0.10967   0.65687   0.00000  Uiso   1.00
O680   O     0.54322   0.13937   0.64873   0.00000  Uiso   1.00
O681   O     0.47686   0.09098   0.61950   0.00000  Uiso   1.00
H682   H     0.48000   0.10470   0.58735   0.00000  Uiso   1.00
C683   C     0.48495   0.39042   0.84258   0.00000  Uiso   1.00
O684   O     0.45443   0.36045   0.84958   0.00000  Uiso   1.00
O685   O     0.51953   0.40922   0.88105   0.00000  Uiso   1.00
H686   H     0.51533   0.39524   0.91285   0.00000  Uiso   1.00
C687   C     0.54761   0.01798   0.67198   0.00000  Uiso   1.00
O688   O     0.56811   0.48394   0.68434   0.00000  Uiso   1.00
O689   O     0.55078   0.03288   0.62564   0.00000  Uiso   1.00
H690   H     0.56976   0.01236   0.60603   0.00000  Uiso   1.00
C691   C     0.45220   0.48263   0.82646   0.00000  Uiso   1.00
O692   O     0.45086   0.47110   0.86774   0.00000  Uiso   1.00
O693   O     0.42692   0.02018   0.81063   0.00000  Uiso   1.00
H694   H     0.40924   0.03444   0.83647   0.00000  Uiso   1.00
C695   C     0.55900   0.32039   0.63533   0.00000  Uiso   1.00
O696   O     0.58657   0.31739   0.67337   0.00000  Uiso   1.00
O697   O     0.55665   0.36179   0.61389   0.00000  Uiso   1.00
H698   H     0.57773   0.38645   0.63433   0.00000  Uiso   1.00
C699   C     0.44308   0.17840   0.86476   0.00000  Uiso   1.00
O700   O     0.41424   0.18269   0.82776   0.00000  Uiso   1.00
O701   O     0.44573   0.13634   0.88462   0.00000  Uiso   1.00
H702   H     0.42340   0.11251   0.86414   0.00000  Uiso   1.00
I703   I     0.41099   0.17759   0.62135   0.00000  Uiso   1.00
I704   I     0.58695   0.32416   0.87805   0.00000  Uiso   1.00
C705   C     0.83817   0.16488   0.74969   0.00000  Uiso   1.00
C706   C     0.82841   0.33509   0.75026   0.00000  Uiso   1.00
C707   C     0.86582   0.27926   0.55899   0.00000  Uiso   1.00
C708   C     0.80639   0.21727   0.94189   0.00000  Uiso   1.00
C709   C     0.86409   0.28074   0.60897   0.00000  Uiso   1.00
C710   C     0.80554   0.21735   0.89157   0.00000  Uiso   1.00
C711   C     0.80061   0.22143   0.59873   0.00000  Uiso   1.00
C712   C     0.86356   0.28078   0.90077   0.00000  Uiso   1.00
C713   C     0.79989   0.22161   0.54849   0.00000  Uiso   1.00
C714   C     0.86250   0.28237   0.95081   0.00000  Uiso   1.00
C715   C     0.83349   0.25003   0.52723   0.00000  Uiso   1.00
C716   C     0.83376   0.25032   0.97284   0.00000  Uiso   1.00
C717   C     0.73494   0.25049   0.73778   0.00000  Uiso   1.00
C718   C     0.93171   0.24942   0.76222   0.00000  Uiso   1.00
C719   C     0.67997   0.24798   0.73089   0.00000  Uiso   1.00
C720   C     0.98665   0.25176   0.76913   0.00000  Uiso   1.00
C721   C     0.86430   0.04819   0.79305   0.00000  Uiso   1.00
C722   C     0.80271   0.45162   0.70625   0.00000  Uiso   1.00
C723   C     0.86551   0.09527   0.79303   0.00000  Uiso   1.00
C724   C     0.80153   0.40457   0.70649   0.00000  Uiso   1.00
C725   C     0.84993   0.11640   0.74899   0.00000  Uiso   1.00
C726   C     0.81667   0.38356   0.75071   0.00000  Uiso   1.00
C727   C     0.85013   0.09034   0.70505   0.00000  Uiso   1.00
C728   C     0.81614   0.40977   0.79447   0.00000  Uiso   1.00
C729   C     0.85503   0.04376   0.70747   0.00000  Uiso   1.00
C730   C     0.81176   0.45641   0.79175   0.00000  Uiso   1.00
C731   C     0.84521   0.02351   0.74999   0.00000  Uiso   1.00
C732   C     0.82172   0.47644   0.74922   0.00000  Uiso   1.00
Cu733  Cu    0.83333   0.24999   0.79821   0.00000  Uiso   1.00
Cu734  Cu    0.83333   0.25000   0.70178   0.00000  Uiso   1.00
H735   H     0.89249   0.30233   0.54572   0.00000  Uiso   1.00
H736   H     0.78554   0.19029   0.95621   0.00000  Uiso   1.00
H737   H     0.77158   0.19973   0.52695   0.00000  Uiso   1.00
H738   H     0.88576   0.30859   0.97154   0.00000  Uiso   1.00
N739   N     0.83333   0.25001   0.62934   0.00000  Uiso   1.00
N740   N     0.83333   0.24999   0.87065   0.00000  Uiso   1.00
O741   O     0.83334   0.18572   0.79071   0.00000  Uiso   1.00
O742   O     0.83333   0.31427   0.70928   0.00000  Uiso   1.00
O743   O     0.83334   0.18573   0.70928   0.00000  Uiso   1.00
O744   O     0.83333   0.31427   0.79072   0.00000  Uiso   1.00
O745   O     0.75828   0.24999   0.78132   0.00000  Uiso   1.00
O746   O     0.90839   0.25000   0.71868   0.00000  Uiso   1.00
O747   O     0.75828   0.25000   0.69988   0.00000  Uiso   1.00
O748   O     0.90839   0.25000   0.80011   0.00000  Uiso   1.00
C749   C     0.98961   0.23654   0.68040   0.00000  Uiso   1.00
O750   O     0.99566   0.26224   0.64842   0.00000  Uiso   1.00
O751   O     0.96309   0.19537   0.66915   0.00000  Uiso   1.00
H752   H     0.95096   0.19097   0.63325   0.00000  Uiso   1.00
C753   C     0.67691   0.26313   0.81966   0.00000  Uiso   1.00
O754   O     0.67128   0.23716   0.85149   0.00000  Uiso   1.00
O755   O     0.70256   0.30462   0.83116   0.00000  Uiso   1.00
H756   H     0.71442   0.30901   0.86711   0.00000  Uiso   1.00
I757   I     0.90951   0.01587   0.84987   0.00000  Uiso   1.00
I758   I     0.75781   0.48362   0.64898   0.00000  Uiso   1.00
C759   C     0.88799   0.12155   0.83744   0.00000  Uiso   1.00
O760   O     0.87644   0.11170   0.87668   0.00000  Uiso   1.00
O761   O     0.92342   0.15704   0.83449   0.00000  Uiso   1.00
H762   H     0.93579   0.17238   0.86713   0.00000  Uiso   1.00
C763   C     0.77964   0.37818   0.66196   0.00000  Uiso   1.00
O764   O     0.79227   0.38762   0.62301   0.00000  Uiso   1.00
O765   O     0.74365   0.34304   0.66448   0.00000  Uiso   1.00
H766   H     0.73176   0.32755   0.63183   0.00000  Uiso   1.00
C767   C     0.84622   0.10967   0.65687   0.00000  Uiso   1.00
O768   O     0.87655   0.13937   0.64873   0.00000  Uiso   1.00
O769   O     0.81019   0.09098   0.61950   0.00000  Uiso   1.00
H770   H     0.81333   0.10470   0.58735   0.00000  Uiso   1.00
C771   C     0.81828   0.39042   0.84258   0.00000  Uiso   1.00
O772   O     0.78777   0.36045   0.84958   0.00000  Uiso   1.00
O773   O     0.85287   0.40922   0.88105   0.00000  Uiso   1.00
H774   H     0.84866   0.39524   0.91285   0.00000  Uiso   1.00
C775   C     0.88094   0.01798   0.67198   0.00000  Uiso   1.00
O776   O     0.90144   0.48394   0.68434   0.00000  Uiso   1.00
O777   O     0.88411   0.03288   0.62564   0.00000  Uiso   1.00
H778   H     0.90309   0.01236   0.60603   0.00000  Uiso   1.00
C779   C     0.78553   0.48263   0.82646   0.00000  Uiso   1.00
O780   O     0.78419   0.47110   0.86774   0.00000  Uiso   1.00
O781   O     0.76025   0.02018   0.81063   0.00000  Uiso   1.00
H782   H     0.74257   0.03444   0.83647   0.00000  Uiso   1.00
C783   C     0.89233   0.32039   0.63533   0.00000  Uiso   1.00
O784   O     0.91990   0.31739   0.67337   0.00000  Uiso   1.00
O785   O     0.88999   0.36179   0.61389   0.00000  Uiso   1.00
H786   H     0.91106   0.38645   0.63433   0.00000  Uiso   1.00
C787   C     0.77641   0.17840   0.86476   0.00000  Uiso   1.00
O788   O     0.74758   0.18269   0.82776   0.00000  Uiso   1.00
O789   O     0.77907   0.13634   0.88462   0.00000  Uiso   1.00
H790   H     0.75673   0.11251   0.86414   0.00000  Uiso   1.00
I791   I     0.74432   0.17759   0.62135   0.00000  Uiso   1.00
I792   I     0.92029   0.32416   0.87805   0.00000  Uiso   1.00
C793   C     0.17151   0.66488   0.74969   0.00000  Uiso   1.00
C794   C     0.16174   0.83509   0.75026   0.00000  Uiso   1.00
C795   C     0.19916   0.77926   0.55899   0.00000  Uiso   1.00
C796   C     0.13973   0.71727   0.94189   0.00000  Uiso   1.00
C797   C     0.19743   0.78074   0.60897   0.00000  Uiso   1.00
C798   C     0.13888   0.71735   0.89157   0.00000  Uiso   1.00
C799   C     0.13394   0.72143   0.59873   0.00000  Uiso   1.00
C800   C     0.19689   0.78078   0.90077   0.00000  Uiso   1.00
C801   C     0.13322   0.72161   0.54849   0.00000  Uiso   1.00
C802   C     0.19584   0.78237   0.95081   0.00000  Uiso   1.00
C803   C     0.16682   0.75003   0.52723   0.00000  Uiso   1.00
C804   C     0.16709   0.75032   0.97284   0.00000  Uiso   1.00
C805   C     0.06827   0.75049   0.73778   0.00000  Uiso   1.00
C806   C     0.26505   0.74942   0.76222   0.00000  Uiso   1.00
C807   C     0.01330   0.74798   0.73089   0.00000  Uiso   1.00
C808   C     0.31999   0.75176   0.76913   0.00000  Uiso   1.00
C809   C     0.19763   0.54819   0.79305   0.00000  Uiso   1.00
C810   C     0.13604   0.95162   0.70625   0.00000  Uiso   1.00
C811   C     0.19885   0.59527   0.79303   0.00000  Uiso   1.00
C812   C     0.13487   0.90457   0.70649   0.00000  Uiso   1.00
C813   C     0.18326   0.61640   0.74899   0.00000  Uiso   1.00
C814   C     0.15000   0.88356   0.75071   0.00000  Uiso   1.00
C815   C     0.18347   0.59034   0.70505   0.00000  Uiso   1.00
C816   C     0.14947   0.90977   0.79447   0.00000  Uiso   1.00
C817   C     0.18837   0.54376   0.70747   0.00000  Uiso   1.00
C818   C     0.14510   0.95641   0.79175   0.00000  Uiso   1.00
C819   C     0.17854   0.52351   0.74999   0.00000  Uiso   1.00
C820   C     0.15505   0.97644   0.74922   0.00000  Uiso   1.00
Cu821  Cu    0.16667   0.74999   0.79821   0.00000  Uiso   1.00
Cu822  Cu    0.16667   0.75000   0.70178   0.00000  Uiso   1.00
H823   H     0.22583   0.80233   0.54572   0.00000  Uiso   1.00
H824   H     0.11887   0.69029   0.95621   0.00000  Uiso   1.00
H825   H     0.10492   0.69973   0.52695   0.00000  Uiso   1.00
H826   H     0.21909   0.80859   0.97154   0.00000  Uiso   1.00
N827   N     0.16667   0.75001   0.62934   0.00000  Uiso   1.00
N828   N     0.16667   0.74999   0.87065   0.00000  Uiso   1.00
O829   O     0.16667   0.68572   0.79071   0.00000  Uiso   1.00
O830   O     0.16666   0.81427   0.70928   0.00000  Uiso   1.00
O831   O     0.16667   0.68573   0.70928   0.00000  Uiso   1.00
O832   O     0.16666   0.81427   0.79072   0.00000  Uiso   1.00
O833   O     0.09161   0.74999   0.78132   0.00000  Uiso   1.00
O834   O     0.24172   0.75000   0.71868   0.00000  Uiso   1.00
O835   O     0.09161   0.75000   0.69988   0.00000  Uiso   1.00
O836   O     0.24172   0.75000   0.80011   0.00000  Uiso   1.00
C837   C     0.32294   0.73654   0.68040   0.00000  Uiso   1.00
O838   O     0.32900   0.76224   0.64842   0.00000  Uiso   1.00
O839   O     0.29642   0.69537   0.66915   0.00000  Uiso   1.00
H840   H     0.28429   0.69097   0.63325   0.00000  Uiso   1.00
C841   C     0.01024   0.76313   0.81966   0.00000  Uiso   1.00
O842   O     0.00461   0.73716   0.85149   0.00000  Uiso   1.00
O843   O     0.03589   0.80462   0.83116   0.00000  Uiso   1.00
H844   H     0.04775   0.80901   0.86711   0.00000  Uiso   1.00
I845   I     0.24284   0.51587   0.84987   0.00000  Uiso   1.00
I846   I     0.09114   0.98362   0.64898   0.00000  Uiso   1.00
C847   C     0.22133   0.62155   0.83744   0.00000  Uiso   1.00
O848   O     0.20978   0.61170   0.87668   0.00000  Uiso   1.00
O849   O     0.25676   0.65704   0.83449   0.00000  Uiso   1.00
H850   H     0.26913   0.67238   0.86713   0.00000  Uiso   1.00
C851   C     0.11297   0.87818   0.66196   0.00000  Uiso   1.00
O852   O     0.12560   0.88762   0.62301   0.00000  Uiso   1.00
O853   O     0.07698   0.84304   0.66448   0.00000  Uiso   1.00
H854   H     0.06509   0.82755   0.63183   0.00000  Uiso   1.00
C855   C     0.17955   0.60967   0.65687   0.00000  Uiso   1.00
O856   O     0.20989   0.63937   0.64873   0.00000  Uiso   1.00
O857   O     0.14353   0.59098   0.61950   0.00000  Uiso   1.00
H858   H     0.14667   0.60470   0.58735   0.00000  Uiso   1.00
C859   C     0.15162   0.89042   0.84258   0.00000  Uiso   1.00
O860   O     0.12110   0.86045   0.84958   0.00000  Uiso   1.00
O861   O     0.18620   0.90922   0.88105   0.00000  Uiso   1.00
H862   H     0.18200   0.89524   0.91285   0.00000  Uiso   1.00
C863   C     0.21427   0.51798   0.67198   0.00000  Uiso   1.00
O864   O     0.23478   0.98394   0.68434   0.00000  Uiso   1.00
O865   O     0.21744   0.53288   0.62564   0.00000  Uiso   1.00
H866   H     0.23642   0.51236   0.60603   0.00000  Uiso   1.00
C867   C     0.11886   0.98263   0.82646   0.00000  Uiso   1.00
O868   O     0.11753   0.97110   0.86774   0.00000  Uiso   1.00
O869   O     0.09358   0.52018   0.81063   0.00000  Uiso   1.00
H870   H     0.07590   0.53444   0.83647   0.00000  Uiso   1.00
C871   C     0.22566   0.82039   0.63533   0.00000  Uiso   1.00
O872   O     0.25323   0.81739   0.67337   0.00000  Uiso   1.00
O873   O     0.22332   0.86179   0.61389   0.00000  Uiso   1.00
H874   H     0.24439   0.88645   0.63433   0.00000  Uiso   1.00
C875   C     0.10975   0.67840   0.86476   0.00000  Uiso   1.00
O876   O     0.08091   0.68269   0.82776   0.00000  Uiso   1.00
O877   O     0.11240   0.63634   0.88462   0.00000  Uiso   1.00
H878   H     0.09007   0.61251   0.86414   0.00000  Uiso   1.00
I879   I     0.07765   0.67759   0.62135   0.00000  Uiso   1.00
I880   I     0.25362   0.82416   0.87805   0.00000  Uiso   1.00
C881   C     0.50484   0.66488   0.74969   0.00000  Uiso   1.00
C882   C     0.49508   0.83509   0.75026   0.00000  Uiso   1.00
C883   C     0.53249   0.77926   0.55899   0.00000  Uiso   1.00
C884   C     0.47306   0.71727   0.94189   0.00000  Uiso   1.00
C885   C     0.53076   0.78074   0.60897   0.00000  Uiso   1.00
C886   C     0.47221   0.71735   0.89157   0.00000  Uiso   1.00
C887   C     0.46728   0.72143   0.59873   0.00000  Uiso   1.00
C888   C     0.53022   0.78078   0.90077   0.00000  Uiso   1.00
C889   C     0.46656   0.72161   0.54849   0.00000  Uiso   1.00
C890   C     0.52917   0.78237   0.95081   0.00000  Uiso   1.00
C891   C     0.50015   0.75003   0.52723   0.00000  Uiso   1.00
C892   C     0.50042   0.75032   0.97284   0.00000  Uiso   1.00
C893   C     0.40160   0.75049   0.73778   0.00000  Uiso   1.00
C894   C     0.59838   0.74942   0.76222   0.00000  Uiso   1.00
C895   C     0.34664   0.74798   0.73089   0.00000  Uiso   1.00
C896   C     0.65332   0.75176   0.76913   0.00000  Uiso   1.00
C897   C     0.53096   0.54819   0.79305   0.00000  Uiso   1.00
C898   C     0.46937   0.95162   0.70625   0.00000  Uiso   1.00
C899   C     0.53218   0.59527   0.79303   0.00000  Uiso   1.00
C900   C     0.46820   0.90457   0.70649   0.00000  Uiso   1.00
C901   C     0.51660   0.61640   0.74899   0.00000  Uiso   1.00
C902   C     0.48334   0.88356   0.75071   0.00000  Uiso   1.00
C903   C     0.51680   0.59034   0.70505   0.00000  Uiso   1.00
C904   C     0.48281   0.90977   0.79447   0.00000  Uiso   1.00
C905   C     0.52170   0.54376   0.70747   0.00000  Uiso   1.00
C906   C     0.47843   0.95641   0.79175   0.00000  Uiso   1.00
C907   C     0.51187   0.52351   0.74999   0.00000  Uiso   1.00
C908   C     0.48839   0.97644   0.74922   0.00000  Uiso   1.00
Cu909  Cu    0.50000   0.74999   0.79821   0.00000  Uiso   1.00
Cu910  Cu    0.50000   0.75000   0.70178   0.00000  Uiso   1.00
H911   H     0.55916   0.80233   0.54572   0.00000  Uiso   1.00
H912   H     0.45220   0.69029   0.95621   0.00000  Uiso   1.00
H913   H     0.43825   0.69973   0.52695   0.00000  Uiso   1.00
H914   H     0.55243   0.80859   0.97154   0.00000  Uiso   1.00
N915   N     0.50000   0.75001   0.62934   0.00000  Uiso   1.00
N916   N     0.50000   0.74999   0.87065   0.00000  Uiso   1.00
O917   O     0.50000   0.68572   0.79071   0.00000  Uiso   1.00
O918   O     0.50000   0.81427   0.70928   0.00000  Uiso   1.00
O919   O     0.50000   0.68573   0.70928   0.00000  Uiso   1.00
O920   O     0.50000   0.81427   0.79072   0.00000  Uiso   1.00
O921   O     0.42495   0.74999   0.78132   0.00000  Uiso   1.00
O922   O     0.57505   0.75000   0.71868   0.00000  Uiso   1.00
O923   O     0.42495   0.75000   0.69988   0.00000  Uiso   1.00
O924   O     0.57505   0.75000   0.80011   0.00000  Uiso   1.00
C925   C     0.65628   0.73654   0.68040   0.00000  Uiso   1.00
O926   O     0.66233   0.76224   0.64842   0.00000  Uiso   1.00
O927   O     0.62975   0.69537   0.66915   0.00000  Uiso   1.00
H928   H     0.61762   0.69097   0.63325   0.00000  Uiso   1.00
C929   C     0.34357   0.76313   0.81966   0.00000  Uiso   1.00
O930   O     0.33795   0.73716   0.85149   0.00000  Uiso   1.00
O931   O     0.36923   0.80462   0.83116   0.00000  Uiso   1.00
H932   H     0.38108   0.80901   0.86711   0.00000  Uiso   1.00
I933   I     0.57617   0.51587   0.84987   0.00000  Uiso   1.00
I934   I     0.42448   0.98362   0.64898   0.00000  Uiso   1.00
C935   C     0.55466   0.62155   0.83744   0.00000  Uiso   1.00
O936   O     0.54311   0.61170   0.87668   0.00000  Uiso   1.00
O937   O     0.59009   0.65704   0.83449   0.00000  Uiso   1.00
H938   H     0.60246   0.67238   0.86713   0.00000  Uiso   1.00
C939   C     0.44631   0.87818   0.66196   0.00000  Uiso   1.00
O940   O     0.45894   0.88762   0.62301   0.00000  Uiso   1.00
O941   O     0.41031   0.84304   0.66448   0.00000  Uiso   1.00
H942   H     0.39843   0.82755   0.63183   0.00000  Uiso   1.00
C943   C     0.51289   0.60967   0.65687   0.00000  Uiso   1.00
O944   O     0.54322   0.63937   0.64873   0.00000  Uiso   1.00
O945   O     0.47686   0.59098   0.61950   0.00000  Uiso   1.00
H946   H     0.48000   0.60470   0.58735   0.00000  Uiso   1.00
C947   C     0.48495   0.89042   0.84258   0.00000  Uiso   1.00
O948   O     0.45443   0.86045   0.84958   0.00000  Uiso   1.00
O949   O     0.51953   0.90922   0.88105   0.00000  Uiso   1.00
H950   H     0.51533   0.89524   0.91285   0.00000  Uiso   1.00
C951   C     0.54761   0.51798   0.67198   0.00000  Uiso   1.00
O952   O     0.56811   0.98394   0.68434   0.00000  Uiso   1.00
O953   O     0.55078   0.53288   0.62564   0.00000  Uiso   1.00
H954   H     0.56976   0.51236   0.60603   0.00000  Uiso   1.00
C955   C     0.45220   0.98263   0.82646   0.00000  Uiso   1.00
O956   O     0.45086   0.97110   0.86774   0.00000  Uiso   1.00
O957   O     0.42692   0.52018   0.81063   0.00000  Uiso   1.00
H958   H     0.40924   0.53444   0.83647   0.00000  Uiso   1.00
C959   C     0.55900   0.82039   0.63533   0.00000  Uiso   1.00
O960   O     0.58657   0.81739   0.67337   0.00000  Uiso   1.00
O961   O     0.55665   0.86179   0.61389   0.00000  Uiso   1.00
H962   H     0.57773   0.88645   0.63433   0.00000  Uiso   1.00
C963   C     0.44308   0.67840   0.86476   0.00000  Uiso   1.00
O964   O     0.41424   0.68269   0.82776   0.00000  Uiso   1.00
O965   O     0.44573   0.63634   0.88462   0.00000  Uiso   1.00
H966   H     0.42340   0.61251   0.86414   0.00000  Uiso   1.00
I967   I     0.41099   0.67759   0.62135   0.00000  Uiso   1.00
I968   I     0.58695   0.82416   0.87805   0.00000  Uiso   1.00
C969   C     0.83817   0.66488   0.74969   0.00000  Uiso   1.00
C970   C     0.82841   0.83509   0.75026   0.00000  Uiso   1.00
C971   C     0.86582   0.77926   0.55899   0.00000  Uiso   1.00
C972   C     0.80639   0.71727   0.94189   0.00000  Uiso   1.00
C973   C     0.86409   0.78074   0.60897   0.00000  Uiso   1.00
C974   C     0.80554   0.71735   0.89157   0.00000  Uiso   1.00
C975   C     0.80061   0.72143   0.59873   0.00000  Uiso   1.00
C976   C     0.86356   0.78078   0.90077   0.00000  Uiso   1.00
C977   C     0.79989   0.72161   0.54849   0.00000  Uiso   1.00
C978   C     0.86250   0.78237   0.95081   0.00000  Uiso   1.00
C979   C     0.83349   0.75003   0.52723   0.00000  Uiso   1.00
C980   C     0.83376   0.75032   0.97284   0.00000  Uiso   1.00
C981   C     0.73494   0.75049   0.73778   0.00000  Uiso   1.00
C982   C     0.93171   0.74942   0.76222   0.00000  Uiso   1.00
C983   C     0.67997   0.74798   0.73089   0.00000  Uiso   1.00
C984   C     0.98665   0.75176   0.76913   0.00000  Uiso   1.00
C985   C     0.86430   0.54819   0.79305   0.00000  Uiso   1.00
C986   C     0.80271   0.95162   0.70625   0.00000  Uiso   1.00
C987   C     0.86551   0.59527   0.79303   0.00000  Uiso   1.00
C988   C     0.80153   0.90457   0.70649   0.00000  Uiso   1.00
C989   C     0.84993   0.61640   0.74899   0.00000  Uiso   1.00
C990   C     0.81667   0.88356   0.75071   0.00000  Uiso   1.00
C991   C     0.85013   0.59034   0.70505   0.00000  Uiso   1.00
C992   C     0.81614   0.90977   0.79447   0.00000  Uiso   1.00
C993   C     0.85503   0.54376   0.70747   0.00000  Uiso   1.00
C994   C     0.81176   0.95641   0.79175   0.00000  Uiso   1.00
C995   C     0.84521   0.52351   0.74999   0.00000  Uiso   1.00
C996   C     0.82172   0.97644   0.74922   0.00000  Uiso   1.00
Cu997  Cu    0.83333   0.74999   0.79821   0.00000  Uiso   1.00
Cu998  Cu    0.83333   0.75000   0.70178   0.00000  Uiso   1.00
H999   H     0.89249   0.80233   0.54572   0.00000  Uiso   1.00
H1000  H     0.78554   0.69029   0.95621   0.00000  Uiso   1.00
H1001  H     0.77158   0.69973   0.52695   0.00000  Uiso   1.00
H1002  H     0.88576   0.80859   0.97154   0.00000  Uiso   1.00
N1003  N     0.83333   0.75001   0.62934   0.00000  Uiso   1.00
N1004  N     0.83333   0.74999   0.87065   0.00000  Uiso   1.00
O1005  O     0.83334   0.68572   0.79071   0.00000  Uiso   1.00
O1006  O     0.83333   0.81427   0.70928   0.00000  Uiso   1.00
O1007  O     0.83334   0.68573   0.70928   0.00000  Uiso   1.00
O1008  O     0.83333   0.81427   0.79072   0.00000  Uiso   1.00
O1009  O     0.75828   0.74999   0.78132   0.00000  Uiso   1.00
O1010  O     0.90839   0.75000   0.71868   0.00000  Uiso   1.00
O1011  O     0.75828   0.75000   0.69988   0.00000  Uiso   1.00
O1012  O     0.90839   0.75000   0.80011   0.00000  Uiso   1.00
C1013  C     0.98961   0.73654   0.68040   0.00000  Uiso   1.00
O1014  O     0.99566   0.76224   0.64842   0.00000  Uiso   1.00
O1015  O     0.96309   0.69537   0.66915   0.00000  Uiso   1.00
H1016  H     0.95096   0.69097   0.63325   0.00000  Uiso   1.00
C1017  C     0.67691   0.76313   0.81966   0.00000  Uiso   1.00
O1018  O     0.67128   0.73716   0.85149   0.00000  Uiso   1.00
O1019  O     0.70256   0.80462   0.83116   0.00000  Uiso   1.00
H1020  H     0.71442   0.80901   0.86711   0.00000  Uiso   1.00
I1021  I     0.90951   0.51587   0.84987   0.00000  Uiso   1.00
I1022  I     0.75781   0.98362   0.64898   0.00000  Uiso   1.00
C1023  C     0.88799   0.62155   0.83744   0.00000  Uiso   1.00
O1024  O     0.87644   0.61170   0.87668   0.00000  Uiso   1.00
O1025  O     0.92342   0.65704   0.83449   0.00000  Uiso   1.00
H1026  H     0.93579   0.67238   0.86713   0.00000  Uiso   1.00
C1027  C     0.77964   0.87818   0.66196   0.00000  Uiso   1.00
O1028  O     0.79227   0.88762   0.62301   0.00000  Uiso   1.00
O1029  O     0.74365   0.84304   0.66448   0.00000  Uiso   1.00
H1030  H     0.73176   0.82755   0.63183   0.00000  Uiso   1.00
C1031  C     0.84622   0.60967   0.65687   0.00000  Uiso   1.00
O1032  O     0.87655   0.63937   0.64873   0.00000  Uiso   1.00
O1033  O     0.81019   0.59098   0.61950   0.00000  Uiso   1.00
H1034  H     0.81333   0.60470   0.58735   0.00000  Uiso   1.00
C1035  C     0.81828   0.89042   0.84258   0.00000  Uiso   1.00
O1036  O     0.78777   0.86045   0.84958   0.00000  Uiso   1.00
O1037  O     0.85287   0.90922   0.88105   0.00000  Uiso   1.00
H1038  H     0.84866   0.89524   0.91285   0.00000  Uiso   1.00
C1039  C     0.88094   0.51798   0.67198   0.00000  Uiso   1.00
O1040  O     0.90144   0.98394   0.68434   0.00000  Uiso   1.00
O1041  O     0.88411   0.53288   0.62564   0.00000  Uiso   1.00
H1042  H     0.90309   0.51236   0.60603   0.00000  Uiso   1.00
C1043  C     0.78553   0.98263   0.82646   0.00000  Uiso   1.00
O1044  O     0.78419   0.97110   0.86774   0.00000  Uiso   1.00
O1045  O     0.76025   0.52018   0.81063   0.00000  Uiso   1.00
H1046  H     0.74257   0.53444   0.83647   0.00000  Uiso   1.00
C1047  C     0.89233   0.82039   0.63533   0.00000  Uiso   1.00
O1048  O     0.91990   0.81739   0.67337   0.00000  Uiso   1.00
O1049  O     0.88999   0.86179   0.61389   0.00000  Uiso   1.00
H1050  H     0.91106   0.88645   0.63433   0.00000  Uiso   1.00
C1051  C     0.77641   0.67840   0.86476   0.00000  Uiso   1.00
O1052  O     0.74758   0.68269   0.82776   0.00000  Uiso   1.00
O1053  O     0.77907   0.63634   0.88462   0.00000  Uiso   1.00
H1054  H     0.75673   0.61251   0.86414   0.00000  Uiso   1.00
I1055  I     0.74432   0.67759   0.62135   0.00000  Uiso   1.00
I1056  I     0.92029   0.82416   0.87805   0.00000  Uiso   1.00
loop_
_geom_bond_atom_site_label_1
_geom_bond_atom_site_label_2
_geom_bond_distance
_geom_bond_site_symmetry_2
_ccdc_geom_bond_type
C1     C21     1.507   .     S
C1     O37     1.316   .     A
C1     O39     1.305   .     A
C2     C22     1.506   .     S
C2     O38     1.314   .     A
C2     O40     1.306   .     A
C3     H31     1.077   .     S
C3     C5      1.405   .     A
C3     C11     1.399   .     A
C4     C6      1.406   .     A
C4     H32     1.077   .     S
C4     C12     1.399   .     A
C5     C79     1.490   .     S
C5     N35     1.390   .     A
C6     C83     1.488   .     S
C6     N36     1.390   .     A
C7     I87     2.119   .     S
C7     C9      1.404   .     A
C7     N35     1.376   .     A
C8     N36     1.376   .     A
C8     C10     1.404   .     A
C8     I88     2.121   .     S
C9     H33     1.076   .     S
C9     C11     1.408   .     A
C10    H34     1.076   .     S
C10    C12     1.409   .     A
C11    C540    1.524   1_554 S
C12    C539    1.524   .     S
C13    O41     1.290   .     A
C13    C15     1.450   .     S
C13    O43     1.303   .     A
C14    O42     1.290   .     A
C14    C16     1.450   .     S
C14    O44     1.303   .     A
C15    C192    1.370   1_455 S
C15    C221    1.487   1_455 S
C16    C103    1.370   .     S
C16    C137    1.487   .     S
C17    C27     1.411   .     A
C17    I53     2.151   .     S
C17    C19     1.413   .     A
C18    C20     1.412   .     A
C18    C28     1.411   .     A
C18    I54     2.151   .     S
C19    C21     1.426   .     A
C19    C55     1.485   .     S
C20    C59     1.485   .     S
C20    C22     1.426   .     A
C21    C23     1.437   .     A
C22    C24     1.436   .     A
C23    C63     1.478   .     S
C23    C25     1.415   .     A
C24    C26     1.416   .     A
C24    C67     1.479   .     S
C25    C71     1.505   .     S
C25    C27     1.404   .     A
C26    C75     1.502   .     S
C26    C28     1.402   .     A
C27    C292    1.513   1_545 S
C28    C291    1.513   .     S
Cu29   N36     2.028   .     S
Cu29   Cu30    2.699   .     S
Cu29   O44     1.997   .     S
Cu29   O37     1.935   .     S
Cu29   O41     1.993   .     S
Cu29   O40     1.949   .     S
Cu30   N35     2.028   .     S
Cu30   O38     1.935   .     S
Cu30   O43     1.997   .     S
Cu30   O39     1.949   .     S
Cu30   O42     1.993   .     S
C45    O47     1.395   .     S
C45    O46     1.223   .     D
C45    C103    1.487   .     S
O47    H48     1.014   .     S
C49    O51     1.394   .     S
C49    O50     1.223   .     D
C49    C192    1.487   1_455 S
O51    H52     1.014   .     S
C55    O56     1.222   .     D
C55    O57     1.397   .     S
O57    H58     1.014   .     S
C59    O60     1.222   .     D
C59    O61     1.397   .     S
O61    H62     1.014   .     S
C63    O65     1.398   .     S
C63    O64     1.220   .     D
O65    H66     1.014   .     S
C67    O68     1.219   .     D
C67    O69     1.399   .     S
O69    H70     1.014   .     S
C71    O73     1.398   .     S
C71    O336    1.224   1_545 S
O72    C335    1.224   .     S
O73    H74     1.014   .     S
C75    O76     1.222   .     D
C75    O341    1.399   .     S
O77    H78     1.013   .     S
O77    C339    1.399   1_545 S
C79    O80     1.216   .     D
C79    O81     1.399   .     S
O81    H82     1.014   .     S
C83    O84     1.216   .     D
C83    O85     1.399   .     S
O85    H86     1.013   .     S
C89    C109    1.507   .     S
C89    O125    1.316   .     A
C89    O127    1.305   .     A
C90    C110    1.506   .     S
C90    O126    1.314   .     A
C90    O128    1.306   .     A
C91    H119    1.077   .     S
C91    C93     1.405   .     A
C91    C99     1.399   .     A
C92    C94     1.406   .     A
C92    H120    1.077   .     S
C92    C100    1.399   .     A
C93    C167    1.490   .     S
C93    N123    1.390   .     A
C94    C171    1.488   .     S
C94    N124    1.390   .     A
C95    I175    2.119   .     S
C95    C97     1.404   .     A
C95    N123    1.376   .     A
C96    N124    1.376   .     A
C96    C98     1.404   .     A
C96    I176    2.121   .     S
C97    H121    1.076   .     S
C97    C99     1.408   .     A
C98    H122    1.076   .     S
C98    C100    1.409   .     A
C99    C628    1.524   1_554 S
C100   C627    1.524   .     S
C101   O129    1.290   .     A
C101   C103    1.450   .     S
C101   O131    1.303   .     A
C102   O130    1.290   .     A
C102   C104    1.450   .     S
C102   O132    1.303   .     A
C104   C191    1.370   .     S
C104   C225    1.487   .     S
C105   C115    1.411   .     A
C105   I141    2.151   .     S
C105   C107    1.413   .     A
C106   C108    1.412   .     A
C106   C116    1.411   .     A
C106   I142    2.151   .     S
C107   C109    1.426   .     A
C107   C143    1.485   .     S
C108   C147    1.485   .     S
C108   C110    1.426   .     A
C109   C111    1.437   .     A
C110   C112    1.436   .     A
C111   C151    1.478   .     S
C111   C113    1.415   .     A
C112   C114    1.416   .     A
C112   C155    1.479   .     S
C113   C159    1.505   .     S
C113   C115    1.404   .     A
C114   C163    1.502   .     S
C114   C116    1.402   .     A
C115   C380    1.513   1_545 S
C116   C379    1.513   .     S
Cu117  N124    2.028   .     S
Cu117  Cu118   2.699   .     S
Cu117  O132    1.997   .     S
Cu117  O125    1.935   .     S
Cu117  O129    1.993   .     S
Cu117  O128    1.949   .     S
Cu118  N123    2.028   .     S
Cu118  O126    1.935   .     S
Cu118  O131    1.997   .     S
Cu118  O127    1.949   .     S
Cu118  O130    1.993   .     S
C133   O135    1.395   .     S
C133   O134    1.223   .     D
C133   C191    1.487   .     S
O135   H136    1.014   .     S
C137   O139    1.394   .     S
C137   O138    1.223   .     D
O139   H140    1.014   .     S
C143   O144    1.222   .     D
C143   O145    1.397   .     S
O145   H146    1.014   .     S
C147   O148    1.222   .     D
C147   O149    1.397   .     S
O149   H150    1.014   .     S
C151   O153    1.398   .     S
C151   O152    1.220   .     D
O153   H154    1.014   .     S
C155   O156    1.219   .     D
C155   O157    1.399   .     S
O157   H158    1.014   .     S
C159   O161    1.398   .     S
C159   O424    1.224   1_545 S
O160   C423    1.224   .     S
O161   H162    1.014   .     S
C163   O164    1.222   .     D
C163   O429    1.399   .     S
O165   H166    1.013   .     S
O165   C427    1.399   1_545 S
C167   O168    1.216   .     D
C167   O169    1.399   .     S
O169   H170    1.014   .     S
C171   O172    1.216   .     D
C171   O173    1.399   .     S
O173   H174    1.013   .     S
C177   C197    1.507   .     S
C177   O213    1.316   .     A
C177   O215    1.305   .     A
C178   C198    1.506   .     S
C178   O214    1.314   .     A
C178   O216    1.306   .     A
C179   H207    1.077   .     S
C179   C181    1.405   .     A
C179   C187    1.399   .     A
C180   C182    1.406   .     A
C180   H208    1.077   .     S
C180   C188    1.399   .     A
C181   C255    1.490   .     S
C181   N211    1.390   .     A
C182   C259    1.488   .     S
C182   N212    1.390   .     A
C183   I263    2.119   .     S
C183   C185    1.404   .     A
C183   N211    1.376   .     A
C184   N212    1.376   .     A
C184   C186    1.404   .     A
C184   I264    2.121   .     S
C185   H209    1.076   .     S
C185   C187    1.408   .     A
C186   H210    1.076   .     S
C186   C188    1.409   .     A
C187   C716    1.524   1_554 S
C188   C715    1.524   .     S
C189   O217    1.290   .     A
C189   C191    1.450   .     S
C189   O219    1.303   .     A
C190   O218    1.290   .     A
C190   C192    1.450   .     S
C190   O220    1.303   .     A
C192   C15     1.370   1_655 S
C192   C49     1.487   1_655 S
C193   C203    1.411   .     A
C193   I229    2.151   .     S
C193   C195    1.413   .     A
C194   C196    1.412   .     A
C194   C204    1.411   .     A
C194   I230    2.151   .     S
C195   C197    1.426   .     A
C195   C231    1.485   .     S
C196   C235    1.485   .     S
C196   C198    1.426   .     A
C197   C199    1.437   .     A
C198   C200    1.436   .     A
C199   C239    1.478   .     S
C199   C201    1.415   .     A
C200   C202    1.416   .     A
C200   C243    1.479   .     S
C201   C247    1.505   .     S
C201   C203    1.404   .     A
C202   C251    1.502   .     S
C202   C204    1.402   .     A
C203   C468    1.513   1_545 S
C204   C467    1.513   .     S
Cu205  N212    2.028   .     S
Cu205  Cu206   2.699   .     S
Cu205  O220    1.997   .     S
Cu205  O213    1.935   .     S
Cu205  O217    1.993   .     S
Cu205  O216    1.949   .     S
Cu206  N211    2.028   .     S
Cu206  O214    1.935   .     S
Cu206  O219    1.997   .     S
Cu206  O215    1.949   .     S
Cu206  O218    1.993   .     S
C221   O223    1.395   .     S
C221   O222    1.223   .     D
C221   C15     1.487   1_655 S
O223   H224    1.014   .     S
C225   O227    1.394   .     S
C225   O226    1.223   .     D
O227   H228    1.014   .     S
C231   O232    1.222   .     D
C231   O233    1.397   .     S
O233   H234    1.014   .     S
C235   O236    1.222   .     D
C235   O237    1.397   .     S
O237   H238    1.014   .     S
C239   O241    1.398   .     S
C239   O240    1.220   .     D
O241   H242    1.014   .     S
C243   O244    1.219   .     D
C243   O245    1.399   .     S
O245   H246    1.014   .     S
C247   O249    1.398   .     S
C247   O512    1.224   1_545 S
O248   C511    1.224   .     S
O249   H250    1.014   .     S
C251   O252    1.222   .     D
C251   O517    1.399   .     S
O253   H254    1.013   .     S
O253   C515    1.399   1_545 S
C255   O256    1.216   .     D
C255   O257    1.399   .     S
O257   H258    1.014   .     S
C259   O260    1.216   .     D
C259   O261    1.399   .     S
O261   H262    1.013   .     S
C265   C285    1.507   .     S
C265   O301    1.316   .     A
C265   O303    1.305   .     A
C266   C286    1.506   .     S
C266   O302    1.314   .     A
C266   O304    1.306   .     A
C267   H295    1.077   .     S
C267   C269    1.405   .     A
C267   C275    1.399   .     A
C268   C270    1.406   .     A
C268   H296    1.077   .     S
C268   C276    1.399   .     A
C269   C343    1.490   .     S
C269   N299    1.390   .     A
C270   C347    1.488   .     S
C270   N300    1.390   .     A
C271   I351    2.119   .     S
C271   C273    1.404   .     A
C271   N299    1.376   .     A
C272   N300    1.376   .     A
C272   C274    1.404   .     A
C272   I352    2.121   .     S
C273   H297    1.076   .     S
C273   C275    1.408   .     A
C274   H298    1.076   .     S
C274   C276    1.409   .     A
C275   C804    1.524   1_554 S
C276   C803    1.524   .     S
C277   O305    1.290   .     A
C277   C279    1.450   .     S
C277   O307    1.303   .     A
C278   O306    1.290   .     A
C278   C280    1.450   .     S
C278   O308    1.303   .     A
C279   C456    1.370   1_455 S
C279   C485    1.487   1_455 S
C280   C367    1.370   .     S
C280   C401    1.487   .     S
C281   C291    1.411   .     A
C281   I317    2.151   .     S
C281   C283    1.413   .     A
C282   C284    1.412   .     A
C282   C292    1.411   .     A
C282   I318    2.151   .     S
C283   C285    1.426   .     A
C283   C319    1.485   .     S
C284   C323    1.485   .     S
C284   C286    1.426   .     A
C285   C287    1.437   .     A
C286   C288    1.436   .     A
C287   C327    1.478   .     S
C287   C289    1.415   .     A
C288   C290    1.416   .     A
C288   C331    1.479   .     S
C289   C335    1.505   .     S
C289   C291    1.404   .     A
C290   C339    1.502   .     S
C290   C292    1.402   .     A
C292   C27     1.513   1_565 S
Cu293  N300    2.028   .     S
Cu293  Cu294   2.699   .     S
Cu293  O308    1.997   .     S
Cu293  O301    1.935   .     S
Cu293  O305    1.993   .     S
Cu293  O304    1.949   .     S
Cu294  N299    2.028   .     S
Cu294  O302    1.935   .     S
Cu294  O307    1.997   .     S
Cu294  O303    1.949   .     S
Cu294  O306    1.993   .     S
C309   O311    1.395   .     S
C309   O310    1.223   .     D
C309   C367    1.487   .     S
O311   H312    1.014   .     S
C313   O315    1.394   .     S
C313   O314    1.223   .     D
C313   C456    1.487   1_455 S
O315   H316    1.014   .     S
C319   O320    1.222   .     D
C319   O321    1.397   .     S
O321   H322    1.014   .     S
C323   O324    1.222   .     D
C323   O325    1.397   .     S
O325   H326    1.014   .     S
C327   O329    1.398   .     S
C327   O328    1.220   .     D
O329   H330    1.014   .     S
C331   O332    1.219   .     D
C331   O333    1.399   .     S
O333   H334    1.014   .     S
C335   O337    1.398   .     S
O336   C71     1.224   1_565 S
O337   H338    1.014   .     S
C339   O340    1.222   .     D
C339   O77     1.399   1_565 S
O341   H342    1.013   .     S
C343   O344    1.216   .     D
C343   O345    1.399   .     S
O345   H346    1.014   .     S
C347   O348    1.216   .     D
C347   O349    1.399   .     S
O349   H350    1.013   .     S
C353   C373    1.507   .     S
C353   O389    1.316   .     A
C353   O391    1.305   .     A
C354   C374    1.506   .     S
C354   O390    1.314   .     A
C354   O392    1.306   .     A
C355   H383    1.077   .     S
C355   C357    1.405   .     A
C355   C363    1.399   .     A
C356   C358    1.406   .     A
C356   H384    1.077   .     S
C356   C364    1.399   .     A
C357   C431    1.490   .     S
C357   N387    1.390   .     A
C358   C435    1.488   .     S
C358   N388    1.390   .     A
C359   I439    2.119   .     S
C359   C361    1.404   .     A
C359   N387    1.376   .     A
C360   N388    1.376   .     A
C360   C362    1.404   .     A
C360   I440    2.121   .     S
C361   H385    1.076   .     S
C361   C363    1.408   .     A
C362   H386    1.076   .     S
C362   C364    1.409   .     A
C363   C892    1.524   1_554 S
C364   C891    1.524   .     S
C365   O393    1.290   .     A
C365   C367    1.450   .     S
C365   O395    1.303   .     A
C366   O394    1.290   .     A
C366   C368    1.450   .     S
C366   O396    1.303   .     A
C368   C455    1.370   .     S
C368   C489    1.487   .     S
C369   C379    1.411   .     A
C369   I405    2.151   .     S
C369   C371    1.413   .     A
C370   C372    1.412   .     A
C370   C380    1.411   .     A
C370   I406    2.151   .     S
C371   C373    1.426   .     A
C371   C407    1.485   .     S
C372   C411    1.485   .     S
C372   C374    1.426   .     A
C373   C375    1.437   .     A
C374   C376    1.436   .     A
C375   C415    1.478   .     S
C375   C377    1.415   .     A
C376   C378    1.416   .     A
C376   C419    1.479   .     S
C377   C423    1.505   .     S
C377   C379    1.404   .     A
C378   C427    1.502   .     S
C378   C380    1.402   .     A
C380   C115    1.513   1_565 S
Cu381  N388    2.028   .     S
Cu381  Cu382   2.699   .     S
Cu381  O396    1.997   .     S
Cu381  O389    1.935   .     S
Cu381  O393    1.993   .     S
Cu381  O392    1.949   .     S
Cu382  N387    2.028   .     S
Cu382  O390    1.935   .     S
Cu382  O395    1.997   .     S
Cu382  O391    1.949   .     S
Cu382  O394    1.993   .     S
C397   O399    1.395   .     S
C397   O398    1.223   .     D
C397   C455    1.487   .     S
O399   H400    1.014   .     S
C401   O403    1.394   .     S
C401   O402    1.223   .     D
O403   H404    1.014   .     S
C407   O408    1.222   .     D
C407   O409    1.397   .     S
O409   H410    1.014   .     S
C411   O412    1.222   .     D
C411   O413    1.397   .     S
O413   H414    1.014   .     S
C415   O417    1.398   .     S
C415   O416    1.220   .     D
O417   H418    1.014   .     S
C419   O420    1.219   .     D
C419   O421    1.399   .     S
O421   H422    1.014   .     S
C423   O425    1.398   .     S
O424   C159    1.224   1_565 S
O425   H426    1.014   .     S
C427   O428    1.222   .     D
C427   O165    1.399   1_565 S
O429   H430    1.013   .     S
C431   O432    1.216   .     D
C431   O433    1.399   .     S
O433   H434    1.014   .     S
C435   O436    1.216   .     D
C435   O437    1.399   .     S
O437   H438    1.013   .     S
C441   C461    1.507   .     S
C441   O477    1.316   .     A
C441   O479    1.305   .     A
C442   C462    1.506   .     S
C442   O478    1.314   .     A
C442   O480    1.306   .     A
C443   H471    1.077   .     S
C443   C445    1.405   .     A
C443   C451    1.399   .     A
C444   C446    1.406   .     A
C444   H472    1.077   .     S
C444   C452    1.399   .     A
C445   C519    1.490   .     S
C445   N475    1.390   .     A
C446   C523    1.488   .     S
C446   N476    1.390   .     A
C447   I527    2.119   .     S
C447   C449    1.404   .     A
C447   N475    1.376   .     A
C448   N476    1.376   .     A
C448   C450    1.404   .     A
C448   I528    2.121   .     S
C449   H473    1.076   .     S
C449   C451    1.408   .     A
C450   H474    1.076   .     S
C450   C452    1.409   .     A
C451   C980    1.524   1_554 S
C452   C979    1.524   .     S
C453   O481    1.290   .     A
C453   C455    1.450   .     S
C453   O483    1.303   .     A
C454   O482    1.290   .     A
C454   C456    1.450   .     S
C454   O484    1.303   .     A
C456   C279    1.370   1_655 S
C456   C313    1.487   1_655 S
C457   C467    1.411   .     A
C457   I493    2.151   .     S
C457   C459    1.413   .     A
C458   C460    1.412   .     A
C458   C468    1.411   .     A
C458   I494    2.151   .     S
C459   C461    1.426   .     A
C459   C495    1.485   .     S
C460   C499    1.485   .     S
C460   C462    1.426   .     A
C461   C463    1.437   .     A
C462   C464    1.436   .     A
C463   C503    1.478   .     S
C463   C465    1.415   .     A
C464   C466    1.416   .     A
C464   C507    1.479   .     S
C465   C511    1.505   .     S
C465   C467    1.404   .     A
C466   C515    1.502   .     S
C466   C468    1.402   .     A
C468   C203    1.513   1_565 S
Cu469  N476    2.028   .     S
Cu469  Cu470   2.699   .     S
Cu469  O484    1.997   .     S
Cu469  O477    1.935   .     S
Cu469  O481    1.993   .     S
Cu469  O480    1.949   .     S
Cu470  N475    2.028   .     S
Cu470  O478    1.935   .     S
Cu470  O483    1.997   .     S
Cu470  O479    1.949   .     S
Cu470  O482    1.993   .     S
C485   O487    1.395   .     S
C485   O486    1.223   .     D
C485   C279    1.487   1_655 S
O487   H488    1.014   .     S
C489   O491    1.394   .     S
C489   O490    1.223   .     D
O491   H492    1.014   .     S
C495   O496    1.222   .     D
C495   O497    1.397   .     S
O497   H498    1.014   .     S
C499   O500    1.222   .     D
C499   O501    1.397   .     S
O501   H502    1.014   .     S
C503   O505    1.398   .     S
C503   O504    1.220   .     D
O505   H506    1.014   .     S
C507   O508    1.219   .     D
C507   O509    1.399   .     S
O509   H510    1.014   .     S
C511   O513    1.398   .     S
O512   C247    1.224   1_565 S
O513   H514    1.014   .     S
C515   O516    1.222   .     D
C515   O253    1.399   1_565 S
O517   H518    1.013   .     S
C519   O520    1.216   .     D
C519   O521    1.399   .     S
O521   H522    1.014   .     S
C523   O524    1.216   .     D
C523   O525    1.399   .     S
O525   H526    1.013   .     S
C529   C549    1.507   .     S
C529   O565    1.316   .     A
C529   O567    1.305   .     A
C530   C550    1.506   .     S
C530   O566    1.314   .     A
C530   O568    1.306   .     A
C531   H559    1.077   .     S
C531   C533    1.405   .     A
C531   C539    1.399   .     A
C532   C534    1.406   .     A
C532   H560    1.077   .     S
C532   C540    1.399   .     A
C533   C607    1.490   .     S
C533   N563    1.390   .     A
C534   C611    1.488   .     S
C534   N564    1.390   .     A
C535   I615    2.119   .     S
C535   C537    1.404   .     A
C535   N563    1.376   .     A
C536   N564    1.376   .     A
C536   C538    1.404   .     A
C536   I616    2.121   .     S
C537   H561    1.076   .     S
C537   C539    1.408   .     A
C538   H562    1.076   .     S
C538   C540    1.409   .     A
C540   C11     1.524   1_556 S
C541   O569    1.290   .     A
C541   C543    1.450   .     S
C541   O571    1.303   .     A
C542   O570    1.290   .     A
C542   C544    1.450   .     S
C542   O572    1.303   .     A
C543   C720    1.370   1_455 S
C543   C749    1.487   1_455 S
C544   C631    1.370   .     S
C544   C665    1.487   .     S
C545   C555    1.411   .     A
C545   I581    2.151   .     S
C545   C547    1.413   .     A
C546   C548    1.412   .     A
C546   C556    1.411   .     A
C546   I582    2.151   .     S
C547   C549    1.426   .     A
C547   C583    1.485   .     S
C548   C587    1.485   .     S
C548   C550    1.426   .     A
C549   C551    1.437   .     A
C550   C552    1.436   .     A
C551   C591    1.478   .     S
C551   C553    1.415   .     A
C552   C554    1.416   .     A
C552   C595    1.479   .     S
C553   C599    1.505   .     S
C553   C555    1.404   .     A
C554   C603    1.502   .     S
C554   C556    1.402   .     A
C555   C820    1.513   1_545 S
C556   C819    1.513   .     S
Cu557  N564    2.028   .     S
Cu557  Cu558   2.699   .     S
Cu557  O572    1.997   .     S
Cu557  O565    1.935   .     S
Cu557  O569    1.993   .     S
Cu557  O568    1.949   .     S
Cu558  N563    2.028   .     S
Cu558  O566    1.935   .     S
Cu558  O571    1.997   .     S
Cu558  O567    1.949   .     S
Cu558  O570    1.993   .     S
C573   O575    1.395   .     S
C573   O574    1.223   .     D
C573   C631    1.487   .     S
O575   H576    1.014   .     S
C577   O579    1.394   .     S
C577   O578    1.223   .     D
C577   C720    1.487   1_455 S
O579   H580    1.014   .     S
C583   O584    1.222   .     D
C583   O585    1.397   .     S
O585   H586    1.014   .     S
C587   O588    1.222   .     D
C587   O589    1.397   .     S
O589   H590    1.014   .     S
C591   O593    1.398   .     S
C591   O592    1.220   .     D
O593   H594    1.014   .     S
C595   O596    1.219   .     D
C595   O597    1.399   .     S
O597   H598    1.014   .     S
C599   O601    1.398   .     S
C599   O864    1.224   1_545 S
O600   C863    1.224   .     S
O601   H602    1.014   .     S
C603   O604    1.222   .     D
C603   O869    1.399   .     S
O605   H606    1.013   .     S
O605   C867    1.399   1_545 S
C607   O608    1.216   .     D
C607   O609    1.399   .     S
O609   H610    1.014   .     S
C611   O612    1.216   .     D
C611   O613    1.399   .     S
O613   H614    1.013   .     S
C617   C637    1.507   .     S
C617   O653    1.316   .     A
C617   O655    1.305   .     A
C618   C638    1.506   .     S
C618   O654    1.314   .     A
C618   O656    1.306   .     A
C619   H647    1.077   .     S
C619   C621    1.405   .     A
C619   C627    1.399   .     A
C620   C622    1.406   .     A
C620   H648    1.077   .     S
C620   C628    1.399   .     A
C621   C695    1.490   .     S
C621   N651    1.390   .     A
C622   C699    1.488   .     S
C622   N652    1.390   .     A
C623   I703    2.119   .     S
C623   C625    1.404   .     A
C623   N651    1.376   .     A
C624   N652    1.376   .     A
C624   C626    1.404   .     A
C624   I704    2.121   .     S
C625   H649    1.076   .     S
C625   C627    1.408   .     A
C626   H650    1.076   .     S
C626   C628    1.409   .     A
C628   C99     1.524   1_556 S
C629   O657    1.290   .     A
C629   C631    1.450   .     S
C629   O659    1.303   .     A
C630   O658    1.290   .     A
C630   C632    1.450   .     S
C630   O660    1.303   .     A
C632   C719    1.370   .     S
C632   C753    1.487   .     S
C633   C643    1.411   .     A
C633   I669    2.151   .     S
C633   C635    1.413   .     A
C634   C636    1.412   .     A
C634   C644    1.411   .     A
C634   I670    2.151   .     S
C635   C637    1.426   .     A
C635   C671    1.485   .     S
C636   C675    1.485   .     S
C636   C638    1.426   .     A
C637   C639    1.437   .     A
C638   C640    1.436   .     A
C639   C679    1.478   .     S
C639   C641    1.415   .     A
C640   C642    1.416   .     A
C640   C683    1.479   .     S
C641   C687    1.505   .     S
C641   C643    1.404   .     A
C642   C691    1.502   .     S
C642   C644    1.402   .     A
C643   C908    1.513   1_545 S
C644   C907    1.513   .     S
Cu645  N652    2.028   .     S
Cu645  Cu646   2.699   .     S
Cu645  O660    1.997   .     S
Cu645  O653    1.935   .     S
Cu645  O657    1.993   .     S
Cu645  O656    1.949   .     S
Cu646  N651    2.028   .     S
Cu646  O654    1.935   .     S
Cu646  O659    1.997   .     S
Cu646  O655    1.949   .     S
Cu646  O658    1.993   .     S
C661   O663    1.395   .     S
C661   O662    1.223   .     D
C661   C719    1.487   .     S
O663   H664    1.014   .     S
C665   O667    1.394   .     S
C665   O666    1.223   .     D
O667   H668    1.014   .     S
C671   O672    1.222   .     D
C671   O673    1.397   .     S
O673   H674    1.014   .     S
C675   O676    1.222   .     D
C675   O677    1.397   .     S
O677   H678    1.014   .     S
C679   O681    1.398   .     S
C679   O680    1.220   .     D
O681   H682    1.014   .     S
C683   O684    1.219   .     D
C683   O685    1.399   .     S
O685   H686    1.014   .     S
C687   O689    1.398   .     S
C687   O952    1.224   1_545 S
O688   C951    1.224   .     S
O689   H690    1.014   .     S
C691   O692    1.222   .     D
C691   O957    1.399   .     S
O693   H694    1.013   .     S
O693   C955    1.399   1_545 S
C695   O696    1.216   .     D
C695   O697    1.399   .     S
O697   H698    1.014   .     S
C699   O700    1.216   .     D
C699   O701    1.399   .     S
O701   H702    1.013   .     S
C705   C725    1.507   .     S
C705   O741    1.316   .     A
C705   O743    1.305   .     A
C706   C726    1.506   .     S
C706   O742    1.314   .     A
C706   O744    1.306   .     A
C707   H735    1.077   .     S
C707   C709    1.405   .     A
C707   C715    1.399   .     A
C708   C710    1.406   .     A
C708   H736    1.077   .     S
C708   C716    1.399   .     A
C709   C783    1.490   .     S
C709   N739    1.390   .     A
C710   C787    1.488   .     S
C710   N740    1.390   .     A
C711   I791    2.119   .     S
C711   C713    1.404   .     A
C711   N739    1.376   .     A
C712   N740    1.376   .     A
C712   C714    1.404   .     A
C712   I792    2.121   .     S
C713   H737    1.076   .     S
C713   C715    1.408   .     A
C714   H738    1.076   .     S
C714   C716    1.409   .     A
C716   C187    1.524   1_556 S
C717   O745    1.290   .     A
C717   C719    1.450   .     S
C717   O747    1.303   .     A
C718   O746    1.290   .     A
C718   C720    1.450   .     S
C718   O748    1.303   .     A
C720   C543    1.370   1_655 S
C720   C577    1.487   1_655 S
C721   C731    1.411   .     A
C721   I757    2.151   .     S
C721   C723    1.413   .     A
C722   C724    1.412   .     A
C722   C732    1.411   .     A
C722   I758    2.151   .     S
C723   C725    1.426   .     A
C723   C759    1.485   .     S
C724   C763    1.485   .     S
C724   C726    1.426   .     A
C725   C727    1.437   .     A
C726   C728    1.436   .     A
C727   C767    1.478   .     S
C727   C729    1.415   .     A
C728   C730    1.416   .     A
C728   C771    1.479   .     S
C729   C775    1.505   .     S
C729   C731    1.404   .     A
C730   C779    1.502   .     S
C730   C732    1.402   .     A
C731   C996    1.513   1_545 S
C732   C995    1.513   .     S
Cu733  N740    2.028   .     S
Cu733  Cu734   2.699   .     S
Cu733  O748    1.997   .     S
Cu733  O741    1.935   .     S
Cu733  O745    1.993   .     S
Cu733  O744    1.949   .     S
Cu734  N739    2.028   .     S
Cu734  O742    1.935   .     S
Cu734  O747    1.997   .     S
Cu734  O743    1.949   .     S
Cu734  O746    1.993   .     S
C749   O751    1.395   .     S
C749   O750    1.223   .     D
C749   C543    1.487   1_655 S
O751   H752    1.014   .     S
C753   O755    1.394   .     S
C753   O754    1.223   .     D
O755   H756    1.014   .     S
C759   O760    1.222   .     D
C759   O761    1.397   .     S
O761   H762    1.014   .     S
C763   O764    1.222   .     D
C763   O765    1.397   .     S
O765   H766    1.014   .     S
C767   O769    1.398   .     S
C767   O768    1.220   .     D
O769   H770    1.014   .     S
C771   O772    1.219   .     D
C771   O773    1.399   .     S
O773   H774    1.014   .     S
C775   O777    1.398   .     S
C775   O1040   1.224   1_545 S
O776   C1039   1.224   .     S
O777   H778    1.014   .     S
C779   O780    1.222   .     D
C779   O1045   1.399   .     S
O781   H782    1.013   .     S
O781   C1043   1.399   1_545 S
C783   O784    1.216   .     D
C783   O785    1.399   .     S
O785   H786    1.014   .     S
C787   O788    1.216   .     D
C787   O789    1.399   .     S
O789   H790    1.013   .     S
C793   C813    1.507   .     S
C793   O829    1.316   .     A
C793   O831    1.305   .     A
C794   C814    1.506   .     S
C794   O830    1.314   .     A
C794   O832    1.306   .     A
C795   H823    1.077   .     S
C795   C797    1.405   .     A
C795   C803    1.399   .     A
C796   C798    1.406   .     A
C796   H824    1.077   .     S
C796   C804    1.399   .     A
C797   C871    1.490   .     S
C797   N827    1.390   .     A
C798   C875    1.488   .     S
C798   N828    1.390   .     A
C799   I879    2.119   .     S
C799   C801    1.404   .     A
C799   N827    1.376   .     A
C800   N828    1.376   .     A
C800   C802    1.404   .     A
C800   I880    2.121   .     S
C801   H825    1.076   .     S
C801   C803    1.408   .     A
C802   H826    1.076   .     S
C802   C804    1.409   .     A
C804   C275    1.524   1_556 S
C805   O833    1.290   .     A
C805   C807    1.450   .     S
C805   O835    1.303   .     A
C806   O834    1.290   .     A
C806   C808    1.450   .     S
C806   O836    1.303   .     A
C807   C984    1.370   1_455 S
C807   C1013   1.487   1_455 S
C808   C895    1.370   .     S
C808   C929    1.487   .     S
C809   C819    1.411   .     A
C809   I845    2.151   .     S
C809   C811    1.413   .     A
C810   C812    1.412   .     A
C810   C820    1.411   .     A
C810   I846    2.151   .     S
C811   C813    1.426   .     A
C811   C847    1.485   .     S
C812   C851    1.485   .     S
C812   C814    1.426   .     A
C813   C815    1.437   .     A
C814   C816    1.436   .     A
C815   C855    1.478   .     S
C815   C817    1.415   .     A
C816   C818    1.416   .     A
C816   C859    1.479   .     S
C817   C863    1.505   .     S
C817   C819    1.404   .     A
C818   C867    1.502   .     S
C818   C820    1.402   .     A
C820   C555    1.513   1_565 S
Cu821  N828    2.028   .     S
Cu821  Cu822   2.699   .     S
Cu821  O836    1.997   .     S
Cu821  O829    1.935   .     S
Cu821  O833    1.993   .     S
Cu821  O832    1.949   .     S
Cu822  N827    2.028   .     S
Cu822  O830    1.935   .     S
Cu822  O835    1.997   .     S
Cu822  O831    1.949   .     S
Cu822  O834    1.993   .     S
C837   O839    1.395   .     S
C837   O838    1.223   .     D
C837   C895    1.487   .     S
O839   H840    1.014   .     S
C841   O843    1.394   .     S
C841   O842    1.223   .     D
C841   C984    1.487   1_455 S
O843   H844    1.014   .     S
C847   O848    1.222   .     D
C847   O849    1.397   .     S
O849   H850    1.014   .     S
C851   O852    1.222   .     D
C851   O853    1.397   .     S
O853   H854    1.014   .     S
C855   O857    1.398   .     S
C855   O856    1.220   .     D
O857   H858    1.014   .     S
C859   O860    1.219   .     D
C859   O861    1.399   .     S
O861   H862    1.014   .     S
C863   O865    1.398   .     S
O864   C599    1.224   1_565 S
O865   H866    1.014   .     S
C867   O868    1.222   .     D
C867   O605    1.399   1_565 S
O869   H870    1.013   .     S
C871   O872    1.216   .     D
C871   O873    1.399   .     S
O873   H874    1.014   .     S
C875   O876    1.216   .     D
C875   O877    1.399   .     S
O877   H878    1.013   .     S
C881   C901    1.507   .     S
C881   O917    1.316   .     A
C881   O919    1.305   .     A
C882   C902    1.506   .     S
C882   O918    1.314   .     A
C882   O920    1.306   .     A
C883   H911    1.077   .     S
C883   C885    1.405   .     A
C883   C891    1.399   .     A
C884   C886    1.406   .     A
C884   H912    1.077   .     S
C884   C892    1.399   .     A
C885   C959    1.490   .     S
C885   N915    1.390   .     A
C886   C963    1.488   .     S
C886   N916    1.390   .     A
C887   I967    2.119   .     S
C887   C889    1.404   .     A
C887   N915    1.376   .     A
C888   N916    1.376   .     A
C888   C890    1.404   .     A
C888   I968    2.121   .     S
C889   H913    1.076   .     S
C889   C891    1.408   .     A
C890   H914    1.076   .     S
C890   C892    1.409   .     A
C892   C363    1.524   1_556 S
C893   O921    1.290   .     A
C893   C895    1.450   .     S
C893   O923    1.303   .     A
C894   O922    1.290   .     A
C894   C896    1.450   .     S
C894   O924    1.303   .     A
C896   C983    1.370   .     S
C896   C1017   1.487   .     S
C897   C907    1.411   .     A
C897   I933    2.151   .     S
C897   C899    1.413   .     A
C898   C900    1.412   .     A
C898   C908    1.411   .     A
C898   I934    2.151   .     S
C899   C901    1.426   .     A
C899   C935    1.485   .     S
C900   C939    1.485   .     S
C900   C902    1.426   .     A
C901   C903    1.437   .     A
C902   C904    1.436   .     A
C903   C943    1.478   .     S
C903   C905    1.415   .     A
C904   C906    1.416   .     A
C904   C947    1.479   .     S
C905   C951    1.505   .     S
C905   C907    1.404   .     A
C906   C955    1.502   .     S
C906   C908    1.402   .     A
C908   C643    1.513   1_565 S
Cu909  N916    2.028   .     S
Cu909  Cu910   2.699   .     S
Cu909  O924    1.997   .     S
Cu909  O917    1.935   .     S
Cu909  O921    1.993   .     S
Cu909  O920    1.949   .     S
Cu910  N915    2.028   .     S
Cu910  O918    1.935   .     S
Cu910  O923    1.997   .     S
Cu910  O919    1.949   .     S
Cu910  O922    1.993   .     S
C925   O927    1.395   .     S
C925   O926    1.223   .     D
C925   C983    1.487   .     S
O927   H928    1.014   .     S
C929   O931    1.394   .     S
C929   O930    1.223   .     D
O931   H932    1.014   .     S
C935   O936    1.222   .     D
C935   O937    1.397   .     S
O937   H938    1.014   .     S
C939   O940    1.222   .     D
C939   O941    1.397   .     S
O941   H942    1.014   .     S
C943   O945    1.398   .     S
C943   O944    1.220   .     D
O945   H946    1.014   .     S
C947   O948    1.219   .     D
C947   O949    1.399   .     S
O949   H950    1.014   .     S
C951   O953    1.398   .     S
O952   C687    1.224   1_565 S
O953   H954    1.014   .     S
C955   O956    1.222   .     D
C955   O693    1.399   1_565 S
O957   H958    1.013   .     S
C959   O960    1.216   .     D
C959   O961    1.399   .     S
O961   H962    1.014   .     S
C963   O964    1.216   .     D
C963   O965    1.399   .     S
O965   H966    1.013   .     S
C969   C989    1.507   .     S
C969   O1005   1.316   .     A
C969   O1007   1.305   .     A
C970   C990    1.506   .     S
C970   O1006   1.314   .     A
C970   O1008   1.306   .     A
C971   H999    1.077   .     S
C971   C973    1.405   .     A
C971   C979    1.399   .     A
C972   C974    1.406   .     A
C972   H1000   1.077   .     S
C972   C980    1.399   .     A
C973   C1047   1.490   .     S
C973   N1003   1.390   .     A
C974   C1051   1.488   .     S
C974   N1004   1.390   .     A
C975   I1055   2.119   .     S
C975   C977    1.404   .     A
C975   N1003   1.376   .     A
C976   N1004   1.376   .     A
C976   C978    1.404   .     A
C976   I1056   2.121   .     S
C977   H1001   1.076   .     S
C977   C979    1.408   .     A
C978   H1002   1.076   .     S
C978   C980    1.409   .     A
C980   C451    1.524   1_556 S
C981   O1009   1.290   .     A
C981   C983    1.450   .     S
C981   O1011   1.303   .     A
C982   O1010   1.290   .     A
C982   C984    1.450   .     S
C982   O1012   1.303   .     A
C984   C807    1.370   1_655 S
C984   C841    1.487   1_655 S
C985   C995    1.411   .     A
C985   I1021   2.151   .     S
C985   C987    1.413   .     A
C986   C988    1.412   .     A
C986   C996    1.411   .     A
C986   I1022   2.151   .     S
C987   C989    1.426   .     A
C987   C1023   1.485   .     S
C988   C1027   1.485   .     S
C988   C990    1.426   .     A
C989   C991    1.437   .     A
C990   C992    1.436   .     A
C991   C1031   1.478   .     S
C991   C993    1.415   .     A
C992   C994    1.416   .     A
C992   C1035   1.479   .     S
C993   C1039   1.505   .     S
C993   C995    1.404   .     A
C994   C1043   1.502   .     S
C994   C996    1.402   .     A
C996   C731    1.513   1_565 S
Cu997  N1004   2.028   .     S
Cu997  Cu998   2.699   .     S
Cu997  O1012   1.997   .     S
Cu997  O1005   1.935   .     S
Cu997  O1009   1.993   .     S
Cu997  O1008   1.949   .     S
Cu998  N1003   2.028   .     S
Cu998  O1006   1.935   .     S
Cu998  O1011   1.997   .     S
Cu998  O1007   1.949   .     S
Cu998  O1010   1.993   .     S
C1013  O1015   1.395   .     S
C1013  O1014   1.223   .     D
C1013  C807    1.487   1_655 S
O1015  H1016   1.014   .     S
C1017  O1019   1.394   .     S
C1017  O1018   1.223   .     D
O1019  H1020   1.014   .     S
C1023  O1024   1.222   .     D
C1023  O1025   1.397   .     S
O1025  H1026   1.014   .     S
C1027  O1028   1.222   .     D
C1027  O1029   1.397   .     S
O1029  H1030   1.014   .     S
C1031  O1033   1.398   .     S
C1031  O1032   1.220   .     D
O1033  H1034   1.014   .     S
C1035  O1036   1.219   .     D
C1035  O1037   1.399   .     S
O1037  H1038   1.014   .     S
C1039  O1041   1.398   .     S
O1040  C775    1.224   1_565 S
O1041  H1042   1.014   .     S
C1043  O1044   1.222   .     D
C1043  O781    1.399   1_565 S
O1045  H1046   1.013   .     S
C1047  O1048   1.216   .     D
C1047  O1049   1.399   .     S
O1049  H1050   1.014   .     S
C1051  O1052   1.216   .     D
C1051  O1053   1.399   .     S
O1053  H1054   1.013   .     S
