data_str_m2_o2_o10_pcu_sym.42
_audit_creation_date              2020-01-03
_audit_creation_method            'Materials Studio'
_symmetry_space_group_name_H-M    'P1'
_symmetry_Int_Tables_number       1
_symmetry_cell_setting            triclinic
loop_
_symmetry_equiv_pos_as_xyz
  x,y,z
_cell_length_a                    26.1915
_cell_length_b                    30.1924
_cell_length_c                    27.9669
_cell_angle_alpha                 90.5705
_cell_angle_beta                  98.0644
_cell_angle_gamma                 91.6799
loop_
_atom_site_label
_atom_site_type_symbol
_atom_site_fract_x
_atom_site_fract_y
_atom_site_fract_z
_atom_site_U_iso_or_equiv
_atom_site_adp_type
_atom_site_occupancy
C1     C     0.16664   0.16499   0.24970   0.00000  Uiso   1.00
C2     C     0.18492   0.28818   0.44888   0.00000  Uiso   1.00
C3     C     0.16395   0.25221   0.02696   0.00000  Uiso   1.00
C4     C     0.16412   0.25233   0.47251   0.00000  Uiso   1.00
C5     C     0.06799   0.24951   0.23760   0.00000  Uiso   1.00
C6     C     0.26536   0.24996   0.26243   0.00000  Uiso   1.00
C7     C     0.01264   0.24835   0.23095   0.00000  Uiso   1.00
C8     C     0.32075   0.25018   0.26925   0.00000  Uiso   1.00
C9     C     0.13186   0.04759   0.27830   0.00000  Uiso   1.00
C10    C     0.12688   0.44927   0.21309   0.00000  Uiso   1.00
C11    C     0.13509   0.09371   0.27861   0.00000  Uiso   1.00
C12    C     0.16700   0.33496   0.25018   0.00000  Uiso   1.00
C13    C     0.13009   0.40331   0.21494   0.00000  Uiso   1.00
C14    C     0.16519   0.11653   0.24865   0.00000  Uiso   1.00
C15    C     0.16539   0.38324   0.24981   0.00000  Uiso   1.00
C16    C     0.19245   0.09279   0.21737   0.00000  Uiso   1.00
C17    C     0.19908   0.40950   0.28279   0.00000  Uiso   1.00
C18    C     0.18953   0.04655   0.21692   0.00000  Uiso   1.00
C19    C     0.19622   0.45552   0.28114   0.00000  Uiso   1.00
C20    C     0.15972   0.02388   0.24712   0.00000  Uiso   1.00
C21    C     0.16041   0.47552   0.24687   0.00000  Uiso   1.00
C22    C     0.20593   0.27022   0.05890   0.00000  Uiso   1.00
C23    C     0.14370   0.21607   0.44323   0.00000  Uiso   1.00
C24    C     0.20539   0.27123   0.10935   0.00000  Uiso   1.00
C25    C     0.14255   0.21647   0.39255   0.00000  Uiso   1.00
C26    C     0.12579   0.23070   0.09882   0.00000  Uiso   1.00
C27    C     0.18895   0.28510   0.39899   0.00000  Uiso   1.00
C28    C     0.12231   0.23405   0.04800   0.00000  Uiso   1.00
Cu29   Cu    0.16667   0.25000   0.29822   0.00000  Uiso   1.00
Cu30   Cu    0.16667   0.25001   0.20179   0.00000  Uiso   1.00
H31    H     0.32595   0.24569   0.19433   0.00000  Uiso   1.00
H32    H     0.09122   0.49933   0.18125   0.00000  Uiso   1.00
H33    H     0.21120   0.10607   0.15127   0.00000  Uiso   1.00
H34    H     0.26194   0.10475   0.19580   0.00000  Uiso   1.00
H35    H     0.27376   0.40120   0.30936   0.00000  Uiso   1.00
H36    H     0.23315   0.40102   0.35115   0.00000  Uiso   1.00
H37    H     0.24251   0.32916   0.12939   0.00000  Uiso   1.00
H38    H     0.28066   0.28508   0.13183   0.00000  Uiso   1.00
H39    H     0.13002   0.15158   0.37692   0.00000  Uiso   1.00
H40    H     0.07644   0.18199   0.37000   0.00000  Uiso   1.00
H41    H     0.10151   0.19118   0.14427   0.00000  Uiso   1.00
H42    H     0.00751   0.25224   0.30600   0.00000  Uiso   1.00
H43    H     0.23527   0.30545   0.35646   0.00000  Uiso   1.00
H44    H     0.04522   0.23728   0.02815   0.00000  Uiso   1.00
H45    H     0.06889   0.18593   0.02465   0.00000  Uiso   1.00
H46    H     0.18080   0.35438   0.45857   0.00000  Uiso   1.00
H47    H     0.24067   0.33431   0.47251   0.00000  Uiso   1.00
H48    H     0.11292   0.11180   0.30169   0.00000  Uiso   1.00
H49    H     0.10431   0.38304   0.18929   0.00000  Uiso   1.00
H50    H     0.21110   0.02820   0.19336   0.00000  Uiso   1.00
H51    H     0.22233   0.47583   0.30646   0.00000  Uiso   1.00
H52    H     0.23940   0.28411   0.04513   0.00000  Uiso   1.00
H53    H     0.12796   0.18716   0.45920   0.00000  Uiso   1.00
H54    H     0.10011   0.49502   0.30375   0.00000  Uiso   1.00
N55    N     0.16667   0.25001   0.12935   0.00000  Uiso   1.00
N56    N     0.16667   0.24999   0.37066   0.00000  Uiso   1.00
N57    N     0.22421   0.11547   0.18710   0.00000  Uiso   1.00
N58    N     0.23761   0.38971   0.31657   0.00000  Uiso   1.00
N59    N     0.24509   0.29594   0.13937   0.00000  Uiso   1.00
N60    N     0.11499   0.18163   0.36416   0.00000  Uiso   1.00
N61    N     0.07574   0.21946   0.01807   0.00000  Uiso   1.00
N62    N     0.20164   0.32829   0.47508   0.00000  Uiso   1.00
O63    O     0.16667   0.18573   0.29072   0.00000  Uiso   1.00
O64    O     0.09061   0.46666   0.17818   0.00000  Uiso   1.00
O65    O     0.08617   0.20817   0.11630   0.00000  Uiso   1.00
O66    O     0.21561   0.31884   0.38008   0.00000  Uiso   1.00
O67    O     0.16666   0.31428   0.20929   0.00000  Uiso   1.00
O68    O     0.16667   0.18573   0.20928   0.00000  Uiso   1.00
O69    O     0.16666   0.31427   0.29072   0.00000  Uiso   1.00
O70    O     0.09161   0.25000   0.28132   0.00000  Uiso   1.00
O71    O     0.24172   0.25001   0.21868   0.00000  Uiso   1.00
O72    O     0.09161   0.25000   0.19989   0.00000  Uiso   1.00
O73    O     0.24172   0.25000   0.30012   0.00000  Uiso   1.00
O74    O     0.10120   0.02752   0.30874   0.00000  Uiso   1.00
C75    C     0.49997   0.16499   0.24970   0.00000  Uiso   1.00
C76    C     0.51826   0.28818   0.44888   0.00000  Uiso   1.00
C77    C     0.49729   0.25221   0.02696   0.00000  Uiso   1.00
C78    C     0.49745   0.25233   0.47251   0.00000  Uiso   1.00
C79    C     0.40132   0.24951   0.23760   0.00000  Uiso   1.00
C80    C     0.59870   0.24996   0.26243   0.00000  Uiso   1.00
C81    C     0.34598   0.24835   0.23095   0.00000  Uiso   1.00
C82    C     0.65408   0.25018   0.26925   0.00000  Uiso   1.00
C83    C     0.46520   0.04759   0.27830   0.00000  Uiso   1.00
C84    C     0.46021   0.44927   0.21309   0.00000  Uiso   1.00
C85    C     0.46843   0.09371   0.27861   0.00000  Uiso   1.00
C86    C     0.50034   0.33496   0.25018   0.00000  Uiso   1.00
C87    C     0.46342   0.40331   0.21494   0.00000  Uiso   1.00
C88    C     0.49852   0.11653   0.24865   0.00000  Uiso   1.00
C89    C     0.49873   0.38324   0.24981   0.00000  Uiso   1.00
C90    C     0.52578   0.09279   0.21737   0.00000  Uiso   1.00
C91    C     0.53241   0.40950   0.28279   0.00000  Uiso   1.00
C92    C     0.52287   0.04655   0.21692   0.00000  Uiso   1.00
C93    C     0.52955   0.45552   0.28114   0.00000  Uiso   1.00
C94    C     0.49306   0.02388   0.24712   0.00000  Uiso   1.00
C95    C     0.49374   0.47552   0.24687   0.00000  Uiso   1.00
C96    C     0.53926   0.27022   0.05890   0.00000  Uiso   1.00
C97    C     0.47703   0.21607   0.44323   0.00000  Uiso   1.00
C98    C     0.53872   0.27123   0.10935   0.00000  Uiso   1.00
C99    C     0.47588   0.21647   0.39255   0.00000  Uiso   1.00
C100   C     0.45913   0.23070   0.09882   0.00000  Uiso   1.00
C101   C     0.52228   0.28510   0.39899   0.00000  Uiso   1.00
C102   C     0.45564   0.23405   0.04800   0.00000  Uiso   1.00
Cu103  Cu    0.50000   0.25000   0.29822   0.00000  Uiso   1.00
Cu104  Cu    0.50000   0.25001   0.20179   0.00000  Uiso   1.00
H105   H     0.65929   0.24569   0.19433   0.00000  Uiso   1.00
H106   H     0.42456   0.49933   0.18125   0.00000  Uiso   1.00
H107   H     0.54453   0.10607   0.15127   0.00000  Uiso   1.00
H108   H     0.59527   0.10475   0.19580   0.00000  Uiso   1.00
H109   H     0.60710   0.40120   0.30936   0.00000  Uiso   1.00
H110   H     0.56648   0.40102   0.35115   0.00000  Uiso   1.00
H111   H     0.57584   0.32916   0.12939   0.00000  Uiso   1.00
H112   H     0.61400   0.28508   0.13183   0.00000  Uiso   1.00
H113   H     0.46335   0.15158   0.37692   0.00000  Uiso   1.00
H114   H     0.40977   0.18199   0.37000   0.00000  Uiso   1.00
H115   H     0.43485   0.19118   0.14427   0.00000  Uiso   1.00
H116   H     0.34085   0.25224   0.30600   0.00000  Uiso   1.00
H117   H     0.56860   0.30545   0.35646   0.00000  Uiso   1.00
H118   H     0.37856   0.23728   0.02815   0.00000  Uiso   1.00
H119   H     0.40223   0.18593   0.02465   0.00000  Uiso   1.00
H120   H     0.51413   0.35438   0.45857   0.00000  Uiso   1.00
H121   H     0.57401   0.33431   0.47251   0.00000  Uiso   1.00
H122   H     0.44626   0.11180   0.30169   0.00000  Uiso   1.00
H123   H     0.43765   0.38304   0.18929   0.00000  Uiso   1.00
H124   H     0.54443   0.02820   0.19336   0.00000  Uiso   1.00
H125   H     0.55566   0.47583   0.30646   0.00000  Uiso   1.00
H126   H     0.57273   0.28411   0.04513   0.00000  Uiso   1.00
H127   H     0.46130   0.18716   0.45920   0.00000  Uiso   1.00
H128   H     0.43345   0.49502   0.30375   0.00000  Uiso   1.00
N129   N     0.50000   0.25001   0.12935   0.00000  Uiso   1.00
N130   N     0.50000   0.24999   0.37066   0.00000  Uiso   1.00
N131   N     0.55754   0.11547   0.18710   0.00000  Uiso   1.00
N132   N     0.57095   0.38971   0.31657   0.00000  Uiso   1.00
N133   N     0.57842   0.29594   0.13937   0.00000  Uiso   1.00
N134   N     0.44833   0.18163   0.36416   0.00000  Uiso   1.00
N135   N     0.40908   0.21946   0.01807   0.00000  Uiso   1.00
N136   N     0.53497   0.32829   0.47508   0.00000  Uiso   1.00
O137   O     0.50000   0.18573   0.29072   0.00000  Uiso   1.00
O138   O     0.42394   0.46666   0.17818   0.00000  Uiso   1.00
O139   O     0.41950   0.20817   0.11630   0.00000  Uiso   1.00
O140   O     0.54894   0.31884   0.38008   0.00000  Uiso   1.00
O141   O     0.50000   0.31428   0.20929   0.00000  Uiso   1.00
O142   O     0.50000   0.18573   0.20928   0.00000  Uiso   1.00
O143   O     0.50000   0.31427   0.29072   0.00000  Uiso   1.00
O144   O     0.42495   0.25000   0.28132   0.00000  Uiso   1.00
O145   O     0.57505   0.25001   0.21868   0.00000  Uiso   1.00
O146   O     0.42495   0.25000   0.19989   0.00000  Uiso   1.00
O147   O     0.57505   0.25000   0.30012   0.00000  Uiso   1.00
O148   O     0.43453   0.02752   0.30874   0.00000  Uiso   1.00
C149   C     0.83331   0.16499   0.24970   0.00000  Uiso   1.00
C150   C     0.85159   0.28818   0.44888   0.00000  Uiso   1.00
C151   C     0.83062   0.25221   0.02696   0.00000  Uiso   1.00
C152   C     0.83078   0.25233   0.47251   0.00000  Uiso   1.00
C153   C     0.73465   0.24951   0.23760   0.00000  Uiso   1.00
C154   C     0.93203   0.24996   0.26243   0.00000  Uiso   1.00
C155   C     0.67931   0.24835   0.23095   0.00000  Uiso   1.00
C156   C     0.98741   0.25018   0.26925   0.00000  Uiso   1.00
C157   C     0.79853   0.04759   0.27830   0.00000  Uiso   1.00
C158   C     0.79354   0.44927   0.21309   0.00000  Uiso   1.00
C159   C     0.80176   0.09371   0.27861   0.00000  Uiso   1.00
C160   C     0.83367   0.33496   0.25018   0.00000  Uiso   1.00
C161   C     0.79676   0.40331   0.21494   0.00000  Uiso   1.00
C162   C     0.83186   0.11653   0.24865   0.00000  Uiso   1.00
C163   C     0.83206   0.38324   0.24981   0.00000  Uiso   1.00
C164   C     0.85912   0.09279   0.21737   0.00000  Uiso   1.00
C165   C     0.86574   0.40950   0.28279   0.00000  Uiso   1.00
C166   C     0.85620   0.04655   0.21692   0.00000  Uiso   1.00
C167   C     0.86289   0.45552   0.28114   0.00000  Uiso   1.00
C168   C     0.82639   0.02388   0.24712   0.00000  Uiso   1.00
C169   C     0.82707   0.47552   0.24687   0.00000  Uiso   1.00
C170   C     0.87260   0.27022   0.05890   0.00000  Uiso   1.00
C171   C     0.81036   0.21607   0.44323   0.00000  Uiso   1.00
C172   C     0.87206   0.27123   0.10935   0.00000  Uiso   1.00
C173   C     0.80921   0.21647   0.39255   0.00000  Uiso   1.00
C174   C     0.79246   0.23070   0.09882   0.00000  Uiso   1.00
C175   C     0.85561   0.28510   0.39899   0.00000  Uiso   1.00
C176   C     0.78897   0.23405   0.04800   0.00000  Uiso   1.00
Cu177  Cu    0.83333   0.25000   0.29822   0.00000  Uiso   1.00
Cu178  Cu    0.83333   0.25001   0.20179   0.00000  Uiso   1.00
H179   H     0.99262   0.24569   0.19433   0.00000  Uiso   1.00
H180   H     0.75789   0.49933   0.18125   0.00000  Uiso   1.00
H181   H     0.87787   0.10607   0.15127   0.00000  Uiso   1.00
H182   H     0.92861   0.10475   0.19580   0.00000  Uiso   1.00
H183   H     0.94043   0.40120   0.30936   0.00000  Uiso   1.00
H184   H     0.89981   0.40102   0.35115   0.00000  Uiso   1.00
H185   H     0.90918   0.32916   0.12939   0.00000  Uiso   1.00
H186   H     0.94733   0.28508   0.13183   0.00000  Uiso   1.00
H187   H     0.79668   0.15158   0.37692   0.00000  Uiso   1.00
H188   H     0.74311   0.18199   0.37000   0.00000  Uiso   1.00
H189   H     0.76818   0.19118   0.14427   0.00000  Uiso   1.00
H190   H     0.67418   0.25224   0.30600   0.00000  Uiso   1.00
H191   H     0.90194   0.30545   0.35646   0.00000  Uiso   1.00
H192   H     0.71189   0.23728   0.02815   0.00000  Uiso   1.00
H193   H     0.73556   0.18593   0.02465   0.00000  Uiso   1.00
H194   H     0.84747   0.35438   0.45857   0.00000  Uiso   1.00
H195   H     0.90734   0.33431   0.47251   0.00000  Uiso   1.00
H196   H     0.77959   0.11180   0.30169   0.00000  Uiso   1.00
H197   H     0.77098   0.38304   0.18929   0.00000  Uiso   1.00
H198   H     0.87777   0.02820   0.19336   0.00000  Uiso   1.00
H199   H     0.88899   0.47583   0.30646   0.00000  Uiso   1.00
H200   H     0.90607   0.28411   0.04513   0.00000  Uiso   1.00
H201   H     0.79463   0.18716   0.45920   0.00000  Uiso   1.00
H202   H     0.76678   0.49502   0.30375   0.00000  Uiso   1.00
N203   N     0.83333   0.25001   0.12935   0.00000  Uiso   1.00
N204   N     0.83333   0.24999   0.37066   0.00000  Uiso   1.00
N205   N     0.89088   0.11547   0.18710   0.00000  Uiso   1.00
N206   N     0.90428   0.38971   0.31657   0.00000  Uiso   1.00
N207   N     0.91175   0.29594   0.13937   0.00000  Uiso   1.00
N208   N     0.78166   0.18163   0.36416   0.00000  Uiso   1.00
N209   N     0.74241   0.21946   0.01807   0.00000  Uiso   1.00
N210   N     0.86830   0.32829   0.47508   0.00000  Uiso   1.00
O211   O     0.83334   0.18573   0.29072   0.00000  Uiso   1.00
O212   O     0.75727   0.46666   0.17818   0.00000  Uiso   1.00
O213   O     0.75284   0.20817   0.11630   0.00000  Uiso   1.00
O214   O     0.88227   0.31884   0.38008   0.00000  Uiso   1.00
O215   O     0.83333   0.31428   0.20929   0.00000  Uiso   1.00
O216   O     0.83334   0.18573   0.20928   0.00000  Uiso   1.00
O217   O     0.83333   0.31427   0.29072   0.00000  Uiso   1.00
O218   O     0.75828   0.25000   0.28132   0.00000  Uiso   1.00
O219   O     0.90839   0.25001   0.21868   0.00000  Uiso   1.00
O220   O     0.75828   0.25000   0.19989   0.00000  Uiso   1.00
O221   O     0.90839   0.25000   0.30012   0.00000  Uiso   1.00
O222   O     0.76786   0.02752   0.30874   0.00000  Uiso   1.00
C223   C     0.16664   0.66499   0.24970   0.00000  Uiso   1.00
C224   C     0.18492   0.78818   0.44888   0.00000  Uiso   1.00
C225   C     0.16395   0.75221   0.02696   0.00000  Uiso   1.00
C226   C     0.16412   0.75233   0.47251   0.00000  Uiso   1.00
C227   C     0.06799   0.74951   0.23760   0.00000  Uiso   1.00
C228   C     0.26536   0.74996   0.26243   0.00000  Uiso   1.00
C229   C     0.01264   0.74835   0.23095   0.00000  Uiso   1.00
C230   C     0.32075   0.75018   0.26925   0.00000  Uiso   1.00
C231   C     0.13186   0.54759   0.27830   0.00000  Uiso   1.00
C232   C     0.12688   0.94927   0.21309   0.00000  Uiso   1.00
C233   C     0.13509   0.59371   0.27861   0.00000  Uiso   1.00
C234   C     0.16700   0.83496   0.25018   0.00000  Uiso   1.00
C235   C     0.13009   0.90331   0.21494   0.00000  Uiso   1.00
C236   C     0.16519   0.61653   0.24865   0.00000  Uiso   1.00
C237   C     0.16539   0.88324   0.24981   0.00000  Uiso   1.00
C238   C     0.19245   0.59279   0.21737   0.00000  Uiso   1.00
C239   C     0.19908   0.90950   0.28279   0.00000  Uiso   1.00
C240   C     0.18953   0.54655   0.21692   0.00000  Uiso   1.00
C241   C     0.19622   0.95552   0.28114   0.00000  Uiso   1.00
C242   C     0.15972   0.52388   0.24712   0.00000  Uiso   1.00
C243   C     0.16041   0.97552   0.24687   0.00000  Uiso   1.00
C244   C     0.20593   0.77022   0.05890   0.00000  Uiso   1.00
C245   C     0.14370   0.71607   0.44323   0.00000  Uiso   1.00
C246   C     0.20539   0.77123   0.10935   0.00000  Uiso   1.00
C247   C     0.14255   0.71647   0.39255   0.00000  Uiso   1.00
C248   C     0.12579   0.73070   0.09882   0.00000  Uiso   1.00
C249   C     0.18895   0.78510   0.39899   0.00000  Uiso   1.00
C250   C     0.12231   0.73405   0.04800   0.00000  Uiso   1.00
Cu251  Cu    0.16667   0.75000   0.29822   0.00000  Uiso   1.00
Cu252  Cu    0.16667   0.75001   0.20179   0.00000  Uiso   1.00
H253   H     0.32595   0.74569   0.19433   0.00000  Uiso   1.00
H254   H     0.09122   0.99933   0.18125   0.00000  Uiso   1.00
H255   H     0.21120   0.60607   0.15127   0.00000  Uiso   1.00
H256   H     0.26194   0.60475   0.19580   0.00000  Uiso   1.00
H257   H     0.27376   0.90120   0.30936   0.00000  Uiso   1.00
H258   H     0.23315   0.90102   0.35115   0.00000  Uiso   1.00
H259   H     0.24251   0.82916   0.12939   0.00000  Uiso   1.00
H260   H     0.28066   0.78508   0.13183   0.00000  Uiso   1.00
H261   H     0.13002   0.65158   0.37692   0.00000  Uiso   1.00
H262   H     0.07644   0.68199   0.37000   0.00000  Uiso   1.00
H263   H     0.10151   0.69118   0.14427   0.00000  Uiso   1.00
H264   H     0.00751   0.75224   0.30600   0.00000  Uiso   1.00
H265   H     0.23527   0.80545   0.35646   0.00000  Uiso   1.00
H266   H     0.04522   0.73728   0.02815   0.00000  Uiso   1.00
H267   H     0.06889   0.68593   0.02465   0.00000  Uiso   1.00
H268   H     0.18080   0.85438   0.45857   0.00000  Uiso   1.00
H269   H     0.24067   0.83431   0.47251   0.00000  Uiso   1.00
H270   H     0.11292   0.61180   0.30169   0.00000  Uiso   1.00
H271   H     0.10431   0.88304   0.18929   0.00000  Uiso   1.00
H272   H     0.21110   0.52820   0.19336   0.00000  Uiso   1.00
H273   H     0.22233   0.97583   0.30646   0.00000  Uiso   1.00
H274   H     0.23940   0.78411   0.04513   0.00000  Uiso   1.00
H275   H     0.12796   0.68716   0.45920   0.00000  Uiso   1.00
H276   H     0.10011   0.99502   0.30375   0.00000  Uiso   1.00
N277   N     0.16667   0.75001   0.12935   0.00000  Uiso   1.00
N278   N     0.16667   0.74999   0.37066   0.00000  Uiso   1.00
N279   N     0.22421   0.61547   0.18710   0.00000  Uiso   1.00
N280   N     0.23761   0.88971   0.31657   0.00000  Uiso   1.00
N281   N     0.24509   0.79594   0.13937   0.00000  Uiso   1.00
N282   N     0.11499   0.68163   0.36416   0.00000  Uiso   1.00
N283   N     0.07574   0.71946   0.01807   0.00000  Uiso   1.00
N284   N     0.20164   0.82829   0.47508   0.00000  Uiso   1.00
O285   O     0.16667   0.68573   0.29072   0.00000  Uiso   1.00
O286   O     0.09061   0.96666   0.17818   0.00000  Uiso   1.00
O287   O     0.08617   0.70817   0.11630   0.00000  Uiso   1.00
O288   O     0.21561   0.81884   0.38008   0.00000  Uiso   1.00
O289   O     0.16666   0.81428   0.20929   0.00000  Uiso   1.00
O290   O     0.16667   0.68573   0.20928   0.00000  Uiso   1.00
O291   O     0.16666   0.81427   0.29072   0.00000  Uiso   1.00
O292   O     0.09161   0.75000   0.28132   0.00000  Uiso   1.00
O293   O     0.24172   0.75001   0.21868   0.00000  Uiso   1.00
O294   O     0.09161   0.75000   0.19989   0.00000  Uiso   1.00
O295   O     0.24172   0.75000   0.30012   0.00000  Uiso   1.00
O296   O     0.10120   0.52752   0.30874   0.00000  Uiso   1.00
C297   C     0.49997   0.66499   0.24970   0.00000  Uiso   1.00
C298   C     0.51826   0.78818   0.44888   0.00000  Uiso   1.00
C299   C     0.49729   0.75221   0.02696   0.00000  Uiso   1.00
C300   C     0.49745   0.75233   0.47251   0.00000  Uiso   1.00
C301   C     0.40132   0.74951   0.23760   0.00000  Uiso   1.00
C302   C     0.59870   0.74996   0.26243   0.00000  Uiso   1.00
C303   C     0.34598   0.74835   0.23095   0.00000  Uiso   1.00
C304   C     0.65408   0.75018   0.26925   0.00000  Uiso   1.00
C305   C     0.46520   0.54759   0.27830   0.00000  Uiso   1.00
C306   C     0.46021   0.94927   0.21309   0.00000  Uiso   1.00
C307   C     0.46843   0.59371   0.27861   0.00000  Uiso   1.00
C308   C     0.50034   0.83496   0.25018   0.00000  Uiso   1.00
C309   C     0.46342   0.90331   0.21494   0.00000  Uiso   1.00
C310   C     0.49852   0.61653   0.24865   0.00000  Uiso   1.00
C311   C     0.49873   0.88324   0.24981   0.00000  Uiso   1.00
C312   C     0.52578   0.59279   0.21737   0.00000  Uiso   1.00
C313   C     0.53241   0.90950   0.28279   0.00000  Uiso   1.00
C314   C     0.52287   0.54655   0.21692   0.00000  Uiso   1.00
C315   C     0.52955   0.95552   0.28114   0.00000  Uiso   1.00
C316   C     0.49306   0.52388   0.24712   0.00000  Uiso   1.00
C317   C     0.49374   0.97552   0.24687   0.00000  Uiso   1.00
C318   C     0.53926   0.77022   0.05890   0.00000  Uiso   1.00
C319   C     0.47703   0.71607   0.44323   0.00000  Uiso   1.00
C320   C     0.53872   0.77123   0.10935   0.00000  Uiso   1.00
C321   C     0.47588   0.71647   0.39255   0.00000  Uiso   1.00
C322   C     0.45913   0.73070   0.09882   0.00000  Uiso   1.00
C323   C     0.52228   0.78510   0.39899   0.00000  Uiso   1.00
C324   C     0.45564   0.73405   0.04800   0.00000  Uiso   1.00
Cu325  Cu    0.50000   0.75000   0.29822   0.00000  Uiso   1.00
Cu326  Cu    0.50000   0.75001   0.20179   0.00000  Uiso   1.00
H327   H     0.65929   0.74569   0.19433   0.00000  Uiso   1.00
H328   H     0.42456   0.99933   0.18125   0.00000  Uiso   1.00
H329   H     0.54453   0.60607   0.15127   0.00000  Uiso   1.00
H330   H     0.59527   0.60475   0.19580   0.00000  Uiso   1.00
H331   H     0.60710   0.90120   0.30936   0.00000  Uiso   1.00
H332   H     0.56648   0.90102   0.35115   0.00000  Uiso   1.00
H333   H     0.57584   0.82916   0.12939   0.00000  Uiso   1.00
H334   H     0.61400   0.78508   0.13183   0.00000  Uiso   1.00
H335   H     0.46335   0.65158   0.37692   0.00000  Uiso   1.00
H336   H     0.40977   0.68199   0.37000   0.00000  Uiso   1.00
H337   H     0.43485   0.69118   0.14427   0.00000  Uiso   1.00
H338   H     0.34085   0.75224   0.30600   0.00000  Uiso   1.00
H339   H     0.56860   0.80545   0.35646   0.00000  Uiso   1.00
H340   H     0.37856   0.73728   0.02815   0.00000  Uiso   1.00
H341   H     0.40223   0.68593   0.02465   0.00000  Uiso   1.00
H342   H     0.51413   0.85438   0.45857   0.00000  Uiso   1.00
H343   H     0.57401   0.83431   0.47251   0.00000  Uiso   1.00
H344   H     0.44626   0.61180   0.30169   0.00000  Uiso   1.00
H345   H     0.43765   0.88304   0.18929   0.00000  Uiso   1.00
H346   H     0.54443   0.52820   0.19336   0.00000  Uiso   1.00
H347   H     0.55566   0.97583   0.30646   0.00000  Uiso   1.00
H348   H     0.57273   0.78411   0.04513   0.00000  Uiso   1.00
H349   H     0.46130   0.68716   0.45920   0.00000  Uiso   1.00
H350   H     0.43345   0.99502   0.30375   0.00000  Uiso   1.00
N351   N     0.50000   0.75001   0.12935   0.00000  Uiso   1.00
N352   N     0.50000   0.74999   0.37066   0.00000  Uiso   1.00
N353   N     0.55754   0.61547   0.18710   0.00000  Uiso   1.00
N354   N     0.57095   0.88971   0.31657   0.00000  Uiso   1.00
N355   N     0.57842   0.79594   0.13937   0.00000  Uiso   1.00
N356   N     0.44833   0.68163   0.36416   0.00000  Uiso   1.00
N357   N     0.40908   0.71946   0.01807   0.00000  Uiso   1.00
N358   N     0.53497   0.82829   0.47508   0.00000  Uiso   1.00
O359   O     0.50000   0.68573   0.29072   0.00000  Uiso   1.00
O360   O     0.42394   0.96666   0.17818   0.00000  Uiso   1.00
O361   O     0.41950   0.70817   0.11630   0.00000  Uiso   1.00
O362   O     0.54894   0.81884   0.38008   0.00000  Uiso   1.00
O363   O     0.50000   0.81428   0.20929   0.00000  Uiso   1.00
O364   O     0.50000   0.68573   0.20928   0.00000  Uiso   1.00
O365   O     0.50000   0.81427   0.29072   0.00000  Uiso   1.00
O366   O     0.42495   0.75000   0.28132   0.00000  Uiso   1.00
O367   O     0.57505   0.75001   0.21868   0.00000  Uiso   1.00
O368   O     0.42495   0.75000   0.19989   0.00000  Uiso   1.00
O369   O     0.57505   0.75000   0.30012   0.00000  Uiso   1.00
O370   O     0.43453   0.52752   0.30874   0.00000  Uiso   1.00
C371   C     0.83331   0.66499   0.24970   0.00000  Uiso   1.00
C372   C     0.85159   0.78818   0.44888   0.00000  Uiso   1.00
C373   C     0.83062   0.75221   0.02696   0.00000  Uiso   1.00
C374   C     0.83078   0.75233   0.47251   0.00000  Uiso   1.00
C375   C     0.73465   0.74951   0.23760   0.00000  Uiso   1.00
C376   C     0.93203   0.74996   0.26243   0.00000  Uiso   1.00
C377   C     0.67931   0.74835   0.23095   0.00000  Uiso   1.00
C378   C     0.98741   0.75018   0.26925   0.00000  Uiso   1.00
C379   C     0.79853   0.54759   0.27830   0.00000  Uiso   1.00
C380   C     0.79354   0.94927   0.21309   0.00000  Uiso   1.00
C381   C     0.80176   0.59371   0.27861   0.00000  Uiso   1.00
C382   C     0.83367   0.83496   0.25018   0.00000  Uiso   1.00
C383   C     0.79676   0.90331   0.21494   0.00000  Uiso   1.00
C384   C     0.83186   0.61653   0.24865   0.00000  Uiso   1.00
C385   C     0.83206   0.88324   0.24981   0.00000  Uiso   1.00
C386   C     0.85912   0.59279   0.21737   0.00000  Uiso   1.00
C387   C     0.86574   0.90950   0.28279   0.00000  Uiso   1.00
C388   C     0.85620   0.54655   0.21692   0.00000  Uiso   1.00
C389   C     0.86289   0.95552   0.28114   0.00000  Uiso   1.00
C390   C     0.82639   0.52388   0.24712   0.00000  Uiso   1.00
C391   C     0.82707   0.97552   0.24687   0.00000  Uiso   1.00
C392   C     0.87260   0.77022   0.05890   0.00000  Uiso   1.00
C393   C     0.81036   0.71607   0.44323   0.00000  Uiso   1.00
C394   C     0.87206   0.77123   0.10935   0.00000  Uiso   1.00
C395   C     0.80921   0.71647   0.39255   0.00000  Uiso   1.00
C396   C     0.79246   0.73070   0.09882   0.00000  Uiso   1.00
C397   C     0.85561   0.78510   0.39899   0.00000  Uiso   1.00
C398   C     0.78897   0.73405   0.04800   0.00000  Uiso   1.00
Cu399  Cu    0.83333   0.75000   0.29822   0.00000  Uiso   1.00
Cu400  Cu    0.83333   0.75001   0.20179   0.00000  Uiso   1.00
H401   H     0.99262   0.74569   0.19433   0.00000  Uiso   1.00
H402   H     0.75789   0.99933   0.18125   0.00000  Uiso   1.00
H403   H     0.87787   0.60607   0.15127   0.00000  Uiso   1.00
H404   H     0.92861   0.60475   0.19580   0.00000  Uiso   1.00
H405   H     0.94043   0.90120   0.30936   0.00000  Uiso   1.00
H406   H     0.89981   0.90102   0.35115   0.00000  Uiso   1.00
H407   H     0.90918   0.82916   0.12939   0.00000  Uiso   1.00
H408   H     0.94733   0.78508   0.13183   0.00000  Uiso   1.00
H409   H     0.79668   0.65158   0.37692   0.00000  Uiso   1.00
H410   H     0.74311   0.68199   0.37000   0.00000  Uiso   1.00
H411   H     0.76818   0.69118   0.14427   0.00000  Uiso   1.00
H412   H     0.67418   0.75224   0.30600   0.00000  Uiso   1.00
H413   H     0.90194   0.80545   0.35646   0.00000  Uiso   1.00
H414   H     0.71189   0.73728   0.02815   0.00000  Uiso   1.00
H415   H     0.73556   0.68593   0.02465   0.00000  Uiso   1.00
H416   H     0.84747   0.85438   0.45857   0.00000  Uiso   1.00
H417   H     0.90734   0.83431   0.47251   0.00000  Uiso   1.00
H418   H     0.77959   0.61180   0.30169   0.00000  Uiso   1.00
H419   H     0.77098   0.88304   0.18929   0.00000  Uiso   1.00
H420   H     0.87777   0.52820   0.19336   0.00000  Uiso   1.00
H421   H     0.88899   0.97583   0.30646   0.00000  Uiso   1.00
H422   H     0.90607   0.78411   0.04513   0.00000  Uiso   1.00
H423   H     0.79463   0.68716   0.45920   0.00000  Uiso   1.00
H424   H     0.76678   0.99502   0.30375   0.00000  Uiso   1.00
N425   N     0.83333   0.75001   0.12935   0.00000  Uiso   1.00
N426   N     0.83333   0.74999   0.37066   0.00000  Uiso   1.00
N427   N     0.89088   0.61547   0.18710   0.00000  Uiso   1.00
N428   N     0.90428   0.88971   0.31657   0.00000  Uiso   1.00
N429   N     0.91175   0.79594   0.13937   0.00000  Uiso   1.00
N430   N     0.78166   0.68163   0.36416   0.00000  Uiso   1.00
N431   N     0.74241   0.71946   0.01807   0.00000  Uiso   1.00
N432   N     0.86830   0.82829   0.47508   0.00000  Uiso   1.00
O433   O     0.83334   0.68573   0.29072   0.00000  Uiso   1.00
O434   O     0.75727   0.96666   0.17818   0.00000  Uiso   1.00
O435   O     0.75284   0.70817   0.11630   0.00000  Uiso   1.00
O436   O     0.88227   0.81884   0.38008   0.00000  Uiso   1.00
O437   O     0.83333   0.81428   0.20929   0.00000  Uiso   1.00
O438   O     0.83334   0.68573   0.20928   0.00000  Uiso   1.00
O439   O     0.83333   0.81427   0.29072   0.00000  Uiso   1.00
O440   O     0.75828   0.75000   0.28132   0.00000  Uiso   1.00
O441   O     0.90839   0.75001   0.21868   0.00000  Uiso   1.00
O442   O     0.75828   0.75000   0.19989   0.00000  Uiso   1.00
O443   O     0.90839   0.75000   0.30012   0.00000  Uiso   1.00
O444   O     0.76786   0.52752   0.30874   0.00000  Uiso   1.00
C445   C     0.16664   0.16499   0.74970   0.00000  Uiso   1.00
C446   C     0.18492   0.28818   0.94888   0.00000  Uiso   1.00
C447   C     0.16395   0.25221   0.52696   0.00000  Uiso   1.00
C448   C     0.16412   0.25233   0.97251   0.00000  Uiso   1.00
C449   C     0.06799   0.24951   0.73760   0.00000  Uiso   1.00
C450   C     0.26536   0.24996   0.76243   0.00000  Uiso   1.00
C451   C     0.01264   0.24835   0.73095   0.00000  Uiso   1.00
C452   C     0.32075   0.25018   0.76925   0.00000  Uiso   1.00
C453   C     0.13186   0.04759   0.77830   0.00000  Uiso   1.00
C454   C     0.12688   0.44927   0.71309   0.00000  Uiso   1.00
C455   C     0.13509   0.09371   0.77861   0.00000  Uiso   1.00
C456   C     0.16700   0.33496   0.75018   0.00000  Uiso   1.00
C457   C     0.13009   0.40331   0.71494   0.00000  Uiso   1.00
C458   C     0.16519   0.11653   0.74865   0.00000  Uiso   1.00
C459   C     0.16539   0.38324   0.74981   0.00000  Uiso   1.00
C460   C     0.19245   0.09279   0.71737   0.00000  Uiso   1.00
C461   C     0.19908   0.40950   0.78279   0.00000  Uiso   1.00
C462   C     0.18953   0.04655   0.71692   0.00000  Uiso   1.00
C463   C     0.19622   0.45552   0.78114   0.00000  Uiso   1.00
C464   C     0.15972   0.02388   0.74712   0.00000  Uiso   1.00
C465   C     0.16041   0.47552   0.74687   0.00000  Uiso   1.00
C466   C     0.20593   0.27022   0.55890   0.00000  Uiso   1.00
C467   C     0.14370   0.21607   0.94323   0.00000  Uiso   1.00
C468   C     0.20539   0.27123   0.60935   0.00000  Uiso   1.00
C469   C     0.14255   0.21647   0.89255   0.00000  Uiso   1.00
C470   C     0.12579   0.23070   0.59882   0.00000  Uiso   1.00
C471   C     0.18895   0.28510   0.89899   0.00000  Uiso   1.00
C472   C     0.12231   0.23405   0.54800   0.00000  Uiso   1.00
Cu473  Cu    0.16667   0.25000   0.79822   0.00000  Uiso   1.00
Cu474  Cu    0.16667   0.25001   0.70179   0.00000  Uiso   1.00
H475   H     0.32595   0.24569   0.69433   0.00000  Uiso   1.00
H476   H     0.09122   0.49933   0.68125   0.00000  Uiso   1.00
H477   H     0.21120   0.10607   0.65127   0.00000  Uiso   1.00
H478   H     0.26194   0.10475   0.69580   0.00000  Uiso   1.00
H479   H     0.27376   0.40120   0.80936   0.00000  Uiso   1.00
H480   H     0.23315   0.40102   0.85115   0.00000  Uiso   1.00
H481   H     0.24251   0.32916   0.62939   0.00000  Uiso   1.00
H482   H     0.28066   0.28508   0.63183   0.00000  Uiso   1.00
H483   H     0.13002   0.15158   0.87692   0.00000  Uiso   1.00
H484   H     0.07644   0.18199   0.87000   0.00000  Uiso   1.00
H485   H     0.10151   0.19118   0.64427   0.00000  Uiso   1.00
H486   H     0.00751   0.25224   0.80600   0.00000  Uiso   1.00
H487   H     0.23527   0.30545   0.85646   0.00000  Uiso   1.00
H488   H     0.04522   0.23728   0.52815   0.00000  Uiso   1.00
H489   H     0.06889   0.18593   0.52465   0.00000  Uiso   1.00
H490   H     0.18080   0.35438   0.95857   0.00000  Uiso   1.00
H491   H     0.24067   0.33431   0.97251   0.00000  Uiso   1.00
H492   H     0.11292   0.11180   0.80169   0.00000  Uiso   1.00
H493   H     0.10431   0.38304   0.68929   0.00000  Uiso   1.00
H494   H     0.21110   0.02820   0.69336   0.00000  Uiso   1.00
H495   H     0.22233   0.47583   0.80646   0.00000  Uiso   1.00
H496   H     0.23940   0.28411   0.54513   0.00000  Uiso   1.00
H497   H     0.12796   0.18716   0.95920   0.00000  Uiso   1.00
H498   H     0.10011   0.49502   0.80375   0.00000  Uiso   1.00
N499   N     0.16667   0.25001   0.62935   0.00000  Uiso   1.00
N500   N     0.16667   0.24999   0.87066   0.00000  Uiso   1.00
N501   N     0.22421   0.11547   0.68710   0.00000  Uiso   1.00
N502   N     0.23761   0.38971   0.81657   0.00000  Uiso   1.00
N503   N     0.24509   0.29594   0.63937   0.00000  Uiso   1.00
N504   N     0.11499   0.18163   0.86416   0.00000  Uiso   1.00
N505   N     0.07574   0.21946   0.51807   0.00000  Uiso   1.00
N506   N     0.20164   0.32829   0.97508   0.00000  Uiso   1.00
O507   O     0.16667   0.18573   0.79072   0.00000  Uiso   1.00
O508   O     0.09061   0.46666   0.67818   0.00000  Uiso   1.00
O509   O     0.08617   0.20817   0.61630   0.00000  Uiso   1.00
O510   O     0.21561   0.31884   0.88008   0.00000  Uiso   1.00
O511   O     0.16666   0.31428   0.70929   0.00000  Uiso   1.00
O512   O     0.16667   0.18573   0.70928   0.00000  Uiso   1.00
O513   O     0.16666   0.31427   0.79072   0.00000  Uiso   1.00
O514   O     0.09161   0.25000   0.78132   0.00000  Uiso   1.00
O515   O     0.24172   0.25001   0.71868   0.00000  Uiso   1.00
O516   O     0.09161   0.25000   0.69989   0.00000  Uiso   1.00
O517   O     0.24172   0.25000   0.80012   0.00000  Uiso   1.00
O518   O     0.10120   0.02752   0.80874   0.00000  Uiso   1.00
C519   C     0.49997   0.16499   0.74970   0.00000  Uiso   1.00
C520   C     0.51826   0.28818   0.94888   0.00000  Uiso   1.00
C521   C     0.49729   0.25221   0.52696   0.00000  Uiso   1.00
C522   C     0.49745   0.25233   0.97251   0.00000  Uiso   1.00
C523   C     0.40132   0.24951   0.73760   0.00000  Uiso   1.00
C524   C     0.59870   0.24996   0.76243   0.00000  Uiso   1.00
C525   C     0.34598   0.24835   0.73095   0.00000  Uiso   1.00
C526   C     0.65408   0.25018   0.76925   0.00000  Uiso   1.00
C527   C     0.46520   0.04759   0.77830   0.00000  Uiso   1.00
C528   C     0.46021   0.44927   0.71309   0.00000  Uiso   1.00
C529   C     0.46843   0.09371   0.77861   0.00000  Uiso   1.00
C530   C     0.50034   0.33496   0.75018   0.00000  Uiso   1.00
C531   C     0.46342   0.40331   0.71494   0.00000  Uiso   1.00
C532   C     0.49852   0.11653   0.74865   0.00000  Uiso   1.00
C533   C     0.49873   0.38324   0.74981   0.00000  Uiso   1.00
C534   C     0.52578   0.09279   0.71737   0.00000  Uiso   1.00
C535   C     0.53241   0.40950   0.78279   0.00000  Uiso   1.00
C536   C     0.52287   0.04655   0.71692   0.00000  Uiso   1.00
C537   C     0.52955   0.45552   0.78114   0.00000  Uiso   1.00
C538   C     0.49306   0.02388   0.74712   0.00000  Uiso   1.00
C539   C     0.49374   0.47552   0.74687   0.00000  Uiso   1.00
C540   C     0.53926   0.27022   0.55890   0.00000  Uiso   1.00
C541   C     0.47703   0.21607   0.94323   0.00000  Uiso   1.00
C542   C     0.53872   0.27123   0.60935   0.00000  Uiso   1.00
C543   C     0.47588   0.21647   0.89255   0.00000  Uiso   1.00
C544   C     0.45913   0.23070   0.59882   0.00000  Uiso   1.00
C545   C     0.52228   0.28510   0.89899   0.00000  Uiso   1.00
C546   C     0.45564   0.23405   0.54800   0.00000  Uiso   1.00
Cu547  Cu    0.50000   0.25000   0.79822   0.00000  Uiso   1.00
Cu548  Cu    0.50000   0.25001   0.70179   0.00000  Uiso   1.00
H549   H     0.65929   0.24569   0.69433   0.00000  Uiso   1.00
H550   H     0.42456   0.49933   0.68125   0.00000  Uiso   1.00
H551   H     0.54453   0.10607   0.65127   0.00000  Uiso   1.00
H552   H     0.59527   0.10475   0.69580   0.00000  Uiso   1.00
H553   H     0.60710   0.40120   0.80936   0.00000  Uiso   1.00
H554   H     0.56648   0.40102   0.85115   0.00000  Uiso   1.00
H555   H     0.57584   0.32916   0.62939   0.00000  Uiso   1.00
H556   H     0.61400   0.28508   0.63183   0.00000  Uiso   1.00
H557   H     0.46335   0.15158   0.87692   0.00000  Uiso   1.00
H558   H     0.40977   0.18199   0.87000   0.00000  Uiso   1.00
H559   H     0.43485   0.19118   0.64427   0.00000  Uiso   1.00
H560   H     0.34085   0.25224   0.80600   0.00000  Uiso   1.00
H561   H     0.56860   0.30545   0.85646   0.00000  Uiso   1.00
H562   H     0.37856   0.23728   0.52815   0.00000  Uiso   1.00
H563   H     0.40223   0.18593   0.52465   0.00000  Uiso   1.00
H564   H     0.51413   0.35438   0.95857   0.00000  Uiso   1.00
H565   H     0.57401   0.33431   0.97251   0.00000  Uiso   1.00
H566   H     0.44626   0.11180   0.80169   0.00000  Uiso   1.00
H567   H     0.43765   0.38304   0.68929   0.00000  Uiso   1.00
H568   H     0.54443   0.02820   0.69336   0.00000  Uiso   1.00
H569   H     0.55566   0.47583   0.80646   0.00000  Uiso   1.00
H570   H     0.57273   0.28411   0.54513   0.00000  Uiso   1.00
H571   H     0.46130   0.18716   0.95920   0.00000  Uiso   1.00
H572   H     0.43345   0.49502   0.80375   0.00000  Uiso   1.00
N573   N     0.50000   0.25001   0.62935   0.00000  Uiso   1.00
N574   N     0.50000   0.24999   0.87066   0.00000  Uiso   1.00
N575   N     0.55754   0.11547   0.68710   0.00000  Uiso   1.00
N576   N     0.57095   0.38971   0.81657   0.00000  Uiso   1.00
N577   N     0.57842   0.29594   0.63937   0.00000  Uiso   1.00
N578   N     0.44833   0.18163   0.86416   0.00000  Uiso   1.00
N579   N     0.40908   0.21946   0.51807   0.00000  Uiso   1.00
N580   N     0.53497   0.32829   0.97508   0.00000  Uiso   1.00
O581   O     0.50000   0.18573   0.79072   0.00000  Uiso   1.00
O582   O     0.42394   0.46666   0.67818   0.00000  Uiso   1.00
O583   O     0.41950   0.20817   0.61630   0.00000  Uiso   1.00
O584   O     0.54894   0.31884   0.88008   0.00000  Uiso   1.00
O585   O     0.50000   0.31428   0.70929   0.00000  Uiso   1.00
O586   O     0.50000   0.18573   0.70928   0.00000  Uiso   1.00
O587   O     0.50000   0.31427   0.79072   0.00000  Uiso   1.00
O588   O     0.42495   0.25000   0.78132   0.00000  Uiso   1.00
O589   O     0.57505   0.25001   0.71868   0.00000  Uiso   1.00
O590   O     0.42495   0.25000   0.69989   0.00000  Uiso   1.00
O591   O     0.57505   0.25000   0.80012   0.00000  Uiso   1.00
O592   O     0.43453   0.02752   0.80874   0.00000  Uiso   1.00
C593   C     0.83331   0.16499   0.74970   0.00000  Uiso   1.00
C594   C     0.85159   0.28818   0.94888   0.00000  Uiso   1.00
C595   C     0.83062   0.25221   0.52696   0.00000  Uiso   1.00
C596   C     0.83078   0.25233   0.97251   0.00000  Uiso   1.00
C597   C     0.73465   0.24951   0.73760   0.00000  Uiso   1.00
C598   C     0.93203   0.24996   0.76243   0.00000  Uiso   1.00
C599   C     0.67931   0.24835   0.73095   0.00000  Uiso   1.00
C600   C     0.98741   0.25018   0.76925   0.00000  Uiso   1.00
C601   C     0.79853   0.04759   0.77830   0.00000  Uiso   1.00
C602   C     0.79354   0.44927   0.71309   0.00000  Uiso   1.00
C603   C     0.80176   0.09371   0.77861   0.00000  Uiso   1.00
C604   C     0.83367   0.33496   0.75018   0.00000  Uiso   1.00
C605   C     0.79676   0.40331   0.71494   0.00000  Uiso   1.00
C606   C     0.83186   0.11653   0.74865   0.00000  Uiso   1.00
C607   C     0.83206   0.38324   0.74981   0.00000  Uiso   1.00
C608   C     0.85912   0.09279   0.71737   0.00000  Uiso   1.00
C609   C     0.86574   0.40950   0.78279   0.00000  Uiso   1.00
C610   C     0.85620   0.04655   0.71692   0.00000  Uiso   1.00
C611   C     0.86289   0.45552   0.78114   0.00000  Uiso   1.00
C612   C     0.82639   0.02388   0.74712   0.00000  Uiso   1.00
C613   C     0.82707   0.47552   0.74687   0.00000  Uiso   1.00
C614   C     0.87260   0.27022   0.55890   0.00000  Uiso   1.00
C615   C     0.81036   0.21607   0.94323   0.00000  Uiso   1.00
C616   C     0.87206   0.27123   0.60935   0.00000  Uiso   1.00
C617   C     0.80921   0.21647   0.89255   0.00000  Uiso   1.00
C618   C     0.79246   0.23070   0.59882   0.00000  Uiso   1.00
C619   C     0.85561   0.28510   0.89899   0.00000  Uiso   1.00
C620   C     0.78897   0.23405   0.54800   0.00000  Uiso   1.00
Cu621  Cu    0.83333   0.25000   0.79822   0.00000  Uiso   1.00
Cu622  Cu    0.83333   0.25001   0.70179   0.00000  Uiso   1.00
H623   H     0.99262   0.24569   0.69433   0.00000  Uiso   1.00
H624   H     0.75789   0.49933   0.68125   0.00000  Uiso   1.00
H625   H     0.87787   0.10607   0.65127   0.00000  Uiso   1.00
H626   H     0.92861   0.10475   0.69580   0.00000  Uiso   1.00
H627   H     0.94043   0.40120   0.80936   0.00000  Uiso   1.00
H628   H     0.89981   0.40102   0.85115   0.00000  Uiso   1.00
H629   H     0.90918   0.32916   0.62939   0.00000  Uiso   1.00
H630   H     0.94733   0.28508   0.63183   0.00000  Uiso   1.00
H631   H     0.79668   0.15158   0.87692   0.00000  Uiso   1.00
H632   H     0.74311   0.18199   0.87000   0.00000  Uiso   1.00
H633   H     0.76818   0.19118   0.64427   0.00000  Uiso   1.00
H634   H     0.67418   0.25224   0.80600   0.00000  Uiso   1.00
H635   H     0.90194   0.30545   0.85646   0.00000  Uiso   1.00
H636   H     0.71189   0.23728   0.52815   0.00000  Uiso   1.00
H637   H     0.73556   0.18593   0.52465   0.00000  Uiso   1.00
H638   H     0.84747   0.35438   0.95857   0.00000  Uiso   1.00
H639   H     0.90734   0.33431   0.97251   0.00000  Uiso   1.00
H640   H     0.77959   0.11180   0.80169   0.00000  Uiso   1.00
H641   H     0.77098   0.38304   0.68929   0.00000  Uiso   1.00
H642   H     0.87777   0.02820   0.69336   0.00000  Uiso   1.00
H643   H     0.88899   0.47583   0.80646   0.00000  Uiso   1.00
H644   H     0.90607   0.28411   0.54513   0.00000  Uiso   1.00
H645   H     0.79463   0.18716   0.95920   0.00000  Uiso   1.00
H646   H     0.76678   0.49502   0.80375   0.00000  Uiso   1.00
N647   N     0.83333   0.25001   0.62935   0.00000  Uiso   1.00
N648   N     0.83333   0.24999   0.87066   0.00000  Uiso   1.00
N649   N     0.89088   0.11547   0.68710   0.00000  Uiso   1.00
N650   N     0.90428   0.38971   0.81657   0.00000  Uiso   1.00
N651   N     0.91175   0.29594   0.63937   0.00000  Uiso   1.00
N652   N     0.78166   0.18163   0.86416   0.00000  Uiso   1.00
N653   N     0.74241   0.21946   0.51807   0.00000  Uiso   1.00
N654   N     0.86830   0.32829   0.97508   0.00000  Uiso   1.00
O655   O     0.83334   0.18573   0.79072   0.00000  Uiso   1.00
O656   O     0.75727   0.46666   0.67818   0.00000  Uiso   1.00
O657   O     0.75284   0.20817   0.61630   0.00000  Uiso   1.00
O658   O     0.88227   0.31884   0.88008   0.00000  Uiso   1.00
O659   O     0.83333   0.31428   0.70929   0.00000  Uiso   1.00
O660   O     0.83334   0.18573   0.70928   0.00000  Uiso   1.00
O661   O     0.83333   0.31427   0.79072   0.00000  Uiso   1.00
O662   O     0.75828   0.25000   0.78132   0.00000  Uiso   1.00
O663   O     0.90839   0.25001   0.71868   0.00000  Uiso   1.00
O664   O     0.75828   0.25000   0.69989   0.00000  Uiso   1.00
O665   O     0.90839   0.25000   0.80012   0.00000  Uiso   1.00
O666   O     0.76786   0.02752   0.80874   0.00000  Uiso   1.00
C667   C     0.16664   0.66499   0.74970   0.00000  Uiso   1.00
C668   C     0.18492   0.78818   0.94888   0.00000  Uiso   1.00
C669   C     0.16395   0.75221   0.52696   0.00000  Uiso   1.00
C670   C     0.16412   0.75233   0.97251   0.00000  Uiso   1.00
C671   C     0.06799   0.74951   0.73760   0.00000  Uiso   1.00
C672   C     0.26536   0.74996   0.76243   0.00000  Uiso   1.00
C673   C     0.01264   0.74835   0.73095   0.00000  Uiso   1.00
C674   C     0.32075   0.75018   0.76925   0.00000  Uiso   1.00
C675   C     0.13186   0.54759   0.77830   0.00000  Uiso   1.00
C676   C     0.12688   0.94927   0.71309   0.00000  Uiso   1.00
C677   C     0.13509   0.59371   0.77861   0.00000  Uiso   1.00
C678   C     0.16700   0.83496   0.75018   0.00000  Uiso   1.00
C679   C     0.13009   0.90331   0.71494   0.00000  Uiso   1.00
C680   C     0.16519   0.61653   0.74865   0.00000  Uiso   1.00
C681   C     0.16539   0.88324   0.74981   0.00000  Uiso   1.00
C682   C     0.19245   0.59279   0.71737   0.00000  Uiso   1.00
C683   C     0.19908   0.90950   0.78279   0.00000  Uiso   1.00
C684   C     0.18953   0.54655   0.71692   0.00000  Uiso   1.00
C685   C     0.19622   0.95552   0.78114   0.00000  Uiso   1.00
C686   C     0.15972   0.52388   0.74712   0.00000  Uiso   1.00
C687   C     0.16041   0.97552   0.74687   0.00000  Uiso   1.00
C688   C     0.20593   0.77022   0.55890   0.00000  Uiso   1.00
C689   C     0.14370   0.71607   0.94323   0.00000  Uiso   1.00
C690   C     0.20539   0.77123   0.60935   0.00000  Uiso   1.00
C691   C     0.14255   0.71647   0.89255   0.00000  Uiso   1.00
C692   C     0.12579   0.73070   0.59882   0.00000  Uiso   1.00
C693   C     0.18895   0.78510   0.89899   0.00000  Uiso   1.00
C694   C     0.12231   0.73405   0.54800   0.00000  Uiso   1.00
Cu695  Cu    0.16667   0.75000   0.79822   0.00000  Uiso   1.00
Cu696  Cu    0.16667   0.75001   0.70179   0.00000  Uiso   1.00
H697   H     0.32595   0.74569   0.69433   0.00000  Uiso   1.00
H698   H     0.09122   0.99933   0.68125   0.00000  Uiso   1.00
H699   H     0.21120   0.60607   0.65127   0.00000  Uiso   1.00
H700   H     0.26194   0.60475   0.69580   0.00000  Uiso   1.00
H701   H     0.27376   0.90120   0.80936   0.00000  Uiso   1.00
H702   H     0.23315   0.90102   0.85115   0.00000  Uiso   1.00
H703   H     0.24251   0.82916   0.62939   0.00000  Uiso   1.00
H704   H     0.28066   0.78508   0.63183   0.00000  Uiso   1.00
H705   H     0.13002   0.65158   0.87692   0.00000  Uiso   1.00
H706   H     0.07644   0.68199   0.87000   0.00000  Uiso   1.00
H707   H     0.10151   0.69118   0.64427   0.00000  Uiso   1.00
H708   H     0.00751   0.75224   0.80600   0.00000  Uiso   1.00
H709   H     0.23527   0.80545   0.85646   0.00000  Uiso   1.00
H710   H     0.04522   0.73728   0.52815   0.00000  Uiso   1.00
H711   H     0.06889   0.68593   0.52465   0.00000  Uiso   1.00
H712   H     0.18080   0.85438   0.95857   0.00000  Uiso   1.00
H713   H     0.24067   0.83431   0.97251   0.00000  Uiso   1.00
H714   H     0.11292   0.61180   0.80169   0.00000  Uiso   1.00
H715   H     0.10431   0.88304   0.68929   0.00000  Uiso   1.00
H716   H     0.21110   0.52820   0.69336   0.00000  Uiso   1.00
H717   H     0.22233   0.97583   0.80646   0.00000  Uiso   1.00
H718   H     0.23940   0.78411   0.54513   0.00000  Uiso   1.00
H719   H     0.12796   0.68716   0.95920   0.00000  Uiso   1.00
H720   H     0.10011   0.99502   0.80375   0.00000  Uiso   1.00
N721   N     0.16667   0.75001   0.62935   0.00000  Uiso   1.00
N722   N     0.16667   0.74999   0.87066   0.00000  Uiso   1.00
N723   N     0.22421   0.61547   0.68710   0.00000  Uiso   1.00
N724   N     0.23761   0.88971   0.81657   0.00000  Uiso   1.00
N725   N     0.24509   0.79594   0.63937   0.00000  Uiso   1.00
N726   N     0.11499   0.68163   0.86416   0.00000  Uiso   1.00
N727   N     0.07574   0.71946   0.51807   0.00000  Uiso   1.00
N728   N     0.20164   0.82829   0.97508   0.00000  Uiso   1.00
O729   O     0.16667   0.68573   0.79072   0.00000  Uiso   1.00
O730   O     0.09061   0.96666   0.67818   0.00000  Uiso   1.00
O731   O     0.08617   0.70817   0.61630   0.00000  Uiso   1.00
O732   O     0.21561   0.81884   0.88008   0.00000  Uiso   1.00
O733   O     0.16666   0.81428   0.70929   0.00000  Uiso   1.00
O734   O     0.16667   0.68573   0.70928   0.00000  Uiso   1.00
O735   O     0.16666   0.81427   0.79072   0.00000  Uiso   1.00
O736   O     0.09161   0.75000   0.78132   0.00000  Uiso   1.00
O737   O     0.24172   0.75001   0.71868   0.00000  Uiso   1.00
O738   O     0.09161   0.75000   0.69989   0.00000  Uiso   1.00
O739   O     0.24172   0.75000   0.80012   0.00000  Uiso   1.00
O740   O     0.10120   0.52752   0.80874   0.00000  Uiso   1.00
C741   C     0.49997   0.66499   0.74970   0.00000  Uiso   1.00
C742   C     0.51826   0.78818   0.94888   0.00000  Uiso   1.00
C743   C     0.49729   0.75221   0.52696   0.00000  Uiso   1.00
C744   C     0.49745   0.75233   0.97251   0.00000  Uiso   1.00
C745   C     0.40132   0.74951   0.73760   0.00000  Uiso   1.00
C746   C     0.59870   0.74996   0.76243   0.00000  Uiso   1.00
C747   C     0.34598   0.74835   0.73095   0.00000  Uiso   1.00
C748   C     0.65408   0.75018   0.76925   0.00000  Uiso   1.00
C749   C     0.46520   0.54759   0.77830   0.00000  Uiso   1.00
C750   C     0.46021   0.94927   0.71309   0.00000  Uiso   1.00
C751   C     0.46843   0.59371   0.77861   0.00000  Uiso   1.00
C752   C     0.50034   0.83496   0.75018   0.00000  Uiso   1.00
C753   C     0.46342   0.90331   0.71494   0.00000  Uiso   1.00
C754   C     0.49852   0.61653   0.74865   0.00000  Uiso   1.00
C755   C     0.49873   0.88324   0.74981   0.00000  Uiso   1.00
C756   C     0.52578   0.59279   0.71737   0.00000  Uiso   1.00
C757   C     0.53241   0.90950   0.78279   0.00000  Uiso   1.00
C758   C     0.52287   0.54655   0.71692   0.00000  Uiso   1.00
C759   C     0.52955   0.95552   0.78114   0.00000  Uiso   1.00
C760   C     0.49306   0.52388   0.74712   0.00000  Uiso   1.00
C761   C     0.49374   0.97552   0.74687   0.00000  Uiso   1.00
C762   C     0.53926   0.77022   0.55890   0.00000  Uiso   1.00
C763   C     0.47703   0.71607   0.94323   0.00000  Uiso   1.00
C764   C     0.53872   0.77123   0.60935   0.00000  Uiso   1.00
C765   C     0.47588   0.71647   0.89255   0.00000  Uiso   1.00
C766   C     0.45913   0.73070   0.59882   0.00000  Uiso   1.00
C767   C     0.52228   0.78510   0.89899   0.00000  Uiso   1.00
C768   C     0.45564   0.73405   0.54800   0.00000  Uiso   1.00
Cu769  Cu    0.50000   0.75000   0.79822   0.00000  Uiso   1.00
Cu770  Cu    0.50000   0.75001   0.70179   0.00000  Uiso   1.00
H771   H     0.65929   0.74569   0.69433   0.00000  Uiso   1.00
H772   H     0.42456   0.99933   0.68125   0.00000  Uiso   1.00
H773   H     0.54453   0.60607   0.65127   0.00000  Uiso   1.00
H774   H     0.59527   0.60475   0.69580   0.00000  Uiso   1.00
H775   H     0.60710   0.90120   0.80936   0.00000  Uiso   1.00
H776   H     0.56648   0.90102   0.85115   0.00000  Uiso   1.00
H777   H     0.57584   0.82916   0.62939   0.00000  Uiso   1.00
H778   H     0.61400   0.78508   0.63183   0.00000  Uiso   1.00
H779   H     0.46335   0.65158   0.87692   0.00000  Uiso   1.00
H780   H     0.40977   0.68199   0.87000   0.00000  Uiso   1.00
H781   H     0.43485   0.69118   0.64427   0.00000  Uiso   1.00
H782   H     0.34085   0.75224   0.80600   0.00000  Uiso   1.00
H783   H     0.56860   0.80545   0.85646   0.00000  Uiso   1.00
H784   H     0.37856   0.73728   0.52815   0.00000  Uiso   1.00
H785   H     0.40223   0.68593   0.52465   0.00000  Uiso   1.00
H786   H     0.51413   0.85438   0.95857   0.00000  Uiso   1.00
H787   H     0.57401   0.83431   0.97251   0.00000  Uiso   1.00
H788   H     0.44626   0.61180   0.80169   0.00000  Uiso   1.00
H789   H     0.43765   0.88304   0.68929   0.00000  Uiso   1.00
H790   H     0.54443   0.52820   0.69336   0.00000  Uiso   1.00
H791   H     0.55566   0.97583   0.80646   0.00000  Uiso   1.00
H792   H     0.57273   0.78411   0.54513   0.00000  Uiso   1.00
H793   H     0.46130   0.68716   0.95920   0.00000  Uiso   1.00
H794   H     0.43345   0.99502   0.80375   0.00000  Uiso   1.00
N795   N     0.50000   0.75001   0.62935   0.00000  Uiso   1.00
N796   N     0.50000   0.74999   0.87066   0.00000  Uiso   1.00
N797   N     0.55754   0.61547   0.68710   0.00000  Uiso   1.00
N798   N     0.57095   0.88971   0.81657   0.00000  Uiso   1.00
N799   N     0.57842   0.79594   0.63937   0.00000  Uiso   1.00
N800   N     0.44833   0.68163   0.86416   0.00000  Uiso   1.00
N801   N     0.40908   0.71946   0.51807   0.00000  Uiso   1.00
N802   N     0.53497   0.82829   0.97508   0.00000  Uiso   1.00
O803   O     0.50000   0.68573   0.79072   0.00000  Uiso   1.00
O804   O     0.42394   0.96666   0.67818   0.00000  Uiso   1.00
O805   O     0.41950   0.70817   0.61630   0.00000  Uiso   1.00
O806   O     0.54894   0.81884   0.88008   0.00000  Uiso   1.00
O807   O     0.50000   0.81428   0.70929   0.00000  Uiso   1.00
O808   O     0.50000   0.68573   0.70928   0.00000  Uiso   1.00
O809   O     0.50000   0.81427   0.79072   0.00000  Uiso   1.00
O810   O     0.42495   0.75000   0.78132   0.00000  Uiso   1.00
O811   O     0.57505   0.75001   0.71868   0.00000  Uiso   1.00
O812   O     0.42495   0.75000   0.69989   0.00000  Uiso   1.00
O813   O     0.57505   0.75000   0.80012   0.00000  Uiso   1.00
O814   O     0.43453   0.52752   0.80874   0.00000  Uiso   1.00
C815   C     0.83331   0.66499   0.74970   0.00000  Uiso   1.00
C816   C     0.85159   0.78818   0.94888   0.00000  Uiso   1.00
C817   C     0.83062   0.75221   0.52696   0.00000  Uiso   1.00
C818   C     0.83078   0.75233   0.97251   0.00000  Uiso   1.00
C819   C     0.73465   0.74951   0.73760   0.00000  Uiso   1.00
C820   C     0.93203   0.74996   0.76243   0.00000  Uiso   1.00
C821   C     0.67931   0.74835   0.73095   0.00000  Uiso   1.00
C822   C     0.98741   0.75018   0.76925   0.00000  Uiso   1.00
C823   C     0.79853   0.54759   0.77830   0.00000  Uiso   1.00
C824   C     0.79354   0.94927   0.71309   0.00000  Uiso   1.00
C825   C     0.80176   0.59371   0.77861   0.00000  Uiso   1.00
C826   C     0.83367   0.83496   0.75018   0.00000  Uiso   1.00
C827   C     0.79676   0.90331   0.71494   0.00000  Uiso   1.00
C828   C     0.83186   0.61653   0.74865   0.00000  Uiso   1.00
C829   C     0.83206   0.88324   0.74981   0.00000  Uiso   1.00
C830   C     0.85912   0.59279   0.71737   0.00000  Uiso   1.00
C831   C     0.86574   0.90950   0.78279   0.00000  Uiso   1.00
C832   C     0.85620   0.54655   0.71692   0.00000  Uiso   1.00
C833   C     0.86289   0.95552   0.78114   0.00000  Uiso   1.00
C834   C     0.82639   0.52388   0.74712   0.00000  Uiso   1.00
C835   C     0.82707   0.97552   0.74687   0.00000  Uiso   1.00
C836   C     0.87260   0.77022   0.55890   0.00000  Uiso   1.00
C837   C     0.81036   0.71607   0.94323   0.00000  Uiso   1.00
C838   C     0.87206   0.77123   0.60935   0.00000  Uiso   1.00
C839   C     0.80921   0.71647   0.89255   0.00000  Uiso   1.00
C840   C     0.79246   0.73070   0.59882   0.00000  Uiso   1.00
C841   C     0.85561   0.78510   0.89899   0.00000  Uiso   1.00
C842   C     0.78897   0.73405   0.54800   0.00000  Uiso   1.00
Cu843  Cu    0.83333   0.75000   0.79822   0.00000  Uiso   1.00
Cu844  Cu    0.83333   0.75001   0.70179   0.00000  Uiso   1.00
H845   H     0.99262   0.74569   0.69433   0.00000  Uiso   1.00
H846   H     0.75789   0.99933   0.68125   0.00000  Uiso   1.00
H847   H     0.87787   0.60607   0.65127   0.00000  Uiso   1.00
H848   H     0.92861   0.60475   0.69580   0.00000  Uiso   1.00
H849   H     0.94043   0.90120   0.80936   0.00000  Uiso   1.00
H850   H     0.89981   0.90102   0.85115   0.00000  Uiso   1.00
H851   H     0.90918   0.82916   0.62939   0.00000  Uiso   1.00
H852   H     0.94733   0.78508   0.63183   0.00000  Uiso   1.00
H853   H     0.79668   0.65158   0.87692   0.00000  Uiso   1.00
H854   H     0.74311   0.68199   0.87000   0.00000  Uiso   1.00
H855   H     0.76818   0.69118   0.64427   0.00000  Uiso   1.00
H856   H     0.67418   0.75224   0.80600   0.00000  Uiso   1.00
H857   H     0.90194   0.80545   0.85646   0.00000  Uiso   1.00
H858   H     0.71189   0.73728   0.52815   0.00000  Uiso   1.00
H859   H     0.73556   0.68593   0.52465   0.00000  Uiso   1.00
H860   H     0.84747   0.85438   0.95857   0.00000  Uiso   1.00
H861   H     0.90734   0.83431   0.97251   0.00000  Uiso   1.00
H862   H     0.77959   0.61180   0.80169   0.00000  Uiso   1.00
H863   H     0.77098   0.88304   0.68929   0.00000  Uiso   1.00
H864   H     0.87777   0.52820   0.69336   0.00000  Uiso   1.00
H865   H     0.88899   0.97583   0.80646   0.00000  Uiso   1.00
H866   H     0.90607   0.78411   0.54513   0.00000  Uiso   1.00
H867   H     0.79463   0.68716   0.95920   0.00000  Uiso   1.00
H868   H     0.76678   0.99502   0.80375   0.00000  Uiso   1.00
N869   N     0.83333   0.75001   0.62935   0.00000  Uiso   1.00
N870   N     0.83333   0.74999   0.87066   0.00000  Uiso   1.00
N871   N     0.89088   0.61547   0.68710   0.00000  Uiso   1.00
N872   N     0.90428   0.88971   0.81657   0.00000  Uiso   1.00
N873   N     0.91175   0.79594   0.63937   0.00000  Uiso   1.00
N874   N     0.78166   0.68163   0.86416   0.00000  Uiso   1.00
N875   N     0.74241   0.71946   0.51807   0.00000  Uiso   1.00
N876   N     0.86830   0.82829   0.97508   0.00000  Uiso   1.00
O877   O     0.83334   0.68573   0.79072   0.00000  Uiso   1.00
O878   O     0.75727   0.96666   0.67818   0.00000  Uiso   1.00
O879   O     0.75284   0.70817   0.61630   0.00000  Uiso   1.00
O880   O     0.88227   0.81884   0.88008   0.00000  Uiso   1.00
O881   O     0.83333   0.81428   0.70929   0.00000  Uiso   1.00
O882   O     0.83334   0.68573   0.70928   0.00000  Uiso   1.00
O883   O     0.83333   0.81427   0.79072   0.00000  Uiso   1.00
O884   O     0.75828   0.75000   0.78132   0.00000  Uiso   1.00
O885   O     0.90839   0.75001   0.71868   0.00000  Uiso   1.00
O886   O     0.75828   0.75000   0.69989   0.00000  Uiso   1.00
O887   O     0.90839   0.75000   0.80012   0.00000  Uiso   1.00
O888   O     0.76786   0.52752   0.80874   0.00000  Uiso   1.00
loop_
_geom_bond_atom_site_label_1
_geom_bond_atom_site_label_2
_geom_bond_distance
_geom_bond_site_symmetry_2
_ccdc_geom_bond_type
C1     O63     1.301   .     A
C1     O68     1.298   .     A
C1     C14     1.463   .     S
C2     C27     1.416   .     A
C2     C4      1.409   .     A
C2     N62     1.434   .     S
C3     C28     1.410   .     A
C3     C22     1.408   .     A
C3     C448    1.524   1_554 S
C4     C23     1.407   .     A
C4     C447    1.524   .     S
C5     O72     1.296   .     A
C5     C7      1.435   .     S
C5     O70     1.290   .     A
C6     C8      1.436   .     S
C6     O71     1.292   .     A
C6     O73     1.295   .     A
C7     C156    1.337   1_455 S
C7     H179    1.084   1_455 S
C8     C81     1.337   .     S
C8     H116    1.087   .     S
C9     C20     1.415   .     A
C9     C11     1.392   .     A
C9     O74     1.382   .     S
C10    C21     1.415   .     A
C10    C13     1.394   .     A
C10    O64     1.382   .     S
C11    H48     1.081   .     S
C11    C14     1.401   .     A
C12    O69     1.301   .     A
C12    C15     1.460   .     S
C12    O67     1.297   .     A
C13    H49     1.084   .     S
C13    C15     1.402   .     A
C14    C16     1.408   .     A
C15    C17     1.405   .     A
C16    N57     1.433   .     S
C16    C18     1.396   .     A
C17    N58     1.431   .     S
C17    C19     1.395   .     A
C18    H50     1.084   .     S
C18    C20     1.399   .     A
C19    H51     1.084   .     S
C19    C21     1.398   .     A
C20    C243    1.461   1_545 S
C21    C242    1.461   .     S
C22    H52     1.081   .     S
C22    C24     1.413   .     A
C23    C25     1.413   .     A
C23    H53     1.081   .     S
C24    N55     1.371   .     A
C24    N59     1.428   .     S
C25    N60     1.427   .     S
C25    N56     1.372   .     A
C26    N55     1.383   .     A
C26    O65     1.373   .     S
C26    C28     1.416   .     A
C27    O66     1.370   .     S
C27    N56     1.382   .     A
C28    N61     1.434   .     S
Cu29   O63     1.950   .     S
Cu29   Cu30    2.697   .     S
Cu29   N56     2.026   .     S
Cu29   O69     1.954   .     S
Cu29   O73     1.959   .     S
Cu29   O70     1.956   .     S
Cu30   O72     1.959   .     S
Cu30   N55     2.026   .     S
Cu30   O67     1.950   .     S
Cu30   O71     1.956   .     S
Cu30   O68     1.954   .     S
H31    C81     1.084   .     S
H32    O64     0.989   .     S
H33    N57     1.046   .     S
H34    N57     1.046   .     S
H35    N58     1.046   .     S
H36    N58     1.046   .     S
H37    N59     1.045   .     S
H38    N59     1.045   .     S
H39    N60     1.046   .     S
H40    N60     1.046   .     S
H41    O65     0.984   .     S
H42    C156    1.087   1_455 S
H43    O66     0.984   .     S
H44    N61     1.046   .     S
H45    N61     1.046   .     S
H46    N62     1.046   .     S
H47    N62     1.046   .     S
H54    O296    0.989   .     S
O74    H276    0.989   1_545 S
C75    O137    1.301   .     A
C75    O142    1.298   .     A
C75    C88     1.463   .     S
C76    C101    1.416   .     A
C76    C78     1.409   .     A
C76    N136    1.434   .     S
C77    C102    1.410   .     A
C77    C96     1.408   .     A
C77    C522    1.524   1_554 S
C78    C97     1.407   .     A
C78    C521    1.524   .     S
C79    O146    1.296   .     A
C79    C81     1.435   .     S
C79    O144    1.290   .     A
C80    C82     1.436   .     S
C80    O145    1.292   .     A
C80    O147    1.295   .     A
C82    C155    1.337   .     S
C82    H190    1.087   .     S
C83    C94     1.415   .     A
C83    C85     1.392   .     A
C83    O148    1.382   .     S
C84    C95     1.415   .     A
C84    C87     1.394   .     A
C84    O138    1.382   .     S
C85    H122    1.081   .     S
C85    C88     1.401   .     A
C86    O143    1.301   .     A
C86    C89     1.460   .     S
C86    O141    1.297   .     A
C87    H123    1.084   .     S
C87    C89     1.402   .     A
C88    C90     1.408   .     A
C89    C91     1.405   .     A
C90    N131    1.433   .     S
C90    C92     1.396   .     A
C91    N132    1.431   .     S
C91    C93     1.395   .     A
C92    H124    1.084   .     S
C92    C94     1.399   .     A
C93    H125    1.084   .     S
C93    C95     1.398   .     A
C94    C317    1.461   1_545 S
C95    C316    1.461   .     S
C96    H126    1.081   .     S
C96    C98     1.413   .     A
C97    C99     1.413   .     A
C97    H127    1.081   .     S
C98    N129    1.371   .     A
C98    N133    1.428   .     S
C99    N134    1.427   .     S
C99    N130    1.372   .     A
C100   N129    1.383   .     A
C100   O139    1.373   .     S
C100   C102    1.416   .     A
C101   O140    1.370   .     S
C101   N130    1.382   .     A
C102   N135    1.434   .     S
Cu103  O137    1.950   .     S
Cu103  Cu104   2.697   .     S
Cu103  N130    2.026   .     S
Cu103  O143    1.954   .     S
Cu103  O147    1.959   .     S
Cu103  O144    1.956   .     S
Cu104  O146    1.959   .     S
Cu104  N129    2.026   .     S
Cu104  O141    1.950   .     S
Cu104  O145    1.956   .     S
Cu104  O142    1.954   .     S
H105   C155    1.084   .     S
H106   O138    0.989   .     S
H107   N131    1.046   .     S
H108   N131    1.046   .     S
H109   N132    1.046   .     S
H110   N132    1.046   .     S
H111   N133    1.045   .     S
H112   N133    1.045   .     S
H113   N134    1.046   .     S
H114   N134    1.046   .     S
H115   O139    0.984   .     S
H117   O140    0.984   .     S
H118   N135    1.046   .     S
H119   N135    1.046   .     S
H120   N136    1.046   .     S
H121   N136    1.046   .     S
H128   O370    0.989   .     S
O148   H350    0.989   1_545 S
C149   O211    1.301   .     A
C149   O216    1.298   .     A
C149   C162    1.463   .     S
C150   C175    1.416   .     A
C150   C152    1.409   .     A
C150   N210    1.434   .     S
C151   C176    1.410   .     A
C151   C170    1.408   .     A
C151   C596    1.524   1_554 S
C152   C171    1.407   .     A
C152   C595    1.524   .     S
C153   O220    1.296   .     A
C153   C155    1.435   .     S
C153   O218    1.290   .     A
C154   C156    1.436   .     S
C154   O219    1.292   .     A
C154   O221    1.295   .     A
C156   C7      1.337   1_655 S
C156   H42     1.087   1_655 S
C157   C168    1.415   .     A
C157   C159    1.392   .     A
C157   O222    1.382   .     S
C158   C169    1.415   .     A
C158   C161    1.394   .     A
C158   O212    1.382   .     S
C159   H196    1.081   .     S
C159   C162    1.401   .     A
C160   O217    1.301   .     A
C160   C163    1.460   .     S
C160   O215    1.297   .     A
C161   H197    1.084   .     S
C161   C163    1.402   .     A
C162   C164    1.408   .     A
C163   C165    1.405   .     A
C164   N205    1.433   .     S
C164   C166    1.396   .     A
C165   N206    1.431   .     S
C165   C167    1.395   .     A
C166   H198    1.084   .     S
C166   C168    1.399   .     A
C167   H199    1.084   .     S
C167   C169    1.398   .     A
C168   C391    1.461   1_545 S
C169   C390    1.461   .     S
C170   H200    1.081   .     S
C170   C172    1.413   .     A
C171   C173    1.413   .     A
C171   H201    1.081   .     S
C172   N203    1.371   .     A
C172   N207    1.428   .     S
C173   N208    1.427   .     S
C173   N204    1.372   .     A
C174   N203    1.383   .     A
C174   O213    1.373   .     S
C174   C176    1.416   .     A
C175   O214    1.370   .     S
C175   N204    1.382   .     A
C176   N209    1.434   .     S
Cu177  O211    1.950   .     S
Cu177  Cu178   2.697   .     S
Cu177  N204    2.026   .     S
Cu177  O217    1.954   .     S
Cu177  O221    1.959   .     S
Cu177  O218    1.956   .     S
Cu178  O220    1.959   .     S
Cu178  N203    2.026   .     S
Cu178  O215    1.950   .     S
Cu178  O219    1.956   .     S
Cu178  O216    1.954   .     S
H179   C7      1.084   1_655 S
H180   O212    0.989   .     S
H181   N205    1.046   .     S
H182   N205    1.046   .     S
H183   N206    1.046   .     S
H184   N206    1.046   .     S
H185   N207    1.045   .     S
H186   N207    1.045   .     S
H187   N208    1.046   .     S
H188   N208    1.046   .     S
H189   O213    0.984   .     S
H191   O214    0.984   .     S
H192   N209    1.046   .     S
H193   N209    1.046   .     S
H194   N210    1.046   .     S
H195   N210    1.046   .     S
H202   O444    0.989   .     S
O222   H424    0.989   1_545 S
C223   O285    1.301   .     A
C223   O290    1.298   .     A
C223   C236    1.463   .     S
C224   C249    1.416   .     A
C224   C226    1.409   .     A
C224   N284    1.434   .     S
C225   C250    1.410   .     A
C225   C244    1.408   .     A
C225   C670    1.524   1_554 S
C226   C245    1.407   .     A
C226   C669    1.524   .     S
C227   O294    1.296   .     A
C227   C229    1.435   .     S
C227   O292    1.290   .     A
C228   C230    1.436   .     S
C228   O293    1.292   .     A
C228   O295    1.295   .     A
C229   C378    1.337   1_455 S
C229   H401    1.084   1_455 S
C230   C303    1.337   .     S
C230   H338    1.087   .     S
C231   C242    1.415   .     A
C231   C233    1.392   .     A
C231   O296    1.382   .     S
C232   C243    1.415   .     A
C232   C235    1.394   .     A
C232   O286    1.382   .     S
C233   H270    1.081   .     S
C233   C236    1.401   .     A
C234   O291    1.301   .     A
C234   C237    1.460   .     S
C234   O289    1.297   .     A
C235   H271    1.084   .     S
C235   C237    1.402   .     A
C236   C238    1.408   .     A
C237   C239    1.405   .     A
C238   N279    1.433   .     S
C238   C240    1.396   .     A
C239   N280    1.431   .     S
C239   C241    1.395   .     A
C240   H272    1.084   .     S
C240   C242    1.399   .     A
C241   H273    1.084   .     S
C241   C243    1.398   .     A
C243   C20     1.461   1_565 S
C244   H274    1.081   .     S
C244   C246    1.413   .     A
C245   C247    1.413   .     A
C245   H275    1.081   .     S
C246   N277    1.371   .     A
C246   N281    1.428   .     S
C247   N282    1.427   .     S
C247   N278    1.372   .     A
C248   N277    1.383   .     A
C248   O287    1.373   .     S
C248   C250    1.416   .     A
C249   O288    1.370   .     S
C249   N278    1.382   .     A
C250   N283    1.434   .     S
Cu251  O285    1.950   .     S
Cu251  Cu252   2.697   .     S
Cu251  N278    2.026   .     S
Cu251  O291    1.954   .     S
Cu251  O295    1.959   .     S
Cu251  O292    1.956   .     S
Cu252  O294    1.959   .     S
Cu252  N277    2.026   .     S
Cu252  O289    1.950   .     S
Cu252  O293    1.956   .     S
Cu252  O290    1.954   .     S
H253   C303    1.084   .     S
H254   O286    0.989   .     S
H255   N279    1.046   .     S
H256   N279    1.046   .     S
H257   N280    1.046   .     S
H258   N280    1.046   .     S
H259   N281    1.045   .     S
H260   N281    1.045   .     S
H261   N282    1.046   .     S
H262   N282    1.046   .     S
H263   O287    0.984   .     S
H264   C378    1.087   1_455 S
H265   O288    0.984   .     S
H266   N283    1.046   .     S
H267   N283    1.046   .     S
H268   N284    1.046   .     S
H269   N284    1.046   .     S
H276   O74     0.989   1_565 S
C297   O359    1.301   .     A
C297   O364    1.298   .     A
C297   C310    1.463   .     S
C298   C323    1.416   .     A
C298   C300    1.409   .     A
C298   N358    1.434   .     S
C299   C324    1.410   .     A
C299   C318    1.408   .     A
C299   C744    1.524   1_554 S
C300   C319    1.407   .     A
C300   C743    1.524   .     S
C301   O368    1.296   .     A
C301   C303    1.435   .     S
C301   O366    1.290   .     A
C302   C304    1.436   .     S
C302   O367    1.292   .     A
C302   O369    1.295   .     A
C304   C377    1.337   .     S
C304   H412    1.087   .     S
C305   C316    1.415   .     A
C305   C307    1.392   .     A
C305   O370    1.382   .     S
C306   C317    1.415   .     A
C306   C309    1.394   .     A
C306   O360    1.382   .     S
C307   H344    1.081   .     S
C307   C310    1.401   .     A
C308   O365    1.301   .     A
C308   C311    1.460   .     S
C308   O363    1.297   .     A
C309   H345    1.084   .     S
C309   C311    1.402   .     A
C310   C312    1.408   .     A
C311   C313    1.405   .     A
C312   N353    1.433   .     S
C312   C314    1.396   .     A
C313   N354    1.431   .     S
C313   C315    1.395   .     A
C314   H346    1.084   .     S
C314   C316    1.399   .     A
C315   H347    1.084   .     S
C315   C317    1.398   .     A
C317   C94     1.461   1_565 S
C318   H348    1.081   .     S
C318   C320    1.413   .     A
C319   C321    1.413   .     A
C319   H349    1.081   .     S
C320   N351    1.371   .     A
C320   N355    1.428   .     S
C321   N356    1.427   .     S
C321   N352    1.372   .     A
C322   N351    1.383   .     A
C322   O361    1.373   .     S
C322   C324    1.416   .     A
C323   O362    1.370   .     S
C323   N352    1.382   .     A
C324   N357    1.434   .     S
Cu325  O359    1.950   .     S
Cu325  Cu326   2.697   .     S
Cu325  N352    2.026   .     S
Cu325  O365    1.954   .     S
Cu325  O369    1.959   .     S
Cu325  O366    1.956   .     S
Cu326  O368    1.959   .     S
Cu326  N351    2.026   .     S
Cu326  O363    1.950   .     S
Cu326  O367    1.956   .     S
Cu326  O364    1.954   .     S
H327   C377    1.084   .     S
H328   O360    0.989   .     S
H329   N353    1.046   .     S
H330   N353    1.046   .     S
H331   N354    1.046   .     S
H332   N354    1.046   .     S
H333   N355    1.045   .     S
H334   N355    1.045   .     S
H335   N356    1.046   .     S
H336   N356    1.046   .     S
H337   O361    0.984   .     S
H339   O362    0.984   .     S
H340   N357    1.046   .     S
H341   N357    1.046   .     S
H342   N358    1.046   .     S
H343   N358    1.046   .     S
H350   O148    0.989   1_565 S
C371   O433    1.301   .     A
C371   O438    1.298   .     A
C371   C384    1.463   .     S
C372   C397    1.416   .     A
C372   C374    1.409   .     A
C372   N432    1.434   .     S
C373   C398    1.410   .     A
C373   C392    1.408   .     A
C373   C818    1.524   1_554 S
C374   C393    1.407   .     A
C374   C817    1.524   .     S
C375   O442    1.296   .     A
C375   C377    1.435   .     S
C375   O440    1.290   .     A
C376   C378    1.436   .     S
C376   O441    1.292   .     A
C376   O443    1.295   .     A
C378   C229    1.337   1_655 S
C378   H264    1.087   1_655 S
C379   C390    1.415   .     A
C379   C381    1.392   .     A
C379   O444    1.382   .     S
C380   C391    1.415   .     A
C380   C383    1.394   .     A
C380   O434    1.382   .     S
C381   H418    1.081   .     S
C381   C384    1.401   .     A
C382   O439    1.301   .     A
C382   C385    1.460   .     S
C382   O437    1.297   .     A
C383   H419    1.084   .     S
C383   C385    1.402   .     A
C384   C386    1.408   .     A
C385   C387    1.405   .     A
C386   N427    1.433   .     S
C386   C388    1.396   .     A
C387   N428    1.431   .     S
C387   C389    1.395   .     A
C388   H420    1.084   .     S
C388   C390    1.399   .     A
C389   H421    1.084   .     S
C389   C391    1.398   .     A
C391   C168    1.461   1_565 S
C392   H422    1.081   .     S
C392   C394    1.413   .     A
C393   C395    1.413   .     A
C393   H423    1.081   .     S
C394   N425    1.371   .     A
C394   N429    1.428   .     S
C395   N430    1.427   .     S
C395   N426    1.372   .     A
C396   N425    1.383   .     A
C396   O435    1.373   .     S
C396   C398    1.416   .     A
C397   O436    1.370   .     S
C397   N426    1.382   .     A
C398   N431    1.434   .     S
Cu399  O433    1.950   .     S
Cu399  Cu400   2.697   .     S
Cu399  N426    2.026   .     S
Cu399  O439    1.954   .     S
Cu399  O443    1.959   .     S
Cu399  O440    1.956   .     S
Cu400  O442    1.959   .     S
Cu400  N425    2.026   .     S
Cu400  O437    1.950   .     S
Cu400  O441    1.956   .     S
Cu400  O438    1.954   .     S
H401   C229    1.084   1_655 S
H402   O434    0.989   .     S
H403   N427    1.046   .     S
H404   N427    1.046   .     S
H405   N428    1.046   .     S
H406   N428    1.046   .     S
H407   N429    1.045   .     S
H408   N429    1.045   .     S
H409   N430    1.046   .     S
H410   N430    1.046   .     S
H411   O435    0.984   .     S
H413   O436    0.984   .     S
H414   N431    1.046   .     S
H415   N431    1.046   .     S
H416   N432    1.046   .     S
H417   N432    1.046   .     S
H424   O222    0.989   1_565 S
C445   O507    1.301   .     A
C445   O512    1.298   .     A
C445   C458    1.463   .     S
C446   C471    1.416   .     A
C446   C448    1.409   .     A
C446   N506    1.434   .     S
C447   C472    1.410   .     A
C447   C466    1.408   .     A
C448   C467    1.407   .     A
C448   C3      1.524   1_556 S
C449   O516    1.296   .     A
C449   C451    1.435   .     S
C449   O514    1.290   .     A
C450   C452    1.436   .     S
C450   O515    1.292   .     A
C450   O517    1.295   .     A
C451   C600    1.337   1_455 S
C451   H623    1.084   1_455 S
C452   C525    1.337   .     S
C452   H560    1.087   .     S
C453   C464    1.415   .     A
C453   C455    1.392   .     A
C453   O518    1.382   .     S
C454   C465    1.415   .     A
C454   C457    1.394   .     A
C454   O508    1.382   .     S
C455   H492    1.081   .     S
C455   C458    1.401   .     A
C456   O513    1.301   .     A
C456   C459    1.460   .     S
C456   O511    1.297   .     A
C457   H493    1.084   .     S
C457   C459    1.402   .     A
C458   C460    1.408   .     A
C459   C461    1.405   .     A
C460   N501    1.433   .     S
C460   C462    1.396   .     A
C461   N502    1.431   .     S
C461   C463    1.395   .     A
C462   H494    1.084   .     S
C462   C464    1.399   .     A
C463   H495    1.084   .     S
C463   C465    1.398   .     A
C464   C687    1.461   1_545 S
C465   C686    1.461   .     S
C466   H496    1.081   .     S
C466   C468    1.413   .     A
C467   C469    1.413   .     A
C467   H497    1.081   .     S
C468   N499    1.371   .     A
C468   N503    1.428   .     S
C469   N504    1.427   .     S
C469   N500    1.372   .     A
C470   N499    1.383   .     A
C470   O509    1.373   .     S
C470   C472    1.416   .     A
C471   O510    1.370   .     S
C471   N500    1.382   .     A
C472   N505    1.434   .     S
Cu473  O507    1.950   .     S
Cu473  Cu474   2.697   .     S
Cu473  N500    2.026   .     S
Cu473  O513    1.954   .     S
Cu473  O517    1.959   .     S
Cu473  O514    1.956   .     S
Cu474  O516    1.959   .     S
Cu474  N499    2.026   .     S
Cu474  O511    1.950   .     S
Cu474  O515    1.956   .     S
Cu474  O512    1.954   .     S
H475   C525    1.084   .     S
H476   O508    0.989   .     S
H477   N501    1.046   .     S
H478   N501    1.046   .     S
H479   N502    1.046   .     S
H480   N502    1.046   .     S
H481   N503    1.045   .     S
H482   N503    1.045   .     S
H483   N504    1.046   .     S
H484   N504    1.046   .     S
H485   O509    0.984   .     S
H486   C600    1.087   1_455 S
H487   O510    0.984   .     S
H488   N505    1.046   .     S
H489   N505    1.046   .     S
H490   N506    1.046   .     S
H491   N506    1.046   .     S
H498   O740    0.989   .     S
O518   H720    0.989   1_545 S
C519   O581    1.301   .     A
C519   O586    1.298   .     A
C519   C532    1.463   .     S
C520   C545    1.416   .     A
C520   C522    1.409   .     A
C520   N580    1.434   .     S
C521   C546    1.410   .     A
C521   C540    1.408   .     A
C522   C541    1.407   .     A
C522   C77     1.524   1_556 S
C523   O590    1.296   .     A
C523   C525    1.435   .     S
C523   O588    1.290   .     A
C524   C526    1.436   .     S
C524   O589    1.292   .     A
C524   O591    1.295   .     A
C526   C599    1.337   .     S
C526   H634    1.087   .     S
C527   C538    1.415   .     A
C527   C529    1.392   .     A
C527   O592    1.382   .     S
C528   C539    1.415   .     A
C528   C531    1.394   .     A
C528   O582    1.382   .     S
C529   H566    1.081   .     S
C529   C532    1.401   .     A
C530   O587    1.301   .     A
C530   C533    1.460   .     S
C530   O585    1.297   .     A
C531   H567    1.084   .     S
C531   C533    1.402   .     A
C532   C534    1.408   .     A
C533   C535    1.405   .     A
C534   N575    1.433   .     S
C534   C536    1.396   .     A
C535   N576    1.431   .     S
C535   C537    1.395   .     A
C536   H568    1.084   .     S
C536   C538    1.399   .     A
C537   H569    1.084   .     S
C537   C539    1.398   .     A
C538   C761    1.461   1_545 S
C539   C760    1.461   .     S
C540   H570    1.081   .     S
C540   C542    1.413   .     A
C541   C543    1.413   .     A
C541   H571    1.081   .     S
C542   N573    1.371   .     A
C542   N577    1.428   .     S
C543   N578    1.427   .     S
C543   N574    1.372   .     A
C544   N573    1.383   .     A
C544   O583    1.373   .     S
C544   C546    1.416   .     A
C545   O584    1.370   .     S
C545   N574    1.382   .     A
C546   N579    1.434   .     S
Cu547  O581    1.950   .     S
Cu547  Cu548   2.697   .     S
Cu547  N574    2.026   .     S
Cu547  O587    1.954   .     S
Cu547  O591    1.959   .     S
Cu547  O588    1.956   .     S
Cu548  O590    1.959   .     S
Cu548  N573    2.026   .     S
Cu548  O585    1.950   .     S
Cu548  O589    1.956   .     S
Cu548  O586    1.954   .     S
H549   C599    1.084   .     S
H550   O582    0.989   .     S
H551   N575    1.046   .     S
H552   N575    1.046   .     S
H553   N576    1.046   .     S
H554   N576    1.046   .     S
H555   N577    1.045   .     S
H556   N577    1.045   .     S
H557   N578    1.046   .     S
H558   N578    1.046   .     S
H559   O583    0.984   .     S
H561   O584    0.984   .     S
H562   N579    1.046   .     S
H563   N579    1.046   .     S
H564   N580    1.046   .     S
H565   N580    1.046   .     S
H572   O814    0.989   .     S
O592   H794    0.989   1_545 S
C593   O655    1.301   .     A
C593   O660    1.298   .     A
C593   C606    1.463   .     S
C594   C619    1.416   .     A
C594   C596    1.409   .     A
C594   N654    1.434   .     S
C595   C620    1.410   .     A
C595   C614    1.408   .     A
C596   C615    1.407   .     A
C596   C151    1.524   1_556 S
C597   O664    1.296   .     A
C597   C599    1.435   .     S
C597   O662    1.290   .     A
C598   C600    1.436   .     S
C598   O663    1.292   .     A
C598   O665    1.295   .     A
C600   C451    1.337   1_655 S
C600   H486    1.087   1_655 S
C601   C612    1.415   .     A
C601   C603    1.392   .     A
C601   O666    1.382   .     S
C602   C613    1.415   .     A
C602   C605    1.394   .     A
C602   O656    1.382   .     S
C603   H640    1.081   .     S
C603   C606    1.401   .     A
C604   O661    1.301   .     A
C604   C607    1.460   .     S
C604   O659    1.297   .     A
C605   H641    1.084   .     S
C605   C607    1.402   .     A
C606   C608    1.408   .     A
C607   C609    1.405   .     A
C608   N649    1.433   .     S
C608   C610    1.396   .     A
C609   N650    1.431   .     S
C609   C611    1.395   .     A
C610   H642    1.084   .     S
C610   C612    1.399   .     A
C611   H643    1.084   .     S
C611   C613    1.398   .     A
C612   C835    1.461   1_545 S
C613   C834    1.461   .     S
C614   H644    1.081   .     S
C614   C616    1.413   .     A
C615   C617    1.413   .     A
C615   H645    1.081   .     S
C616   N647    1.371   .     A
C616   N651    1.428   .     S
C617   N652    1.427   .     S
C617   N648    1.372   .     A
C618   N647    1.383   .     A
C618   O657    1.373   .     S
C618   C620    1.416   .     A
C619   O658    1.370   .     S
C619   N648    1.382   .     A
C620   N653    1.434   .     S
Cu621  O655    1.950   .     S
Cu621  Cu622   2.697   .     S
Cu621  N648    2.026   .     S
Cu621  O661    1.954   .     S
Cu621  O665    1.959   .     S
Cu621  O662    1.956   .     S
Cu622  O664    1.959   .     S
Cu622  N647    2.026   .     S
Cu622  O659    1.950   .     S
Cu622  O663    1.956   .     S
Cu622  O660    1.954   .     S
H623   C451    1.084   1_655 S
H624   O656    0.989   .     S
H625   N649    1.046   .     S
H626   N649    1.046   .     S
H627   N650    1.046   .     S
H628   N650    1.046   .     S
H629   N651    1.045   .     S
H630   N651    1.045   .     S
H631   N652    1.046   .     S
H632   N652    1.046   .     S
H633   O657    0.984   .     S
H635   O658    0.984   .     S
H636   N653    1.046   .     S
H637   N653    1.046   .     S
H638   N654    1.046   .     S
H639   N654    1.046   .     S
H646   O888    0.989   .     S
O666   H868    0.989   1_545 S
C667   O729    1.301   .     A
C667   O734    1.298   .     A
C667   C680    1.463   .     S
C668   C693    1.416   .     A
C668   C670    1.409   .     A
C668   N728    1.434   .     S
C669   C694    1.410   .     A
C669   C688    1.408   .     A
C670   C689    1.407   .     A
C670   C225    1.524   1_556 S
C671   O738    1.296   .     A
C671   C673    1.435   .     S
C671   O736    1.290   .     A
C672   C674    1.436   .     S
C672   O737    1.292   .     A
C672   O739    1.295   .     A
C673   C822    1.337   1_455 S
C673   H845    1.084   1_455 S
C674   C747    1.337   .     S
C674   H782    1.087   .     S
C675   C686    1.415   .     A
C675   C677    1.392   .     A
C675   O740    1.382   .     S
C676   C687    1.415   .     A
C676   C679    1.394   .     A
C676   O730    1.382   .     S
C677   H714    1.081   .     S
C677   C680    1.401   .     A
C678   O735    1.301   .     A
C678   C681    1.460   .     S
C678   O733    1.297   .     A
C679   H715    1.084   .     S
C679   C681    1.402   .     A
C680   C682    1.408   .     A
C681   C683    1.405   .     A
C682   N723    1.433   .     S
C682   C684    1.396   .     A
C683   N724    1.431   .     S
C683   C685    1.395   .     A
C684   H716    1.084   .     S
C684   C686    1.399   .     A
C685   H717    1.084   .     S
C685   C687    1.398   .     A
C687   C464    1.461   1_565 S
C688   H718    1.081   .     S
C688   C690    1.413   .     A
C689   C691    1.413   .     A
C689   H719    1.081   .     S
C690   N721    1.371   .     A
C690   N725    1.428   .     S
C691   N726    1.427   .     S
C691   N722    1.372   .     A
C692   N721    1.383   .     A
C692   O731    1.373   .     S
C692   C694    1.416   .     A
C693   O732    1.370   .     S
C693   N722    1.382   .     A
C694   N727    1.434   .     S
Cu695  O729    1.950   .     S
Cu695  Cu696   2.697   .     S
Cu695  N722    2.026   .     S
Cu695  O735    1.954   .     S
Cu695  O739    1.959   .     S
Cu695  O736    1.956   .     S
Cu696  O738    1.959   .     S
Cu696  N721    2.026   .     S
Cu696  O733    1.950   .     S
Cu696  O737    1.956   .     S
Cu696  O734    1.954   .     S
H697   C747    1.084   .     S
H698   O730    0.989   .     S
H699   N723    1.046   .     S
H700   N723    1.046   .     S
H701   N724    1.046   .     S
H702   N724    1.046   .     S
H703   N725    1.045   .     S
H704   N725    1.045   .     S
H705   N726    1.046   .     S
H706   N726    1.046   .     S
H707   O731    0.984   .     S
H708   C822    1.087   1_455 S
H709   O732    0.984   .     S
H710   N727    1.046   .     S
H711   N727    1.046   .     S
H712   N728    1.046   .     S
H713   N728    1.046   .     S
H720   O518    0.989   1_565 S
C741   O803    1.301   .     A
C741   O808    1.298   .     A
C741   C754    1.463   .     S
C742   C767    1.416   .     A
C742   C744    1.409   .     A
C742   N802    1.434   .     S
C743   C768    1.410   .     A
C743   C762    1.408   .     A
C744   C763    1.407   .     A
C744   C299    1.524   1_556 S
C745   O812    1.296   .     A
C745   C747    1.435   .     S
C745   O810    1.290   .     A
C746   C748    1.436   .     S
C746   O811    1.292   .     A
C746   O813    1.295   .     A
C748   C821    1.337   .     S
C748   H856    1.087   .     S
C749   C760    1.415   .     A
C749   C751    1.392   .     A
C749   O814    1.382   .     S
C750   C761    1.415   .     A
C750   C753    1.394   .     A
C750   O804    1.382   .     S
C751   H788    1.081   .     S
C751   C754    1.401   .     A
C752   O809    1.301   .     A
C752   C755    1.460   .     S
C752   O807    1.297   .     A
C753   H789    1.084   .     S
C753   C755    1.402   .     A
C754   C756    1.408   .     A
C755   C757    1.405   .     A
C756   N797    1.433   .     S
C756   C758    1.396   .     A
C757   N798    1.431   .     S
C757   C759    1.395   .     A
C758   H790    1.084   .     S
C758   C760    1.399   .     A
C759   H791    1.084   .     S
C759   C761    1.398   .     A
C761   C538    1.461   1_565 S
C762   H792    1.081   .     S
C762   C764    1.413   .     A
C763   C765    1.413   .     A
C763   H793    1.081   .     S
C764   N795    1.371   .     A
C764   N799    1.428   .     S
C765   N800    1.427   .     S
C765   N796    1.372   .     A
C766   N795    1.383   .     A
C766   O805    1.373   .     S
C766   C768    1.416   .     A
C767   O806    1.370   .     S
C767   N796    1.382   .     A
C768   N801    1.434   .     S
Cu769  O803    1.950   .     S
Cu769  Cu770   2.697   .     S
Cu769  N796    2.026   .     S
Cu769  O809    1.954   .     S
Cu769  O813    1.959   .     S
Cu769  O810    1.956   .     S
Cu770  O812    1.959   .     S
Cu770  N795    2.026   .     S
Cu770  O807    1.950   .     S
Cu770  O811    1.956   .     S
Cu770  O808    1.954   .     S
H771   C821    1.084   .     S
H772   O804    0.989   .     S
H773   N797    1.046   .     S
H774   N797    1.046   .     S
H775   N798    1.046   .     S
H776   N798    1.046   .     S
H777   N799    1.045   .     S
H778   N799    1.045   .     S
H779   N800    1.046   .     S
H780   N800    1.046   .     S
H781   O805    0.984   .     S
H783   O806    0.984   .     S
H784   N801    1.046   .     S
H785   N801    1.046   .     S
H786   N802    1.046   .     S
H787   N802    1.046   .     S
H794   O592    0.989   1_565 S
C815   O877    1.301   .     A
C815   O882    1.298   .     A
C815   C828    1.463   .     S
C816   C841    1.416   .     A
C816   C818    1.409   .     A
C816   N876    1.434   .     S
C817   C842    1.410   .     A
C817   C836    1.408   .     A
C818   C837    1.407   .     A
C818   C373    1.524   1_556 S
C819   O886    1.296   .     A
C819   C821    1.435   .     S
C819   O884    1.290   .     A
C820   C822    1.436   .     S
C820   O885    1.292   .     A
C820   O887    1.295   .     A
C822   C673    1.337   1_655 S
C822   H708    1.087   1_655 S
C823   C834    1.415   .     A
C823   C825    1.392   .     A
C823   O888    1.382   .     S
C824   C835    1.415   .     A
C824   C827    1.394   .     A
C824   O878    1.382   .     S
C825   H862    1.081   .     S
C825   C828    1.401   .     A
C826   O883    1.301   .     A
C826   C829    1.460   .     S
C826   O881    1.297   .     A
C827   H863    1.084   .     S
C827   C829    1.402   .     A
C828   C830    1.408   .     A
C829   C831    1.405   .     A
C830   N871    1.433   .     S
C830   C832    1.396   .     A
C831   N872    1.431   .     S
C831   C833    1.395   .     A
C832   H864    1.084   .     S
C832   C834    1.399   .     A
C833   H865    1.084   .     S
C833   C835    1.398   .     A
C835   C612    1.461   1_565 S
C836   H866    1.081   .     S
C836   C838    1.413   .     A
C837   C839    1.413   .     A
C837   H867    1.081   .     S
C838   N869    1.371   .     A
C838   N873    1.428   .     S
C839   N874    1.427   .     S
C839   N870    1.372   .     A
C840   N869    1.383   .     A
C840   O879    1.373   .     S
C840   C842    1.416   .     A
C841   O880    1.370   .     S
C841   N870    1.382   .     A
C842   N875    1.434   .     S
Cu843  O877    1.950   .     S
Cu843  Cu844   2.697   .     S
Cu843  N870    2.026   .     S
Cu843  O883    1.954   .     S
Cu843  O887    1.959   .     S
Cu843  O884    1.956   .     S
Cu844  O886    1.959   .     S
Cu844  N869    2.026   .     S
Cu844  O881    1.950   .     S
Cu844  O885    1.956   .     S
Cu844  O882    1.954   .     S
H845   C673    1.084   1_655 S
H846   O878    0.989   .     S
H847   N871    1.046   .     S
H848   N871    1.046   .     S
H849   N872    1.046   .     S
H850   N872    1.046   .     S
H851   N873    1.045   .     S
H852   N873    1.045   .     S
H853   N874    1.046   .     S
H854   N874    1.046   .     S
H855   O879    0.984   .     S
H857   O880    0.984   .     S
H858   N875    1.046   .     S
H859   N875    1.046   .     S
H860   N876    1.046   .     S
H861   N876    1.046   .     S
H868   O666    0.989   1_565 S
