data_str_m2_o5_o17_pcu_sym.41
_audit_creation_date              2020-01-03
_audit_creation_method            'Materials Studio'
_symmetry_space_group_name_H-M    'P1'
_symmetry_Int_Tables_number       1
_symmetry_cell_setting            triclinic
loop_
_symmetry_equiv_pos_as_xyz
  x,y,z
_cell_length_a                    30.1554
_cell_length_b                    27.2529
_cell_length_c                    23.3797
_cell_angle_alpha                 90.0993
_cell_angle_beta                  89.7065
_cell_angle_gamma                 90.0665
loop_
_atom_site_label
_atom_site_type_symbol
_atom_site_fract_x
_atom_site_fract_y
_atom_site_fract_z
_atom_site_U_iso_or_equiv
_atom_site_adp_type
_atom_site_occupancy
O1     O     0.25000   0.09613   0.21425   0.00000  Uiso   1.00
O2     O     0.25000   0.23720   0.11908   0.00000  Uiso   1.00
O3     O     0.25000   0.23720   0.21425   0.00000  Uiso   1.00
O4     O     0.25000   0.09613   0.11908   0.00000  Uiso   1.00
C5     C     0.24997   0.07336   0.16664   0.00000  Uiso   1.00
C6     C     0.25001   0.25998   0.16670   0.00000  Uiso   1.00
O7     O     0.18513   0.16667   0.21427   0.00000  Uiso   1.00
O8     O     0.31487   0.16667   0.11907   0.00000  Uiso   1.00
O9     O     0.31487   0.16667   0.21427   0.00000  Uiso   1.00
O10    O     0.18513   0.16667   0.11907   0.00000  Uiso   1.00
C11    C     0.16429   0.16715   0.16689   0.00000  Uiso   1.00
C12    C     0.33566   0.16655   0.16654   0.00000  Uiso   1.00
Cu13   Cu    0.25000   0.16667   0.22303   0.00000  Uiso   1.00
Cu14   Cu    0.25000   0.16667   0.11031   0.00000  Uiso   1.00
N15    N     0.25000   0.16667   0.02561   0.00000  Uiso   1.00
N16    N     0.25000   0.16667   0.30773   0.00000  Uiso   1.00
C17    C     0.40649   0.20537   0.14283   0.00000  Uiso   1.00
C18    C     0.09377   0.13121   0.19747   0.00000  Uiso   1.00
C19    C     0.40655   0.12610   0.19175   0.00000  Uiso   1.00
C20    C     0.09278   0.20844   0.14442   0.00000  Uiso   1.00
C21    C     0.38382   0.16562   0.16661   0.00000  Uiso   1.00
C22    C     0.11606   0.16862   0.16820   0.00000  Uiso   1.00
C23    C     0.45313   0.12839   0.19686   0.00000  Uiso   1.00
C24    C     0.04638   0.21090   0.15155   0.00000  Uiso   1.00
C25    C     0.45295   0.20902   0.14895   0.00000  Uiso   1.00
C26    C     0.04695   0.12952   0.19725   0.00000  Uiso   1.00
C27    C     0.47642   0.16918   0.17360   0.00000  Uiso   1.00
C28    C     0.02324   0.16997   0.17450   0.00000  Uiso   1.00
C29    C     0.47719   0.08972   0.22273   0.00000  Uiso   1.00
C30    C     0.02247   0.25369   0.13643   0.00000  Uiso   1.00
C31    C     0.47590   0.25249   0.13395   0.00000  Uiso   1.00
C32    C     0.02363   0.08834   0.21865   0.00000  Uiso   1.00
C33    C     0.24999   0.02180   0.16663   0.00000  Uiso   1.00
C34    C     0.25000   0.31153   0.16671   0.00000  Uiso   1.00
O35    O     0.45640   0.05323   0.25361   0.00000  Uiso   1.00
H36    H     0.43660   0.06978   0.28162   0.00000  Uiso   1.00
O37    O     0.04355   0.29790   0.12674   0.00000  Uiso   1.00
H38    H     0.06610   0.30215   0.15708   0.00000  Uiso   1.00
O39    O     0.45194   0.29451   0.12163   0.00000  Uiso   1.00
H40    H     0.47180   0.32133   0.10898   0.00000  Uiso   1.00
O41    O     0.04680   0.04690   0.23517   0.00000  Uiso   1.00
H42    H     0.02624   0.01921   0.24230   0.00000  Uiso   1.00
O43    O     0.38213   0.23987   0.11345   0.00000  Uiso   1.00
H44    H     0.39749   0.24541   0.07640   0.00000  Uiso   1.00
O45    O     0.11886   0.09646   0.22531   0.00000  Uiso   1.00
H46    H     0.10776   0.09521   0.26530   0.00000  Uiso   1.00
O47    O     0.38445   0.08368   0.20801   0.00000  Uiso   1.00
H48    H     0.35475   0.08202   0.19028   0.00000  Uiso   1.00
O49    O     0.11409   0.24450   0.11283   0.00000  Uiso   1.00
H50    H     0.14569   0.24660   0.12355   0.00000  Uiso   1.00
O51    O     0.75000   0.09613   0.21425   0.00000  Uiso   1.00
O52    O     0.75000   0.23720   0.11908   0.00000  Uiso   1.00
O53    O     0.75000   0.23720   0.21425   0.00000  Uiso   1.00
O54    O     0.75000   0.09613   0.11908   0.00000  Uiso   1.00
C55    C     0.74997   0.07336   0.16664   0.00000  Uiso   1.00
C56    C     0.75001   0.25998   0.16670   0.00000  Uiso   1.00
O57    O     0.68513   0.16667   0.21427   0.00000  Uiso   1.00
O58    O     0.81487   0.16667   0.11907   0.00000  Uiso   1.00
O59    O     0.81487   0.16667   0.21427   0.00000  Uiso   1.00
O60    O     0.68513   0.16667   0.11907   0.00000  Uiso   1.00
C61    C     0.66429   0.16715   0.16689   0.00000  Uiso   1.00
C62    C     0.83566   0.16655   0.16654   0.00000  Uiso   1.00
Cu63   Cu    0.75000   0.16667   0.22303   0.00000  Uiso   1.00
Cu64   Cu    0.75000   0.16667   0.11031   0.00000  Uiso   1.00
N65    N     0.75000   0.16667   0.02561   0.00000  Uiso   1.00
N66    N     0.75000   0.16667   0.30773   0.00000  Uiso   1.00
C67    C     0.90649   0.20537   0.14283   0.00000  Uiso   1.00
C68    C     0.59377   0.13121   0.19747   0.00000  Uiso   1.00
C69    C     0.90655   0.12610   0.19175   0.00000  Uiso   1.00
C70    C     0.59278   0.20844   0.14442   0.00000  Uiso   1.00
C71    C     0.88382   0.16562   0.16661   0.00000  Uiso   1.00
C72    C     0.61606   0.16862   0.16820   0.00000  Uiso   1.00
C73    C     0.95313   0.12839   0.19686   0.00000  Uiso   1.00
C74    C     0.54638   0.21090   0.15155   0.00000  Uiso   1.00
C75    C     0.95295   0.20902   0.14895   0.00000  Uiso   1.00
C76    C     0.54695   0.12952   0.19725   0.00000  Uiso   1.00
C77    C     0.97642   0.16918   0.17360   0.00000  Uiso   1.00
C78    C     0.52324   0.16997   0.17450   0.00000  Uiso   1.00
C79    C     0.97719   0.08972   0.22273   0.00000  Uiso   1.00
C80    C     0.52247   0.25369   0.13643   0.00000  Uiso   1.00
C81    C     0.97590   0.25249   0.13395   0.00000  Uiso   1.00
C82    C     0.52363   0.08834   0.21865   0.00000  Uiso   1.00
C83    C     0.74999   0.02180   0.16663   0.00000  Uiso   1.00
C84    C     0.75000   0.31153   0.16671   0.00000  Uiso   1.00
O85    O     0.95640   0.05323   0.25361   0.00000  Uiso   1.00
H86    H     0.93660   0.06978   0.28162   0.00000  Uiso   1.00
O87    O     0.54355   0.29790   0.12674   0.00000  Uiso   1.00
H88    H     0.56610   0.30215   0.15708   0.00000  Uiso   1.00
O89    O     0.95194   0.29451   0.12163   0.00000  Uiso   1.00
H90    H     0.97180   0.32133   0.10898   0.00000  Uiso   1.00
O91    O     0.54680   0.04690   0.23517   0.00000  Uiso   1.00
H92    H     0.52624   0.01921   0.24230   0.00000  Uiso   1.00
O93    O     0.88213   0.23987   0.11345   0.00000  Uiso   1.00
H94    H     0.89749   0.24541   0.07640   0.00000  Uiso   1.00
O95    O     0.61886   0.09646   0.22531   0.00000  Uiso   1.00
H96    H     0.60776   0.09521   0.26530   0.00000  Uiso   1.00
O97    O     0.88445   0.08368   0.20801   0.00000  Uiso   1.00
H98    H     0.85475   0.08202   0.19028   0.00000  Uiso   1.00
O99    O     0.61409   0.24450   0.11283   0.00000  Uiso   1.00
H100   H     0.64569   0.24660   0.12355   0.00000  Uiso   1.00
O101   O     0.25000   0.42946   0.21425   0.00000  Uiso   1.00
O102   O     0.25000   0.57054   0.11908   0.00000  Uiso   1.00
O103   O     0.25000   0.57054   0.21425   0.00000  Uiso   1.00
O104   O     0.25000   0.42946   0.11908   0.00000  Uiso   1.00
C105   C     0.24997   0.40669   0.16664   0.00000  Uiso   1.00
C106   C     0.25001   0.59331   0.16670   0.00000  Uiso   1.00
O107   O     0.18513   0.50000   0.21427   0.00000  Uiso   1.00
O108   O     0.31487   0.50000   0.11907   0.00000  Uiso   1.00
O109   O     0.31487   0.50000   0.21427   0.00000  Uiso   1.00
O110   O     0.18513   0.50000   0.11907   0.00000  Uiso   1.00
C111   C     0.16429   0.50048   0.16689   0.00000  Uiso   1.00
C112   C     0.33566   0.49988   0.16654   0.00000  Uiso   1.00
Cu113  Cu    0.25000   0.50000   0.22303   0.00000  Uiso   1.00
Cu114  Cu    0.25000   0.50000   0.11031   0.00000  Uiso   1.00
N115   N     0.25000   0.50000   0.02561   0.00000  Uiso   1.00
N116   N     0.25000   0.50000   0.30773   0.00000  Uiso   1.00
C117   C     0.40649   0.53871   0.14283   0.00000  Uiso   1.00
C118   C     0.09377   0.46454   0.19747   0.00000  Uiso   1.00
C119   C     0.40655   0.45943   0.19175   0.00000  Uiso   1.00
C120   C     0.09278   0.54177   0.14442   0.00000  Uiso   1.00
C121   C     0.38382   0.49895   0.16661   0.00000  Uiso   1.00
C122   C     0.11606   0.50195   0.16820   0.00000  Uiso   1.00
C123   C     0.45313   0.46172   0.19686   0.00000  Uiso   1.00
C124   C     0.04638   0.54423   0.15155   0.00000  Uiso   1.00
C125   C     0.45295   0.54235   0.14895   0.00000  Uiso   1.00
C126   C     0.04695   0.46286   0.19725   0.00000  Uiso   1.00
C127   C     0.47642   0.50252   0.17360   0.00000  Uiso   1.00
C128   C     0.02324   0.50330   0.17450   0.00000  Uiso   1.00
C129   C     0.47719   0.42305   0.22273   0.00000  Uiso   1.00
C130   C     0.02247   0.58703   0.13643   0.00000  Uiso   1.00
C131   C     0.47590   0.58582   0.13395   0.00000  Uiso   1.00
C132   C     0.02363   0.42168   0.21865   0.00000  Uiso   1.00
C133   C     0.24999   0.35513   0.16663   0.00000  Uiso   1.00
C134   C     0.25000   0.64487   0.16671   0.00000  Uiso   1.00
O135   O     0.45640   0.38657   0.25361   0.00000  Uiso   1.00
H136   H     0.43660   0.40311   0.28162   0.00000  Uiso   1.00
O137   O     0.04355   0.63123   0.12674   0.00000  Uiso   1.00
H138   H     0.06610   0.63548   0.15708   0.00000  Uiso   1.00
O139   O     0.45194   0.62784   0.12163   0.00000  Uiso   1.00
H140   H     0.47180   0.65466   0.10898   0.00000  Uiso   1.00
O141   O     0.04680   0.38024   0.23517   0.00000  Uiso   1.00
H142   H     0.02624   0.35254   0.24230   0.00000  Uiso   1.00
O143   O     0.38213   0.57320   0.11345   0.00000  Uiso   1.00
H144   H     0.39749   0.57874   0.07640   0.00000  Uiso   1.00
O145   O     0.11886   0.42979   0.22531   0.00000  Uiso   1.00
H146   H     0.10776   0.42855   0.26530   0.00000  Uiso   1.00
O147   O     0.38445   0.41701   0.20801   0.00000  Uiso   1.00
H148   H     0.35475   0.41536   0.19028   0.00000  Uiso   1.00
O149   O     0.11409   0.57783   0.11283   0.00000  Uiso   1.00
H150   H     0.14569   0.57994   0.12355   0.00000  Uiso   1.00
O151   O     0.75000   0.42946   0.21425   0.00000  Uiso   1.00
O152   O     0.75000   0.57054   0.11908   0.00000  Uiso   1.00
O153   O     0.75000   0.57054   0.21425   0.00000  Uiso   1.00
O154   O     0.75000   0.42946   0.11908   0.00000  Uiso   1.00
C155   C     0.74997   0.40669   0.16664   0.00000  Uiso   1.00
C156   C     0.75001   0.59331   0.16670   0.00000  Uiso   1.00
O157   O     0.68513   0.50000   0.21427   0.00000  Uiso   1.00
O158   O     0.81487   0.50000   0.11907   0.00000  Uiso   1.00
O159   O     0.81487   0.50000   0.21427   0.00000  Uiso   1.00
O160   O     0.68513   0.50000   0.11907   0.00000  Uiso   1.00
C161   C     0.66429   0.50048   0.16689   0.00000  Uiso   1.00
C162   C     0.83566   0.49988   0.16654   0.00000  Uiso   1.00
Cu163  Cu    0.75000   0.50000   0.22303   0.00000  Uiso   1.00
Cu164  Cu    0.75000   0.50000   0.11031   0.00000  Uiso   1.00
N165   N     0.75000   0.50000   0.02561   0.00000  Uiso   1.00
N166   N     0.75000   0.50000   0.30773   0.00000  Uiso   1.00
C167   C     0.90649   0.53871   0.14283   0.00000  Uiso   1.00
C168   C     0.59377   0.46454   0.19747   0.00000  Uiso   1.00
C169   C     0.90655   0.45943   0.19175   0.00000  Uiso   1.00
C170   C     0.59278   0.54177   0.14442   0.00000  Uiso   1.00
C171   C     0.88382   0.49895   0.16661   0.00000  Uiso   1.00
C172   C     0.61606   0.50195   0.16820   0.00000  Uiso   1.00
C173   C     0.95313   0.46172   0.19686   0.00000  Uiso   1.00
C174   C     0.54638   0.54423   0.15155   0.00000  Uiso   1.00
C175   C     0.95295   0.54235   0.14895   0.00000  Uiso   1.00
C176   C     0.54695   0.46286   0.19725   0.00000  Uiso   1.00
C177   C     0.97642   0.50252   0.17360   0.00000  Uiso   1.00
C178   C     0.52324   0.50330   0.17450   0.00000  Uiso   1.00
C179   C     0.97719   0.42305   0.22273   0.00000  Uiso   1.00
C180   C     0.52247   0.58703   0.13643   0.00000  Uiso   1.00
C181   C     0.97590   0.58582   0.13395   0.00000  Uiso   1.00
C182   C     0.52363   0.42168   0.21865   0.00000  Uiso   1.00
C183   C     0.74999   0.35513   0.16663   0.00000  Uiso   1.00
C184   C     0.75000   0.64487   0.16671   0.00000  Uiso   1.00
O185   O     0.95640   0.38657   0.25361   0.00000  Uiso   1.00
H186   H     0.93660   0.40311   0.28162   0.00000  Uiso   1.00
O187   O     0.54355   0.63123   0.12674   0.00000  Uiso   1.00
H188   H     0.56610   0.63548   0.15708   0.00000  Uiso   1.00
O189   O     0.95194   0.62784   0.12163   0.00000  Uiso   1.00
H190   H     0.97180   0.65466   0.10898   0.00000  Uiso   1.00
O191   O     0.54680   0.38024   0.23517   0.00000  Uiso   1.00
H192   H     0.52624   0.35254   0.24230   0.00000  Uiso   1.00
O193   O     0.88213   0.57320   0.11345   0.00000  Uiso   1.00
H194   H     0.89749   0.57874   0.07640   0.00000  Uiso   1.00
O195   O     0.61886   0.42979   0.22531   0.00000  Uiso   1.00
H196   H     0.60776   0.42855   0.26530   0.00000  Uiso   1.00
O197   O     0.88445   0.41701   0.20801   0.00000  Uiso   1.00
H198   H     0.85475   0.41536   0.19028   0.00000  Uiso   1.00
O199   O     0.61409   0.57783   0.11283   0.00000  Uiso   1.00
H200   H     0.64569   0.57994   0.12355   0.00000  Uiso   1.00
O201   O     0.25000   0.76280   0.21425   0.00000  Uiso   1.00
O202   O     0.25000   0.90387   0.11908   0.00000  Uiso   1.00
O203   O     0.25000   0.90387   0.21425   0.00000  Uiso   1.00
O204   O     0.25000   0.76280   0.11908   0.00000  Uiso   1.00
C205   C     0.24997   0.74002   0.16664   0.00000  Uiso   1.00
C206   C     0.25001   0.92664   0.16670   0.00000  Uiso   1.00
O207   O     0.18513   0.83333   0.21427   0.00000  Uiso   1.00
O208   O     0.31487   0.83333   0.11907   0.00000  Uiso   1.00
O209   O     0.31487   0.83333   0.21427   0.00000  Uiso   1.00
O210   O     0.18513   0.83333   0.11907   0.00000  Uiso   1.00
C211   C     0.16429   0.83382   0.16689   0.00000  Uiso   1.00
C212   C     0.33566   0.83322   0.16654   0.00000  Uiso   1.00
Cu213  Cu    0.25000   0.83333   0.22303   0.00000  Uiso   1.00
Cu214  Cu    0.25000   0.83333   0.11031   0.00000  Uiso   1.00
N215   N     0.25000   0.83333   0.02561   0.00000  Uiso   1.00
N216   N     0.25000   0.83333   0.30773   0.00000  Uiso   1.00
C217   C     0.40649   0.87204   0.14283   0.00000  Uiso   1.00
C218   C     0.09377   0.79788   0.19747   0.00000  Uiso   1.00
C219   C     0.40655   0.79277   0.19175   0.00000  Uiso   1.00
C220   C     0.09278   0.87510   0.14442   0.00000  Uiso   1.00
C221   C     0.38382   0.83228   0.16661   0.00000  Uiso   1.00
C222   C     0.11606   0.83529   0.16820   0.00000  Uiso   1.00
C223   C     0.45313   0.79506   0.19686   0.00000  Uiso   1.00
C224   C     0.04638   0.87757   0.15155   0.00000  Uiso   1.00
C225   C     0.45295   0.87569   0.14895   0.00000  Uiso   1.00
C226   C     0.04695   0.79619   0.19725   0.00000  Uiso   1.00
C227   C     0.47642   0.83585   0.17360   0.00000  Uiso   1.00
C228   C     0.02324   0.83664   0.17450   0.00000  Uiso   1.00
C229   C     0.47719   0.75639   0.22273   0.00000  Uiso   1.00
C230   C     0.02247   0.92036   0.13643   0.00000  Uiso   1.00
C231   C     0.47590   0.91916   0.13395   0.00000  Uiso   1.00
C232   C     0.02363   0.75501   0.21865   0.00000  Uiso   1.00
C233   C     0.24999   0.68847   0.16663   0.00000  Uiso   1.00
C234   C     0.25000   0.97820   0.16671   0.00000  Uiso   1.00
O235   O     0.45640   0.71990   0.25361   0.00000  Uiso   1.00
H236   H     0.43660   0.73644   0.28162   0.00000  Uiso   1.00
O237   O     0.04355   0.96456   0.12674   0.00000  Uiso   1.00
H238   H     0.06610   0.96881   0.15708   0.00000  Uiso   1.00
O239   O     0.45194   0.96117   0.12163   0.00000  Uiso   1.00
H240   H     0.47180   0.98800   0.10898   0.00000  Uiso   1.00
O241   O     0.04680   0.71357   0.23517   0.00000  Uiso   1.00
H242   H     0.02624   0.68588   0.24230   0.00000  Uiso   1.00
O243   O     0.38213   0.90653   0.11345   0.00000  Uiso   1.00
H244   H     0.39749   0.91207   0.07640   0.00000  Uiso   1.00
O245   O     0.11886   0.76312   0.22531   0.00000  Uiso   1.00
H246   H     0.10776   0.76188   0.26530   0.00000  Uiso   1.00
O247   O     0.38445   0.75034   0.20801   0.00000  Uiso   1.00
H248   H     0.35475   0.74869   0.19028   0.00000  Uiso   1.00
O249   O     0.11409   0.91116   0.11283   0.00000  Uiso   1.00
H250   H     0.14569   0.91327   0.12355   0.00000  Uiso   1.00
O251   O     0.75000   0.76280   0.21425   0.00000  Uiso   1.00
O252   O     0.75000   0.90387   0.11908   0.00000  Uiso   1.00
O253   O     0.75000   0.90387   0.21425   0.00000  Uiso   1.00
O254   O     0.75000   0.76280   0.11908   0.00000  Uiso   1.00
C255   C     0.74997   0.74002   0.16664   0.00000  Uiso   1.00
C256   C     0.75001   0.92664   0.16670   0.00000  Uiso   1.00
O257   O     0.68513   0.83333   0.21427   0.00000  Uiso   1.00
O258   O     0.81487   0.83333   0.11907   0.00000  Uiso   1.00
O259   O     0.81487   0.83333   0.21427   0.00000  Uiso   1.00
O260   O     0.68513   0.83333   0.11907   0.00000  Uiso   1.00
C261   C     0.66429   0.83382   0.16689   0.00000  Uiso   1.00
C262   C     0.83566   0.83322   0.16654   0.00000  Uiso   1.00
Cu263  Cu    0.75000   0.83333   0.22303   0.00000  Uiso   1.00
Cu264  Cu    0.75000   0.83333   0.11031   0.00000  Uiso   1.00
N265   N     0.75000   0.83333   0.02561   0.00000  Uiso   1.00
N266   N     0.75000   0.83333   0.30773   0.00000  Uiso   1.00
C267   C     0.90649   0.87204   0.14283   0.00000  Uiso   1.00
C268   C     0.59377   0.79788   0.19747   0.00000  Uiso   1.00
C269   C     0.90655   0.79277   0.19175   0.00000  Uiso   1.00
C270   C     0.59278   0.87510   0.14442   0.00000  Uiso   1.00
C271   C     0.88382   0.83228   0.16661   0.00000  Uiso   1.00
C272   C     0.61606   0.83529   0.16820   0.00000  Uiso   1.00
C273   C     0.95313   0.79506   0.19686   0.00000  Uiso   1.00
C274   C     0.54638   0.87757   0.15155   0.00000  Uiso   1.00
C275   C     0.95295   0.87569   0.14895   0.00000  Uiso   1.00
C276   C     0.54695   0.79619   0.19725   0.00000  Uiso   1.00
C277   C     0.97642   0.83585   0.17360   0.00000  Uiso   1.00
C278   C     0.52324   0.83664   0.17450   0.00000  Uiso   1.00
C279   C     0.97719   0.75639   0.22273   0.00000  Uiso   1.00
C280   C     0.52247   0.92036   0.13643   0.00000  Uiso   1.00
C281   C     0.97590   0.91916   0.13395   0.00000  Uiso   1.00
C282   C     0.52363   0.75501   0.21865   0.00000  Uiso   1.00
C283   C     0.74999   0.68847   0.16663   0.00000  Uiso   1.00
C284   C     0.75000   0.97820   0.16671   0.00000  Uiso   1.00
O285   O     0.95640   0.71990   0.25361   0.00000  Uiso   1.00
H286   H     0.93660   0.73644   0.28162   0.00000  Uiso   1.00
O287   O     0.54355   0.96456   0.12674   0.00000  Uiso   1.00
H288   H     0.56610   0.96881   0.15708   0.00000  Uiso   1.00
O289   O     0.95194   0.96117   0.12163   0.00000  Uiso   1.00
H290   H     0.97180   0.98800   0.10898   0.00000  Uiso   1.00
O291   O     0.54680   0.71357   0.23517   0.00000  Uiso   1.00
H292   H     0.52624   0.68588   0.24230   0.00000  Uiso   1.00
O293   O     0.88213   0.90653   0.11345   0.00000  Uiso   1.00
H294   H     0.89749   0.91207   0.07640   0.00000  Uiso   1.00
O295   O     0.61886   0.76312   0.22531   0.00000  Uiso   1.00
H296   H     0.60776   0.76188   0.26530   0.00000  Uiso   1.00
O297   O     0.88445   0.75034   0.20801   0.00000  Uiso   1.00
H298   H     0.85475   0.74869   0.19028   0.00000  Uiso   1.00
O299   O     0.61409   0.91116   0.11283   0.00000  Uiso   1.00
H300   H     0.64569   0.91327   0.12355   0.00000  Uiso   1.00
O301   O     0.25000   0.09613   0.54759   0.00000  Uiso   1.00
O302   O     0.25000   0.23720   0.45241   0.00000  Uiso   1.00
O303   O     0.25000   0.23720   0.54759   0.00000  Uiso   1.00
O304   O     0.25000   0.09613   0.45241   0.00000  Uiso   1.00
C305   C     0.24997   0.07336   0.49997   0.00000  Uiso   1.00
C306   C     0.25001   0.25998   0.50003   0.00000  Uiso   1.00
O307   O     0.18513   0.16667   0.54760   0.00000  Uiso   1.00
O308   O     0.31487   0.16667   0.45240   0.00000  Uiso   1.00
O309   O     0.31487   0.16667   0.54760   0.00000  Uiso   1.00
O310   O     0.18513   0.16667   0.45240   0.00000  Uiso   1.00
C311   C     0.16429   0.16715   0.50022   0.00000  Uiso   1.00
C312   C     0.33566   0.16655   0.49987   0.00000  Uiso   1.00
Cu313  Cu    0.25000   0.16667   0.55636   0.00000  Uiso   1.00
Cu314  Cu    0.25000   0.16667   0.44364   0.00000  Uiso   1.00
N315   N     0.25000   0.16667   0.35894   0.00000  Uiso   1.00
N316   N     0.25000   0.16667   0.64106   0.00000  Uiso   1.00
C317   C     0.40649   0.20537   0.47617   0.00000  Uiso   1.00
C318   C     0.09377   0.13121   0.53080   0.00000  Uiso   1.00
C319   C     0.40655   0.12610   0.52508   0.00000  Uiso   1.00
C320   C     0.09278   0.20844   0.47776   0.00000  Uiso   1.00
C321   C     0.38382   0.16562   0.49995   0.00000  Uiso   1.00
C322   C     0.11606   0.16862   0.50153   0.00000  Uiso   1.00
C323   C     0.45313   0.12839   0.53019   0.00000  Uiso   1.00
C324   C     0.04638   0.21090   0.48488   0.00000  Uiso   1.00
C325   C     0.45295   0.20902   0.48228   0.00000  Uiso   1.00
C326   C     0.04695   0.12952   0.53059   0.00000  Uiso   1.00
C327   C     0.47642   0.16918   0.50694   0.00000  Uiso   1.00
C328   C     0.02324   0.16997   0.50783   0.00000  Uiso   1.00
C329   C     0.47719   0.08972   0.55606   0.00000  Uiso   1.00
C330   C     0.02247   0.25369   0.46976   0.00000  Uiso   1.00
C331   C     0.47590   0.25249   0.46729   0.00000  Uiso   1.00
C332   C     0.02363   0.08834   0.55198   0.00000  Uiso   1.00
C333   C     0.24999   0.02180   0.49996   0.00000  Uiso   1.00
C334   C     0.25000   0.31153   0.50004   0.00000  Uiso   1.00
O335   O     0.45640   0.05323   0.58695   0.00000  Uiso   1.00
H336   H     0.43660   0.06978   0.61496   0.00000  Uiso   1.00
O337   O     0.04355   0.29790   0.46007   0.00000  Uiso   1.00
H338   H     0.06610   0.30215   0.49041   0.00000  Uiso   1.00
O339   O     0.45194   0.29451   0.45496   0.00000  Uiso   1.00
H340   H     0.47180   0.32133   0.44231   0.00000  Uiso   1.00
O341   O     0.04680   0.04690   0.56851   0.00000  Uiso   1.00
H342   H     0.02624   0.01921   0.57563   0.00000  Uiso   1.00
O343   O     0.38213   0.23987   0.44678   0.00000  Uiso   1.00
H344   H     0.39749   0.24541   0.40973   0.00000  Uiso   1.00
O345   O     0.11886   0.09646   0.55865   0.00000  Uiso   1.00
H346   H     0.10776   0.09521   0.59863   0.00000  Uiso   1.00
O347   O     0.38445   0.08368   0.54135   0.00000  Uiso   1.00
H348   H     0.35475   0.08202   0.52361   0.00000  Uiso   1.00
O349   O     0.11409   0.24450   0.44616   0.00000  Uiso   1.00
H350   H     0.14569   0.24660   0.45688   0.00000  Uiso   1.00
O351   O     0.75000   0.09613   0.54759   0.00000  Uiso   1.00
O352   O     0.75000   0.23720   0.45241   0.00000  Uiso   1.00
O353   O     0.75000   0.23720   0.54759   0.00000  Uiso   1.00
O354   O     0.75000   0.09613   0.45241   0.00000  Uiso   1.00
C355   C     0.74997   0.07336   0.49997   0.00000  Uiso   1.00
C356   C     0.75001   0.25998   0.50003   0.00000  Uiso   1.00
O357   O     0.68513   0.16667   0.54760   0.00000  Uiso   1.00
O358   O     0.81487   0.16667   0.45240   0.00000  Uiso   1.00
O359   O     0.81487   0.16667   0.54760   0.00000  Uiso   1.00
O360   O     0.68513   0.16667   0.45240   0.00000  Uiso   1.00
C361   C     0.66429   0.16715   0.50022   0.00000  Uiso   1.00
C362   C     0.83566   0.16655   0.49987   0.00000  Uiso   1.00
Cu363  Cu    0.75000   0.16667   0.55636   0.00000  Uiso   1.00
Cu364  Cu    0.75000   0.16667   0.44364   0.00000  Uiso   1.00
N365   N     0.75000   0.16667   0.35894   0.00000  Uiso   1.00
N366   N     0.75000   0.16667   0.64106   0.00000  Uiso   1.00
C367   C     0.90649   0.20537   0.47617   0.00000  Uiso   1.00
C368   C     0.59377   0.13121   0.53080   0.00000  Uiso   1.00
C369   C     0.90655   0.12610   0.52508   0.00000  Uiso   1.00
C370   C     0.59278   0.20844   0.47776   0.00000  Uiso   1.00
C371   C     0.88382   0.16562   0.49995   0.00000  Uiso   1.00
C372   C     0.61606   0.16862   0.50153   0.00000  Uiso   1.00
C373   C     0.95313   0.12839   0.53019   0.00000  Uiso   1.00
C374   C     0.54638   0.21090   0.48488   0.00000  Uiso   1.00
C375   C     0.95295   0.20902   0.48228   0.00000  Uiso   1.00
C376   C     0.54695   0.12952   0.53059   0.00000  Uiso   1.00
C377   C     0.97642   0.16918   0.50694   0.00000  Uiso   1.00
C378   C     0.52324   0.16997   0.50783   0.00000  Uiso   1.00
C379   C     0.97719   0.08972   0.55606   0.00000  Uiso   1.00
C380   C     0.52247   0.25369   0.46976   0.00000  Uiso   1.00
C381   C     0.97590   0.25249   0.46729   0.00000  Uiso   1.00
C382   C     0.52363   0.08834   0.55198   0.00000  Uiso   1.00
C383   C     0.74999   0.02180   0.49996   0.00000  Uiso   1.00
C384   C     0.75000   0.31153   0.50004   0.00000  Uiso   1.00
O385   O     0.95640   0.05323   0.58695   0.00000  Uiso   1.00
H386   H     0.93660   0.06978   0.61496   0.00000  Uiso   1.00
O387   O     0.54355   0.29790   0.46007   0.00000  Uiso   1.00
H388   H     0.56610   0.30215   0.49041   0.00000  Uiso   1.00
O389   O     0.95194   0.29451   0.45496   0.00000  Uiso   1.00
H390   H     0.97180   0.32133   0.44231   0.00000  Uiso   1.00
O391   O     0.54680   0.04690   0.56851   0.00000  Uiso   1.00
H392   H     0.52624   0.01921   0.57563   0.00000  Uiso   1.00
O393   O     0.88213   0.23987   0.44678   0.00000  Uiso   1.00
H394   H     0.89749   0.24541   0.40973   0.00000  Uiso   1.00
O395   O     0.61886   0.09646   0.55865   0.00000  Uiso   1.00
H396   H     0.60776   0.09521   0.59863   0.00000  Uiso   1.00
O397   O     0.88445   0.08368   0.54135   0.00000  Uiso   1.00
H398   H     0.85475   0.08202   0.52361   0.00000  Uiso   1.00
O399   O     0.61409   0.24450   0.44616   0.00000  Uiso   1.00
H400   H     0.64569   0.24660   0.45688   0.00000  Uiso   1.00
O401   O     0.25000   0.42946   0.54759   0.00000  Uiso   1.00
O402   O     0.25000   0.57054   0.45241   0.00000  Uiso   1.00
O403   O     0.25000   0.57054   0.54759   0.00000  Uiso   1.00
O404   O     0.25000   0.42946   0.45241   0.00000  Uiso   1.00
C405   C     0.24997   0.40669   0.49997   0.00000  Uiso   1.00
C406   C     0.25001   0.59331   0.50003   0.00000  Uiso   1.00
O407   O     0.18513   0.50000   0.54760   0.00000  Uiso   1.00
O408   O     0.31487   0.50000   0.45240   0.00000  Uiso   1.00
O409   O     0.31487   0.50000   0.54760   0.00000  Uiso   1.00
O410   O     0.18513   0.50000   0.45240   0.00000  Uiso   1.00
C411   C     0.16429   0.50048   0.50022   0.00000  Uiso   1.00
C412   C     0.33566   0.49988   0.49987   0.00000  Uiso   1.00
Cu413  Cu    0.25000   0.50000   0.55636   0.00000  Uiso   1.00
Cu414  Cu    0.25000   0.50000   0.44364   0.00000  Uiso   1.00
N415   N     0.25000   0.50000   0.35894   0.00000  Uiso   1.00
N416   N     0.25000   0.50000   0.64106   0.00000  Uiso   1.00
C417   C     0.40649   0.53871   0.47617   0.00000  Uiso   1.00
C418   C     0.09377   0.46454   0.53080   0.00000  Uiso   1.00
C419   C     0.40655   0.45943   0.52508   0.00000  Uiso   1.00
C420   C     0.09278   0.54177   0.47776   0.00000  Uiso   1.00
C421   C     0.38382   0.49895   0.49995   0.00000  Uiso   1.00
C422   C     0.11606   0.50195   0.50153   0.00000  Uiso   1.00
C423   C     0.45313   0.46172   0.53019   0.00000  Uiso   1.00
C424   C     0.04638   0.54423   0.48488   0.00000  Uiso   1.00
C425   C     0.45295   0.54235   0.48228   0.00000  Uiso   1.00
C426   C     0.04695   0.46286   0.53059   0.00000  Uiso   1.00
C427   C     0.47642   0.50252   0.50694   0.00000  Uiso   1.00
C428   C     0.02324   0.50330   0.50783   0.00000  Uiso   1.00
C429   C     0.47719   0.42305   0.55606   0.00000  Uiso   1.00
C430   C     0.02247   0.58703   0.46976   0.00000  Uiso   1.00
C431   C     0.47590   0.58582   0.46729   0.00000  Uiso   1.00
C432   C     0.02363   0.42168   0.55198   0.00000  Uiso   1.00
C433   C     0.24999   0.35513   0.49996   0.00000  Uiso   1.00
C434   C     0.25000   0.64487   0.50004   0.00000  Uiso   1.00
O435   O     0.45640   0.38657   0.58695   0.00000  Uiso   1.00
H436   H     0.43660   0.40311   0.61496   0.00000  Uiso   1.00
O437   O     0.04355   0.63123   0.46007   0.00000  Uiso   1.00
H438   H     0.06610   0.63548   0.49041   0.00000  Uiso   1.00
O439   O     0.45194   0.62784   0.45496   0.00000  Uiso   1.00
H440   H     0.47180   0.65466   0.44231   0.00000  Uiso   1.00
O441   O     0.04680   0.38024   0.56851   0.00000  Uiso   1.00
H442   H     0.02624   0.35254   0.57563   0.00000  Uiso   1.00
O443   O     0.38213   0.57320   0.44678   0.00000  Uiso   1.00
H444   H     0.39749   0.57874   0.40973   0.00000  Uiso   1.00
O445   O     0.11886   0.42979   0.55865   0.00000  Uiso   1.00
H446   H     0.10776   0.42855   0.59863   0.00000  Uiso   1.00
O447   O     0.38445   0.41701   0.54135   0.00000  Uiso   1.00
H448   H     0.35475   0.41536   0.52361   0.00000  Uiso   1.00
O449   O     0.11409   0.57783   0.44616   0.00000  Uiso   1.00
H450   H     0.14569   0.57994   0.45688   0.00000  Uiso   1.00
O451   O     0.75000   0.42946   0.54759   0.00000  Uiso   1.00
O452   O     0.75000   0.57054   0.45241   0.00000  Uiso   1.00
O453   O     0.75000   0.57054   0.54759   0.00000  Uiso   1.00
O454   O     0.75000   0.42946   0.45241   0.00000  Uiso   1.00
C455   C     0.74997   0.40669   0.49997   0.00000  Uiso   1.00
C456   C     0.75001   0.59331   0.50003   0.00000  Uiso   1.00
O457   O     0.68513   0.50000   0.54760   0.00000  Uiso   1.00
O458   O     0.81487   0.50000   0.45240   0.00000  Uiso   1.00
O459   O     0.81487   0.50000   0.54760   0.00000  Uiso   1.00
O460   O     0.68513   0.50000   0.45240   0.00000  Uiso   1.00
C461   C     0.66429   0.50048   0.50022   0.00000  Uiso   1.00
C462   C     0.83566   0.49988   0.49987   0.00000  Uiso   1.00
Cu463  Cu    0.75000   0.50000   0.55636   0.00000  Uiso   1.00
Cu464  Cu    0.75000   0.50000   0.44364   0.00000  Uiso   1.00
N465   N     0.75000   0.50000   0.35894   0.00000  Uiso   1.00
N466   N     0.75000   0.50000   0.64106   0.00000  Uiso   1.00
C467   C     0.90649   0.53871   0.47617   0.00000  Uiso   1.00
C468   C     0.59377   0.46454   0.53080   0.00000  Uiso   1.00
C469   C     0.90655   0.45943   0.52508   0.00000  Uiso   1.00
C470   C     0.59278   0.54177   0.47776   0.00000  Uiso   1.00
C471   C     0.88382   0.49895   0.49995   0.00000  Uiso   1.00
C472   C     0.61606   0.50195   0.50153   0.00000  Uiso   1.00
C473   C     0.95313   0.46172   0.53019   0.00000  Uiso   1.00
C474   C     0.54638   0.54423   0.48488   0.00000  Uiso   1.00
C475   C     0.95295   0.54235   0.48228   0.00000  Uiso   1.00
C476   C     0.54695   0.46286   0.53059   0.00000  Uiso   1.00
C477   C     0.97642   0.50252   0.50694   0.00000  Uiso   1.00
C478   C     0.52324   0.50330   0.50783   0.00000  Uiso   1.00
C479   C     0.97719   0.42305   0.55606   0.00000  Uiso   1.00
C480   C     0.52247   0.58703   0.46976   0.00000  Uiso   1.00
C481   C     0.97590   0.58582   0.46729   0.00000  Uiso   1.00
C482   C     0.52363   0.42168   0.55198   0.00000  Uiso   1.00
C483   C     0.74999   0.35513   0.49996   0.00000  Uiso   1.00
C484   C     0.75000   0.64487   0.50004   0.00000  Uiso   1.00
O485   O     0.95640   0.38657   0.58695   0.00000  Uiso   1.00
H486   H     0.93660   0.40311   0.61496   0.00000  Uiso   1.00
O487   O     0.54355   0.63123   0.46007   0.00000  Uiso   1.00
H488   H     0.56610   0.63548   0.49041   0.00000  Uiso   1.00
O489   O     0.95194   0.62784   0.45496   0.00000  Uiso   1.00
H490   H     0.97180   0.65466   0.44231   0.00000  Uiso   1.00
O491   O     0.54680   0.38024   0.56851   0.00000  Uiso   1.00
H492   H     0.52624   0.35254   0.57563   0.00000  Uiso   1.00
O493   O     0.88213   0.57320   0.44678   0.00000  Uiso   1.00
H494   H     0.89749   0.57874   0.40973   0.00000  Uiso   1.00
O495   O     0.61886   0.42979   0.55865   0.00000  Uiso   1.00
H496   H     0.60776   0.42855   0.59863   0.00000  Uiso   1.00
O497   O     0.88445   0.41701   0.54135   0.00000  Uiso   1.00
H498   H     0.85475   0.41536   0.52361   0.00000  Uiso   1.00
O499   O     0.61409   0.57783   0.44616   0.00000  Uiso   1.00
H500   H     0.64569   0.57994   0.45688   0.00000  Uiso   1.00
O501   O     0.25000   0.76280   0.54759   0.00000  Uiso   1.00
O502   O     0.25000   0.90387   0.45241   0.00000  Uiso   1.00
O503   O     0.25000   0.90387   0.54759   0.00000  Uiso   1.00
O504   O     0.25000   0.76280   0.45241   0.00000  Uiso   1.00
C505   C     0.24997   0.74002   0.49997   0.00000  Uiso   1.00
C506   C     0.25001   0.92664   0.50003   0.00000  Uiso   1.00
O507   O     0.18513   0.83333   0.54760   0.00000  Uiso   1.00
O508   O     0.31487   0.83333   0.45240   0.00000  Uiso   1.00
O509   O     0.31487   0.83333   0.54760   0.00000  Uiso   1.00
O510   O     0.18513   0.83333   0.45240   0.00000  Uiso   1.00
C511   C     0.16429   0.83382   0.50022   0.00000  Uiso   1.00
C512   C     0.33566   0.83322   0.49987   0.00000  Uiso   1.00
Cu513  Cu    0.25000   0.83333   0.55636   0.00000  Uiso   1.00
Cu514  Cu    0.25000   0.83333   0.44364   0.00000  Uiso   1.00
N515   N     0.25000   0.83333   0.35894   0.00000  Uiso   1.00
N516   N     0.25000   0.83333   0.64106   0.00000  Uiso   1.00
C517   C     0.40649   0.87204   0.47617   0.00000  Uiso   1.00
C518   C     0.09377   0.79788   0.53080   0.00000  Uiso   1.00
C519   C     0.40655   0.79277   0.52508   0.00000  Uiso   1.00
C520   C     0.09278   0.87510   0.47776   0.00000  Uiso   1.00
C521   C     0.38382   0.83228   0.49995   0.00000  Uiso   1.00
C522   C     0.11606   0.83529   0.50153   0.00000  Uiso   1.00
C523   C     0.45313   0.79506   0.53019   0.00000  Uiso   1.00
C524   C     0.04638   0.87757   0.48488   0.00000  Uiso   1.00
C525   C     0.45295   0.87569   0.48228   0.00000  Uiso   1.00
C526   C     0.04695   0.79619   0.53059   0.00000  Uiso   1.00
C527   C     0.47642   0.83585   0.50694   0.00000  Uiso   1.00
C528   C     0.02324   0.83664   0.50783   0.00000  Uiso   1.00
C529   C     0.47719   0.75639   0.55606   0.00000  Uiso   1.00
C530   C     0.02247   0.92036   0.46976   0.00000  Uiso   1.00
C531   C     0.47590   0.91916   0.46729   0.00000  Uiso   1.00
C532   C     0.02363   0.75501   0.55198   0.00000  Uiso   1.00
C533   C     0.24999   0.68847   0.49996   0.00000  Uiso   1.00
C534   C     0.25000   0.97820   0.50004   0.00000  Uiso   1.00
O535   O     0.45640   0.71990   0.58695   0.00000  Uiso   1.00
H536   H     0.43660   0.73644   0.61496   0.00000  Uiso   1.00
O537   O     0.04355   0.96456   0.46007   0.00000  Uiso   1.00
H538   H     0.06610   0.96881   0.49041   0.00000  Uiso   1.00
O539   O     0.45194   0.96117   0.45496   0.00000  Uiso   1.00
H540   H     0.47180   0.98800   0.44231   0.00000  Uiso   1.00
O541   O     0.04680   0.71357   0.56851   0.00000  Uiso   1.00
H542   H     0.02624   0.68588   0.57563   0.00000  Uiso   1.00
O543   O     0.38213   0.90653   0.44678   0.00000  Uiso   1.00
H544   H     0.39749   0.91207   0.40973   0.00000  Uiso   1.00
O545   O     0.11886   0.76312   0.55865   0.00000  Uiso   1.00
H546   H     0.10776   0.76188   0.59863   0.00000  Uiso   1.00
O547   O     0.38445   0.75034   0.54135   0.00000  Uiso   1.00
H548   H     0.35475   0.74869   0.52361   0.00000  Uiso   1.00
O549   O     0.11409   0.91116   0.44616   0.00000  Uiso   1.00
H550   H     0.14569   0.91327   0.45688   0.00000  Uiso   1.00
O551   O     0.75000   0.76280   0.54759   0.00000  Uiso   1.00
O552   O     0.75000   0.90387   0.45241   0.00000  Uiso   1.00
O553   O     0.75000   0.90387   0.54759   0.00000  Uiso   1.00
O554   O     0.75000   0.76280   0.45241   0.00000  Uiso   1.00
C555   C     0.74997   0.74002   0.49997   0.00000  Uiso   1.00
C556   C     0.75001   0.92664   0.50003   0.00000  Uiso   1.00
O557   O     0.68513   0.83333   0.54760   0.00000  Uiso   1.00
O558   O     0.81487   0.83333   0.45240   0.00000  Uiso   1.00
O559   O     0.81487   0.83333   0.54760   0.00000  Uiso   1.00
O560   O     0.68513   0.83333   0.45240   0.00000  Uiso   1.00
C561   C     0.66429   0.83382   0.50022   0.00000  Uiso   1.00
C562   C     0.83566   0.83322   0.49987   0.00000  Uiso   1.00
Cu563  Cu    0.75000   0.83333   0.55636   0.00000  Uiso   1.00
Cu564  Cu    0.75000   0.83333   0.44364   0.00000  Uiso   1.00
N565   N     0.75000   0.83333   0.35894   0.00000  Uiso   1.00
N566   N     0.75000   0.83333   0.64106   0.00000  Uiso   1.00
C567   C     0.90649   0.87204   0.47617   0.00000  Uiso   1.00
C568   C     0.59377   0.79788   0.53080   0.00000  Uiso   1.00
C569   C     0.90655   0.79277   0.52508   0.00000  Uiso   1.00
C570   C     0.59278   0.87510   0.47776   0.00000  Uiso   1.00
C571   C     0.88382   0.83228   0.49995   0.00000  Uiso   1.00
C572   C     0.61606   0.83529   0.50153   0.00000  Uiso   1.00
C573   C     0.95313   0.79506   0.53019   0.00000  Uiso   1.00
C574   C     0.54638   0.87757   0.48488   0.00000  Uiso   1.00
C575   C     0.95295   0.87569   0.48228   0.00000  Uiso   1.00
C576   C     0.54695   0.79619   0.53059   0.00000  Uiso   1.00
C577   C     0.97642   0.83585   0.50694   0.00000  Uiso   1.00
C578   C     0.52324   0.83664   0.50783   0.00000  Uiso   1.00
C579   C     0.97719   0.75639   0.55606   0.00000  Uiso   1.00
C580   C     0.52247   0.92036   0.46976   0.00000  Uiso   1.00
C581   C     0.97590   0.91916   0.46729   0.00000  Uiso   1.00
C582   C     0.52363   0.75501   0.55198   0.00000  Uiso   1.00
C583   C     0.74999   0.68847   0.49996   0.00000  Uiso   1.00
C584   C     0.75000   0.97820   0.50004   0.00000  Uiso   1.00
O585   O     0.95640   0.71990   0.58695   0.00000  Uiso   1.00
H586   H     0.93660   0.73644   0.61496   0.00000  Uiso   1.00
O587   O     0.54355   0.96456   0.46007   0.00000  Uiso   1.00
H588   H     0.56610   0.96881   0.49041   0.00000  Uiso   1.00
O589   O     0.95194   0.96117   0.45496   0.00000  Uiso   1.00
H590   H     0.97180   0.98800   0.44231   0.00000  Uiso   1.00
O591   O     0.54680   0.71357   0.56851   0.00000  Uiso   1.00
H592   H     0.52624   0.68588   0.57563   0.00000  Uiso   1.00
O593   O     0.88213   0.90653   0.44678   0.00000  Uiso   1.00
H594   H     0.89749   0.91207   0.40973   0.00000  Uiso   1.00
O595   O     0.61886   0.76312   0.55865   0.00000  Uiso   1.00
H596   H     0.60776   0.76188   0.59863   0.00000  Uiso   1.00
O597   O     0.88445   0.75034   0.54135   0.00000  Uiso   1.00
H598   H     0.85475   0.74869   0.52361   0.00000  Uiso   1.00
O599   O     0.61409   0.91116   0.44616   0.00000  Uiso   1.00
H600   H     0.64569   0.91327   0.45688   0.00000  Uiso   1.00
O601   O     0.25000   0.09613   0.88092   0.00000  Uiso   1.00
O602   O     0.25000   0.23720   0.78575   0.00000  Uiso   1.00
O603   O     0.25000   0.23720   0.88092   0.00000  Uiso   1.00
O604   O     0.25000   0.09613   0.78575   0.00000  Uiso   1.00
C605   C     0.24997   0.07336   0.83330   0.00000  Uiso   1.00
C606   C     0.25001   0.25998   0.83336   0.00000  Uiso   1.00
O607   O     0.18513   0.16667   0.88093   0.00000  Uiso   1.00
O608   O     0.31487   0.16667   0.78573   0.00000  Uiso   1.00
O609   O     0.31487   0.16667   0.88093   0.00000  Uiso   1.00
O610   O     0.18513   0.16667   0.78573   0.00000  Uiso   1.00
C611   C     0.16429   0.16715   0.83355   0.00000  Uiso   1.00
C612   C     0.33566   0.16655   0.83321   0.00000  Uiso   1.00
Cu613  Cu    0.25000   0.16667   0.88969   0.00000  Uiso   1.00
Cu614  Cu    0.25000   0.16667   0.77697   0.00000  Uiso   1.00
N615   N     0.25000   0.16667   0.69227   0.00000  Uiso   1.00
N616   N     0.25000   0.16667   0.97439   0.00000  Uiso   1.00
C617   C     0.40649   0.20537   0.80950   0.00000  Uiso   1.00
C618   C     0.09377   0.13121   0.86414   0.00000  Uiso   1.00
C619   C     0.40655   0.12610   0.85841   0.00000  Uiso   1.00
C620   C     0.09278   0.20844   0.81109   0.00000  Uiso   1.00
C621   C     0.38382   0.16562   0.83328   0.00000  Uiso   1.00
C622   C     0.11606   0.16862   0.83487   0.00000  Uiso   1.00
C623   C     0.45313   0.12839   0.86352   0.00000  Uiso   1.00
C624   C     0.04638   0.21090   0.81822   0.00000  Uiso   1.00
C625   C     0.45295   0.20902   0.81561   0.00000  Uiso   1.00
C626   C     0.04695   0.12952   0.86392   0.00000  Uiso   1.00
C627   C     0.47642   0.16918   0.84027   0.00000  Uiso   1.00
C628   C     0.02324   0.16997   0.84117   0.00000  Uiso   1.00
C629   C     0.47719   0.08972   0.88940   0.00000  Uiso   1.00
C630   C     0.02247   0.25369   0.80309   0.00000  Uiso   1.00
C631   C     0.47590   0.25249   0.80062   0.00000  Uiso   1.00
C632   C     0.02363   0.08834   0.88531   0.00000  Uiso   1.00
C633   C     0.24999   0.02180   0.83329   0.00000  Uiso   1.00
C634   C     0.25000   0.31153   0.83337   0.00000  Uiso   1.00
O635   O     0.45640   0.05323   0.92028   0.00000  Uiso   1.00
H636   H     0.43660   0.06978   0.94829   0.00000  Uiso   1.00
O637   O     0.04355   0.29790   0.79340   0.00000  Uiso   1.00
H638   H     0.06610   0.30215   0.82374   0.00000  Uiso   1.00
O639   O     0.45194   0.29451   0.78829   0.00000  Uiso   1.00
H640   H     0.47180   0.32133   0.77565   0.00000  Uiso   1.00
O641   O     0.04680   0.04690   0.90184   0.00000  Uiso   1.00
H642   H     0.02624   0.01921   0.90896   0.00000  Uiso   1.00
O643   O     0.38213   0.23987   0.78011   0.00000  Uiso   1.00
H644   H     0.39749   0.24541   0.74307   0.00000  Uiso   1.00
O645   O     0.11886   0.09646   0.89198   0.00000  Uiso   1.00
H646   H     0.10776   0.09521   0.93196   0.00000  Uiso   1.00
O647   O     0.38445   0.08368   0.87468   0.00000  Uiso   1.00
H648   H     0.35475   0.08202   0.85694   0.00000  Uiso   1.00
O649   O     0.11409   0.24450   0.77949   0.00000  Uiso   1.00
H650   H     0.14569   0.24660   0.79021   0.00000  Uiso   1.00
O651   O     0.75000   0.09613   0.88092   0.00000  Uiso   1.00
O652   O     0.75000   0.23720   0.78575   0.00000  Uiso   1.00
O653   O     0.75000   0.23720   0.88092   0.00000  Uiso   1.00
O654   O     0.75000   0.09613   0.78575   0.00000  Uiso   1.00
C655   C     0.74997   0.07336   0.83330   0.00000  Uiso   1.00
C656   C     0.75001   0.25998   0.83336   0.00000  Uiso   1.00
O657   O     0.68513   0.16667   0.88093   0.00000  Uiso   1.00
O658   O     0.81487   0.16667   0.78573   0.00000  Uiso   1.00
O659   O     0.81487   0.16667   0.88093   0.00000  Uiso   1.00
O660   O     0.68513   0.16667   0.78573   0.00000  Uiso   1.00
C661   C     0.66429   0.16715   0.83355   0.00000  Uiso   1.00
C662   C     0.83566   0.16655   0.83321   0.00000  Uiso   1.00
Cu663  Cu    0.75000   0.16667   0.88969   0.00000  Uiso   1.00
Cu664  Cu    0.75000   0.16667   0.77697   0.00000  Uiso   1.00
N665   N     0.75000   0.16667   0.69227   0.00000  Uiso   1.00
N666   N     0.75000   0.16667   0.97439   0.00000  Uiso   1.00
C667   C     0.90649   0.20537   0.80950   0.00000  Uiso   1.00
C668   C     0.59377   0.13121   0.86414   0.00000  Uiso   1.00
C669   C     0.90655   0.12610   0.85841   0.00000  Uiso   1.00
C670   C     0.59278   0.20844   0.81109   0.00000  Uiso   1.00
C671   C     0.88382   0.16562   0.83328   0.00000  Uiso   1.00
C672   C     0.61606   0.16862   0.83487   0.00000  Uiso   1.00
C673   C     0.95313   0.12839   0.86352   0.00000  Uiso   1.00
C674   C     0.54638   0.21090   0.81822   0.00000  Uiso   1.00
C675   C     0.95295   0.20902   0.81561   0.00000  Uiso   1.00
C676   C     0.54695   0.12952   0.86392   0.00000  Uiso   1.00
C677   C     0.97642   0.16918   0.84027   0.00000  Uiso   1.00
C678   C     0.52324   0.16997   0.84117   0.00000  Uiso   1.00
C679   C     0.97719   0.08972   0.88940   0.00000  Uiso   1.00
C680   C     0.52247   0.25369   0.80309   0.00000  Uiso   1.00
C681   C     0.97590   0.25249   0.80062   0.00000  Uiso   1.00
C682   C     0.52363   0.08834   0.88531   0.00000  Uiso   1.00
C683   C     0.74999   0.02180   0.83329   0.00000  Uiso   1.00
C684   C     0.75000   0.31153   0.83337   0.00000  Uiso   1.00
O685   O     0.95640   0.05323   0.92028   0.00000  Uiso   1.00
H686   H     0.93660   0.06978   0.94829   0.00000  Uiso   1.00
O687   O     0.54355   0.29790   0.79340   0.00000  Uiso   1.00
H688   H     0.56610   0.30215   0.82374   0.00000  Uiso   1.00
O689   O     0.95194   0.29451   0.78829   0.00000  Uiso   1.00
H690   H     0.97180   0.32133   0.77565   0.00000  Uiso   1.00
O691   O     0.54680   0.04690   0.90184   0.00000  Uiso   1.00
H692   H     0.52624   0.01921   0.90896   0.00000  Uiso   1.00
O693   O     0.88213   0.23987   0.78011   0.00000  Uiso   1.00
H694   H     0.89749   0.24541   0.74307   0.00000  Uiso   1.00
O695   O     0.61886   0.09646   0.89198   0.00000  Uiso   1.00
H696   H     0.60776   0.09521   0.93196   0.00000  Uiso   1.00
O697   O     0.88445   0.08368   0.87468   0.00000  Uiso   1.00
H698   H     0.85475   0.08202   0.85694   0.00000  Uiso   1.00
O699   O     0.61409   0.24450   0.77949   0.00000  Uiso   1.00
H700   H     0.64569   0.24660   0.79021   0.00000  Uiso   1.00
O701   O     0.25000   0.42946   0.88092   0.00000  Uiso   1.00
O702   O     0.25000   0.57054   0.78575   0.00000  Uiso   1.00
O703   O     0.25000   0.57054   0.88092   0.00000  Uiso   1.00
O704   O     0.25000   0.42946   0.78575   0.00000  Uiso   1.00
C705   C     0.24997   0.40669   0.83330   0.00000  Uiso   1.00
C706   C     0.25001   0.59331   0.83336   0.00000  Uiso   1.00
O707   O     0.18513   0.50000   0.88093   0.00000  Uiso   1.00
O708   O     0.31487   0.50000   0.78573   0.00000  Uiso   1.00
O709   O     0.31487   0.50000   0.88093   0.00000  Uiso   1.00
O710   O     0.18513   0.50000   0.78573   0.00000  Uiso   1.00
C711   C     0.16429   0.50048   0.83355   0.00000  Uiso   1.00
C712   C     0.33566   0.49988   0.83321   0.00000  Uiso   1.00
Cu713  Cu    0.25000   0.50000   0.88969   0.00000  Uiso   1.00
Cu714  Cu    0.25000   0.50000   0.77697   0.00000  Uiso   1.00
N715   N     0.25000   0.50000   0.69227   0.00000  Uiso   1.00
N716   N     0.25000   0.50000   0.97439   0.00000  Uiso   1.00
C717   C     0.40649   0.53871   0.80950   0.00000  Uiso   1.00
C718   C     0.09377   0.46454   0.86414   0.00000  Uiso   1.00
C719   C     0.40655   0.45943   0.85841   0.00000  Uiso   1.00
C720   C     0.09278   0.54177   0.81109   0.00000  Uiso   1.00
C721   C     0.38382   0.49895   0.83328   0.00000  Uiso   1.00
C722   C     0.11606   0.50195   0.83487   0.00000  Uiso   1.00
C723   C     0.45313   0.46172   0.86352   0.00000  Uiso   1.00
C724   C     0.04638   0.54423   0.81822   0.00000  Uiso   1.00
C725   C     0.45295   0.54235   0.81561   0.00000  Uiso   1.00
C726   C     0.04695   0.46286   0.86392   0.00000  Uiso   1.00
C727   C     0.47642   0.50252   0.84027   0.00000  Uiso   1.00
C728   C     0.02324   0.50330   0.84117   0.00000  Uiso   1.00
C729   C     0.47719   0.42305   0.88940   0.00000  Uiso   1.00
C730   C     0.02247   0.58703   0.80309   0.00000  Uiso   1.00
C731   C     0.47590   0.58582   0.80062   0.00000  Uiso   1.00
C732   C     0.02363   0.42168   0.88531   0.00000  Uiso   1.00
C733   C     0.24999   0.35513   0.83329   0.00000  Uiso   1.00
C734   C     0.25000   0.64487   0.83337   0.00000  Uiso   1.00
O735   O     0.45640   0.38657   0.92028   0.00000  Uiso   1.00
H736   H     0.43660   0.40311   0.94829   0.00000  Uiso   1.00
O737   O     0.04355   0.63123   0.79340   0.00000  Uiso   1.00
H738   H     0.06610   0.63548   0.82374   0.00000  Uiso   1.00
O739   O     0.45194   0.62784   0.78829   0.00000  Uiso   1.00
H740   H     0.47180   0.65466   0.77565   0.00000  Uiso   1.00
O741   O     0.04680   0.38024   0.90184   0.00000  Uiso   1.00
H742   H     0.02624   0.35254   0.90896   0.00000  Uiso   1.00
O743   O     0.38213   0.57320   0.78011   0.00000  Uiso   1.00
H744   H     0.39749   0.57874   0.74307   0.00000  Uiso   1.00
O745   O     0.11886   0.42979   0.89198   0.00000  Uiso   1.00
H746   H     0.10776   0.42855   0.93196   0.00000  Uiso   1.00
O747   O     0.38445   0.41701   0.87468   0.00000  Uiso   1.00
H748   H     0.35475   0.41536   0.85694   0.00000  Uiso   1.00
O749   O     0.11409   0.57783   0.77949   0.00000  Uiso   1.00
H750   H     0.14569   0.57994   0.79021   0.00000  Uiso   1.00
O751   O     0.75000   0.42946   0.88092   0.00000  Uiso   1.00
O752   O     0.75000   0.57054   0.78575   0.00000  Uiso   1.00
O753   O     0.75000   0.57054   0.88092   0.00000  Uiso   1.00
O754   O     0.75000   0.42946   0.78575   0.00000  Uiso   1.00
C755   C     0.74997   0.40669   0.83330   0.00000  Uiso   1.00
C756   C     0.75001   0.59331   0.83336   0.00000  Uiso   1.00
O757   O     0.68513   0.50000   0.88093   0.00000  Uiso   1.00
O758   O     0.81487   0.50000   0.78573   0.00000  Uiso   1.00
O759   O     0.81487   0.50000   0.88093   0.00000  Uiso   1.00
O760   O     0.68513   0.50000   0.78573   0.00000  Uiso   1.00
C761   C     0.66429   0.50048   0.83355   0.00000  Uiso   1.00
C762   C     0.83566   0.49988   0.83321   0.00000  Uiso   1.00
Cu763  Cu    0.75000   0.50000   0.88969   0.00000  Uiso   1.00
Cu764  Cu    0.75000   0.50000   0.77697   0.00000  Uiso   1.00
N765   N     0.75000   0.50000   0.69227   0.00000  Uiso   1.00
N766   N     0.75000   0.50000   0.97439   0.00000  Uiso   1.00
C767   C     0.90649   0.53871   0.80950   0.00000  Uiso   1.00
C768   C     0.59377   0.46454   0.86414   0.00000  Uiso   1.00
C769   C     0.90655   0.45943   0.85841   0.00000  Uiso   1.00
C770   C     0.59278   0.54177   0.81109   0.00000  Uiso   1.00
C771   C     0.88382   0.49895   0.83328   0.00000  Uiso   1.00
C772   C     0.61606   0.50195   0.83487   0.00000  Uiso   1.00
C773   C     0.95313   0.46172   0.86352   0.00000  Uiso   1.00
C774   C     0.54638   0.54423   0.81822   0.00000  Uiso   1.00
C775   C     0.95295   0.54235   0.81561   0.00000  Uiso   1.00
C776   C     0.54695   0.46286   0.86392   0.00000  Uiso   1.00
C777   C     0.97642   0.50252   0.84027   0.00000  Uiso   1.00
C778   C     0.52324   0.50330   0.84117   0.00000  Uiso   1.00
C779   C     0.97719   0.42305   0.88940   0.00000  Uiso   1.00
C780   C     0.52247   0.58703   0.80309   0.00000  Uiso   1.00
C781   C     0.97590   0.58582   0.80062   0.00000  Uiso   1.00
C782   C     0.52363   0.42168   0.88531   0.00000  Uiso   1.00
C783   C     0.74999   0.35513   0.83329   0.00000  Uiso   1.00
C784   C     0.75000   0.64487   0.83337   0.00000  Uiso   1.00
O785   O     0.95640   0.38657   0.92028   0.00000  Uiso   1.00
H786   H     0.93660   0.40311   0.94829   0.00000  Uiso   1.00
O787   O     0.54355   0.63123   0.79340   0.00000  Uiso   1.00
H788   H     0.56610   0.63548   0.82374   0.00000  Uiso   1.00
O789   O     0.95194   0.62784   0.78829   0.00000  Uiso   1.00
H790   H     0.97180   0.65466   0.77565   0.00000  Uiso   1.00
O791   O     0.54680   0.38024   0.90184   0.00000  Uiso   1.00
H792   H     0.52624   0.35254   0.90896   0.00000  Uiso   1.00
O793   O     0.88213   0.57320   0.78011   0.00000  Uiso   1.00
H794   H     0.89749   0.57874   0.74307   0.00000  Uiso   1.00
O795   O     0.61886   0.42979   0.89198   0.00000  Uiso   1.00
H796   H     0.60776   0.42855   0.93196   0.00000  Uiso   1.00
O797   O     0.88445   0.41701   0.87468   0.00000  Uiso   1.00
H798   H     0.85475   0.41536   0.85694   0.00000  Uiso   1.00
O799   O     0.61409   0.57783   0.77949   0.00000  Uiso   1.00
H800   H     0.64569   0.57994   0.79021   0.00000  Uiso   1.00
O801   O     0.25000   0.76280   0.88092   0.00000  Uiso   1.00
O802   O     0.25000   0.90387   0.78575   0.00000  Uiso   1.00
O803   O     0.25000   0.90387   0.88092   0.00000  Uiso   1.00
O804   O     0.25000   0.76280   0.78575   0.00000  Uiso   1.00
C805   C     0.24997   0.74002   0.83330   0.00000  Uiso   1.00
C806   C     0.25001   0.92664   0.83336   0.00000  Uiso   1.00
O807   O     0.18513   0.83333   0.88093   0.00000  Uiso   1.00
O808   O     0.31487   0.83333   0.78573   0.00000  Uiso   1.00
O809   O     0.31487   0.83333   0.88093   0.00000  Uiso   1.00
O810   O     0.18513   0.83333   0.78573   0.00000  Uiso   1.00
C811   C     0.16429   0.83382   0.83355   0.00000  Uiso   1.00
C812   C     0.33566   0.83322   0.83321   0.00000  Uiso   1.00
Cu813  Cu    0.25000   0.83333   0.88969   0.00000  Uiso   1.00
Cu814  Cu    0.25000   0.83333   0.77697   0.00000  Uiso   1.00
N815   N     0.25000   0.83333   0.69227   0.00000  Uiso   1.00
N816   N     0.25000   0.83333   0.97439   0.00000  Uiso   1.00
C817   C     0.40649   0.87204   0.80950   0.00000  Uiso   1.00
C818   C     0.09377   0.79788   0.86414   0.00000  Uiso   1.00
C819   C     0.40655   0.79277   0.85841   0.00000  Uiso   1.00
C820   C     0.09278   0.87510   0.81109   0.00000  Uiso   1.00
C821   C     0.38382   0.83228   0.83328   0.00000  Uiso   1.00
C822   C     0.11606   0.83529   0.83487   0.00000  Uiso   1.00
C823   C     0.45313   0.79506   0.86352   0.00000  Uiso   1.00
C824   C     0.04638   0.87757   0.81822   0.00000  Uiso   1.00
C825   C     0.45295   0.87569   0.81561   0.00000  Uiso   1.00
C826   C     0.04695   0.79619   0.86392   0.00000  Uiso   1.00
C827   C     0.47642   0.83585   0.84027   0.00000  Uiso   1.00
C828   C     0.02324   0.83664   0.84117   0.00000  Uiso   1.00
C829   C     0.47719   0.75639   0.88940   0.00000  Uiso   1.00
C830   C     0.02247   0.92036   0.80309   0.00000  Uiso   1.00
C831   C     0.47590   0.91916   0.80062   0.00000  Uiso   1.00
C832   C     0.02363   0.75501   0.88531   0.00000  Uiso   1.00
C833   C     0.24999   0.68847   0.83329   0.00000  Uiso   1.00
C834   C     0.25000   0.97820   0.83337   0.00000  Uiso   1.00
O835   O     0.45640   0.71990   0.92028   0.00000  Uiso   1.00
H836   H     0.43660   0.73644   0.94829   0.00000  Uiso   1.00
O837   O     0.04355   0.96456   0.79340   0.00000  Uiso   1.00
H838   H     0.06610   0.96881   0.82374   0.00000  Uiso   1.00
O839   O     0.45194   0.96117   0.78829   0.00000  Uiso   1.00
H840   H     0.47180   0.98800   0.77565   0.00000  Uiso   1.00
O841   O     0.04680   0.71357   0.90184   0.00000  Uiso   1.00
H842   H     0.02624   0.68588   0.90896   0.00000  Uiso   1.00
O843   O     0.38213   0.90653   0.78011   0.00000  Uiso   1.00
H844   H     0.39749   0.91207   0.74307   0.00000  Uiso   1.00
O845   O     0.11886   0.76312   0.89198   0.00000  Uiso   1.00
H846   H     0.10776   0.76188   0.93196   0.00000  Uiso   1.00
O847   O     0.38445   0.75034   0.87468   0.00000  Uiso   1.00
H848   H     0.35475   0.74869   0.85694   0.00000  Uiso   1.00
O849   O     0.11409   0.91116   0.77949   0.00000  Uiso   1.00
H850   H     0.14569   0.91327   0.79021   0.00000  Uiso   1.00
O851   O     0.75000   0.76280   0.88092   0.00000  Uiso   1.00
O852   O     0.75000   0.90387   0.78575   0.00000  Uiso   1.00
O853   O     0.75000   0.90387   0.88092   0.00000  Uiso   1.00
O854   O     0.75000   0.76280   0.78575   0.00000  Uiso   1.00
C855   C     0.74997   0.74002   0.83330   0.00000  Uiso   1.00
C856   C     0.75001   0.92664   0.83336   0.00000  Uiso   1.00
O857   O     0.68513   0.83333   0.88093   0.00000  Uiso   1.00
O858   O     0.81487   0.83333   0.78573   0.00000  Uiso   1.00
O859   O     0.81487   0.83333   0.88093   0.00000  Uiso   1.00
O860   O     0.68513   0.83333   0.78573   0.00000  Uiso   1.00
C861   C     0.66429   0.83382   0.83355   0.00000  Uiso   1.00
C862   C     0.83566   0.83322   0.83321   0.00000  Uiso   1.00
Cu863  Cu    0.75000   0.83333   0.88969   0.00000  Uiso   1.00
Cu864  Cu    0.75000   0.83333   0.77697   0.00000  Uiso   1.00
N865   N     0.75000   0.83333   0.69227   0.00000  Uiso   1.00
N866   N     0.75000   0.83333   0.97439   0.00000  Uiso   1.00
C867   C     0.90649   0.87204   0.80950   0.00000  Uiso   1.00
C868   C     0.59377   0.79788   0.86414   0.00000  Uiso   1.00
C869   C     0.90655   0.79277   0.85841   0.00000  Uiso   1.00
C870   C     0.59278   0.87510   0.81109   0.00000  Uiso   1.00
C871   C     0.88382   0.83228   0.83328   0.00000  Uiso   1.00
C872   C     0.61606   0.83529   0.83487   0.00000  Uiso   1.00
C873   C     0.95313   0.79506   0.86352   0.00000  Uiso   1.00
C874   C     0.54638   0.87757   0.81822   0.00000  Uiso   1.00
C875   C     0.95295   0.87569   0.81561   0.00000  Uiso   1.00
C876   C     0.54695   0.79619   0.86392   0.00000  Uiso   1.00
C877   C     0.97642   0.83585   0.84027   0.00000  Uiso   1.00
C878   C     0.52324   0.83664   0.84117   0.00000  Uiso   1.00
C879   C     0.97719   0.75639   0.88940   0.00000  Uiso   1.00
C880   C     0.52247   0.92036   0.80309   0.00000  Uiso   1.00
C881   C     0.97590   0.91916   0.80062   0.00000  Uiso   1.00
C882   C     0.52363   0.75501   0.88531   0.00000  Uiso   1.00
C883   C     0.74999   0.68847   0.83329   0.00000  Uiso   1.00
C884   C     0.75000   0.97820   0.83337   0.00000  Uiso   1.00
O885   O     0.95640   0.71990   0.92028   0.00000  Uiso   1.00
H886   H     0.93660   0.73644   0.94829   0.00000  Uiso   1.00
O887   O     0.54355   0.96456   0.79340   0.00000  Uiso   1.00
H888   H     0.56610   0.96881   0.82374   0.00000  Uiso   1.00
O889   O     0.95194   0.96117   0.78829   0.00000  Uiso   1.00
H890   H     0.97180   0.98800   0.77565   0.00000  Uiso   1.00
O891   O     0.54680   0.71357   0.90184   0.00000  Uiso   1.00
H892   H     0.52624   0.68588   0.90896   0.00000  Uiso   1.00
O893   O     0.88213   0.90653   0.78011   0.00000  Uiso   1.00
H894   H     0.89749   0.91207   0.74307   0.00000  Uiso   1.00
O895   O     0.61886   0.76312   0.89198   0.00000  Uiso   1.00
H896   H     0.60776   0.76188   0.93196   0.00000  Uiso   1.00
O897   O     0.88445   0.75034   0.87468   0.00000  Uiso   1.00
H898   H     0.85475   0.74869   0.85694   0.00000  Uiso   1.00
O899   O     0.61409   0.91116   0.77949   0.00000  Uiso   1.00
H900   H     0.64569   0.91327   0.79021   0.00000  Uiso   1.00
loop_
_geom_bond_atom_site_label_1
_geom_bond_atom_site_label_2
_geom_bond_distance
_geom_bond_site_symmetry_2
_ccdc_geom_bond_type
O1     C5      1.274   .     A
O1     Cu13    1.933   .     S
O2     C6      1.274   .     A
O2     Cu14    1.933   .     S
O3     Cu13    1.934   .     S
O3     C6      1.274   .     A
O4     Cu14    1.934   .     S
O4     C5      1.274   .     A
C5     C33     1.405   .     S
C6     C34     1.405   .     S
O7     C11     1.276   .     A
O7     Cu13    1.968   .     S
O8     C12     1.278   .     A
O8     Cu14    1.968   .     S
O9     C12     1.277   .     A
O9     Cu13    1.966   .     S
O10    C11     1.280   .     A
O10    Cu14    1.966   .     S
C11    C22     1.455   .     S
C12    C21     1.453   .     S
Cu13   Cu14    2.635   .     S
Cu13   N16     1.980   .     S
Cu14   N15     1.980   .     S
N15    N616    1.197   1_554 S
N16    N315    1.197   .     S
C17    O43     1.380   .     S
C17    C25     1.412   .     A
C17    C21     1.395   .     A
C18    O45     1.379   .     S
C18    C22     1.398   .     A
C18    C26     1.413   .     A
C19    C23     1.411   .     A
C19    C21     1.408   .     A
C19    O47     1.387   .     S
C20    O49     1.386   .     S
C20    C22     1.410   .     A
C20    C24     1.410   .     A
C23    C27     1.422   .     A
C23    C29     1.418   .     A
C24    C30     1.418   .     A
C24    C28     1.420   .     A
C25    C31     1.415   .     A
C25    C27     1.421   .     A
C26    C32     1.414   .     A
C26    C28     1.420   .     A
C27    C78     1.412   .     S
C28    C77     1.412   1_455 S
C29    O35     1.378   .     S
C29    C82     1.404   .     S
C30    O37     1.380   .     S
C30    C81     1.406   1_455 S
C31    O39     1.386   .     S
C31    C80     1.406   .     S
C32    O41     1.385   .     S
C32    C79     1.404   1_455 S
C33    C234    1.188   1_545 S
C34    C133    1.188   .     S
O35    H36     0.992   .     S
O37    H38     0.992   .     S
O39    H40     0.989   .     S
O41    H42     0.990   .     S
O43    H44     0.992   .     S
O45    H46     0.992   .     S
O47    H48     0.990   .     S
O49    H50     0.988   .     S
O51    C55     1.274   .     A
O51    Cu63    1.933   .     S
O52    C56     1.274   .     A
O52    Cu64    1.933   .     S
O53    Cu63    1.934   .     S
O53    C56     1.274   .     A
O54    Cu64    1.934   .     S
O54    C55     1.274   .     A
C55    C83     1.405   .     S
C56    C84     1.405   .     S
O57    C61     1.276   .     A
O57    Cu63    1.968   .     S
O58    C62     1.278   .     A
O58    Cu64    1.968   .     S
O59    C62     1.277   .     A
O59    Cu63    1.966   .     S
O60    C61     1.280   .     A
O60    Cu64    1.966   .     S
C61    C72     1.455   .     S
C62    C71     1.453   .     S
Cu63   Cu64    2.635   .     S
Cu63   N66     1.980   .     S
Cu64   N65     1.980   .     S
N65    N666    1.197   1_554 S
N66    N365    1.197   .     S
C67    O93     1.380   .     S
C67    C75     1.412   .     A
C67    C71     1.395   .     A
C68    O95     1.379   .     S
C68    C72     1.398   .     A
C68    C76     1.413   .     A
C69    C73     1.411   .     A
C69    C71     1.408   .     A
C69    O97     1.387   .     S
C70    O99     1.386   .     S
C70    C72     1.410   .     A
C70    C74     1.410   .     A
C73    C77     1.422   .     A
C73    C79     1.418   .     A
C74    C80     1.418   .     A
C74    C78     1.420   .     A
C75    C81     1.415   .     A
C75    C77     1.421   .     A
C76    C82     1.414   .     A
C76    C78     1.420   .     A
C77    C28     1.412   1_655 S
C79    O85     1.378   .     S
C79    C32     1.404   1_655 S
C80    O87     1.380   .     S
C81    O89     1.386   .     S
C81    C30     1.406   1_655 S
C82    O91     1.385   .     S
C83    C284    1.188   1_545 S
C84    C183    1.188   .     S
O85    H86     0.992   .     S
O87    H88     0.992   .     S
O89    H90     0.989   .     S
O91    H92     0.990   .     S
O93    H94     0.992   .     S
O95    H96     0.992   .     S
O97    H98     0.990   .     S
O99    H100    0.988   .     S
O101   C105    1.274   .     A
O101   Cu113   1.933   .     S
O102   C106    1.274   .     A
O102   Cu114   1.933   .     S
O103   Cu113   1.934   .     S
O103   C106    1.274   .     A
O104   Cu114   1.934   .     S
O104   C105    1.274   .     A
C105   C133    1.405   .     S
C106   C134    1.405   .     S
O107   C111    1.276   .     A
O107   Cu113   1.968   .     S
O108   C112    1.278   .     A
O108   Cu114   1.968   .     S
O109   C112    1.277   .     A
O109   Cu113   1.966   .     S
O110   C111    1.280   .     A
O110   Cu114   1.966   .     S
C111   C122    1.455   .     S
C112   C121    1.453   .     S
Cu113  Cu114   2.635   .     S
Cu113  N116    1.980   .     S
Cu114  N115    1.980   .     S
N115   N716    1.197   1_554 S
N116   N415    1.197   .     S
C117   O143    1.380   .     S
C117   C125    1.412   .     A
C117   C121    1.395   .     A
C118   O145    1.379   .     S
C118   C122    1.398   .     A
C118   C126    1.413   .     A
C119   C123    1.411   .     A
C119   C121    1.408   .     A
C119   O147    1.387   .     S
C120   O149    1.386   .     S
C120   C122    1.410   .     A
C120   C124    1.410   .     A
C123   C127    1.422   .     A
C123   C129    1.418   .     A
C124   C130    1.418   .     A
C124   C128    1.420   .     A
C125   C131    1.415   .     A
C125   C127    1.421   .     A
C126   C132    1.414   .     A
C126   C128    1.420   .     A
C127   C178    1.412   .     S
C128   C177    1.412   1_455 S
C129   O135    1.378   .     S
C129   C182    1.404   .     S
C130   O137    1.380   .     S
C130   C181    1.406   1_455 S
C131   O139    1.386   .     S
C131   C180    1.406   .     S
C132   O141    1.385   .     S
C132   C179    1.404   1_455 S
C134   C233    1.188   .     S
O135   H136    0.992   .     S
O137   H138    0.992   .     S
O139   H140    0.989   .     S
O141   H142    0.990   .     S
O143   H144    0.992   .     S
O145   H146    0.992   .     S
O147   H148    0.990   .     S
O149   H150    0.988   .     S
O151   C155    1.274   .     A
O151   Cu163   1.933   .     S
O152   C156    1.274   .     A
O152   Cu164   1.933   .     S
O153   Cu163   1.934   .     S
O153   C156    1.274   .     A
O154   Cu164   1.934   .     S
O154   C155    1.274   .     A
C155   C183    1.405   .     S
C156   C184    1.405   .     S
O157   C161    1.276   .     A
O157   Cu163   1.968   .     S
O158   C162    1.278   .     A
O158   Cu164   1.968   .     S
O159   C162    1.277   .     A
O159   Cu163   1.966   .     S
O160   C161    1.280   .     A
O160   Cu164   1.966   .     S
C161   C172    1.455   .     S
C162   C171    1.453   .     S
Cu163  Cu164   2.635   .     S
Cu163  N166    1.980   .     S
Cu164  N165    1.980   .     S
N165   N766    1.197   1_554 S
N166   N465    1.197   .     S
C167   O193    1.380   .     S
C167   C175    1.412   .     A
C167   C171    1.395   .     A
C168   O195    1.379   .     S
C168   C172    1.398   .     A
C168   C176    1.413   .     A
C169   C173    1.411   .     A
C169   C171    1.408   .     A
C169   O197    1.387   .     S
C170   O199    1.386   .     S
C170   C172    1.410   .     A
C170   C174    1.410   .     A
C173   C177    1.422   .     A
C173   C179    1.418   .     A
C174   C180    1.418   .     A
C174   C178    1.420   .     A
C175   C181    1.415   .     A
C175   C177    1.421   .     A
C176   C182    1.414   .     A
C176   C178    1.420   .     A
C177   C128    1.412   1_655 S
C179   O185    1.378   .     S
C179   C132    1.404   1_655 S
C180   O187    1.380   .     S
C181   O189    1.386   .     S
C181   C130    1.406   1_655 S
C182   O191    1.385   .     S
C184   C283    1.188   .     S
O185   H186    0.992   .     S
O187   H188    0.992   .     S
O189   H190    0.989   .     S
O191   H192    0.990   .     S
O193   H194    0.992   .     S
O195   H196    0.992   .     S
O197   H198    0.990   .     S
O199   H200    0.988   .     S
O201   C205    1.274   .     A
O201   Cu213   1.933   .     S
O202   C206    1.274   .     A
O202   Cu214   1.933   .     S
O203   Cu213   1.934   .     S
O203   C206    1.274   .     A
O204   Cu214   1.934   .     S
O204   C205    1.274   .     A
C205   C233    1.405   .     S
C206   C234    1.405   .     S
O207   C211    1.276   .     A
O207   Cu213   1.968   .     S
O208   C212    1.278   .     A
O208   Cu214   1.968   .     S
O209   C212    1.277   .     A
O209   Cu213   1.966   .     S
O210   C211    1.280   .     A
O210   Cu214   1.966   .     S
C211   C222    1.455   .     S
C212   C221    1.453   .     S
Cu213  Cu214   2.635   .     S
Cu213  N216    1.980   .     S
Cu214  N215    1.980   .     S
N215   N816    1.197   1_554 S
N216   N515    1.197   .     S
C217   O243    1.380   .     S
C217   C225    1.412   .     A
C217   C221    1.395   .     A
C218   O245    1.379   .     S
C218   C222    1.398   .     A
C218   C226    1.413   .     A
C219   C223    1.411   .     A
C219   C221    1.408   .     A
C219   O247    1.387   .     S
C220   O249    1.386   .     S
C220   C222    1.410   .     A
C220   C224    1.410   .     A
C223   C227    1.422   .     A
C223   C229    1.418   .     A
C224   C230    1.418   .     A
C224   C228    1.420   .     A
C225   C231    1.415   .     A
C225   C227    1.421   .     A
C226   C232    1.414   .     A
C226   C228    1.420   .     A
C227   C278    1.412   .     S
C228   C277    1.412   1_455 S
C229   O235    1.378   .     S
C229   C282    1.404   .     S
C230   O237    1.380   .     S
C230   C281    1.406   1_455 S
C231   O239    1.386   .     S
C231   C280    1.406   .     S
C232   O241    1.385   .     S
C232   C279    1.404   1_455 S
C234   C33     1.188   1_565 S
O235   H236    0.992   .     S
O237   H238    0.992   .     S
O239   H240    0.989   .     S
O241   H242    0.990   .     S
O243   H244    0.992   .     S
O245   H246    0.992   .     S
O247   H248    0.990   .     S
O249   H250    0.988   .     S
O251   C255    1.274   .     A
O251   Cu263   1.933   .     S
O252   C256    1.274   .     A
O252   Cu264   1.933   .     S
O253   Cu263   1.934   .     S
O253   C256    1.274   .     A
O254   Cu264   1.934   .     S
O254   C255    1.274   .     A
C255   C283    1.405   .     S
C256   C284    1.405   .     S
O257   C261    1.276   .     A
O257   Cu263   1.968   .     S
O258   C262    1.278   .     A
O258   Cu264   1.968   .     S
O259   C262    1.277   .     A
O259   Cu263   1.966   .     S
O260   C261    1.280   .     A
O260   Cu264   1.966   .     S
C261   C272    1.455   .     S
C262   C271    1.453   .     S
Cu263  Cu264   2.635   .     S
Cu263  N266    1.980   .     S
Cu264  N265    1.980   .     S
N265   N866    1.197   1_554 S
N266   N565    1.197   .     S
C267   O293    1.380   .     S
C267   C275    1.412   .     A
C267   C271    1.395   .     A
C268   O295    1.379   .     S
C268   C272    1.398   .     A
C268   C276    1.413   .     A
C269   C273    1.411   .     A
C269   C271    1.408   .     A
C269   O297    1.387   .     S
C270   O299    1.386   .     S
C270   C272    1.410   .     A
C270   C274    1.410   .     A
C273   C277    1.422   .     A
C273   C279    1.418   .     A
C274   C280    1.418   .     A
C274   C278    1.420   .     A
C275   C281    1.415   .     A
C275   C277    1.421   .     A
C276   C282    1.414   .     A
C276   C278    1.420   .     A
C277   C228    1.412   1_655 S
C279   O285    1.378   .     S
C279   C232    1.404   1_655 S
C280   O287    1.380   .     S
C281   O289    1.386   .     S
C281   C230    1.406   1_655 S
C282   O291    1.385   .     S
C284   C83     1.188   1_565 S
O285   H286    0.992   .     S
O287   H288    0.992   .     S
O289   H290    0.989   .     S
O291   H292    0.990   .     S
O293   H294    0.992   .     S
O295   H296    0.992   .     S
O297   H298    0.990   .     S
O299   H300    0.988   .     S
O301   C305    1.274   .     A
O301   Cu313   1.933   .     S
O302   C306    1.274   .     A
O302   Cu314   1.933   .     S
O303   Cu313   1.934   .     S
O303   C306    1.274   .     A
O304   Cu314   1.934   .     S
O304   C305    1.274   .     A
C305   C333    1.405   .     S
C306   C334    1.405   .     S
O307   C311    1.276   .     A
O307   Cu313   1.968   .     S
O308   C312    1.278   .     A
O308   Cu314   1.968   .     S
O309   C312    1.277   .     A
O309   Cu313   1.966   .     S
O310   C311    1.280   .     A
O310   Cu314   1.966   .     S
C311   C322    1.455   .     S
C312   C321    1.453   .     S
Cu313  Cu314   2.635   .     S
Cu313  N316    1.980   .     S
Cu314  N315    1.980   .     S
N316   N615    1.197   .     S
C317   O343    1.380   .     S
C317   C325    1.412   .     A
C317   C321    1.395   .     A
C318   O345    1.379   .     S
C318   C322    1.398   .     A
C318   C326    1.413   .     A
C319   C323    1.411   .     A
C319   C321    1.408   .     A
C319   O347    1.387   .     S
C320   O349    1.386   .     S
C320   C322    1.410   .     A
C320   C324    1.410   .     A
C323   C327    1.422   .     A
C323   C329    1.418   .     A
C324   C330    1.418   .     A
C324   C328    1.420   .     A
C325   C331    1.415   .     A
C325   C327    1.421   .     A
C326   C332    1.414   .     A
C326   C328    1.420   .     A
C327   C378    1.412   .     S
C328   C377    1.412   1_455 S
C329   O335    1.378   .     S
C329   C382    1.404   .     S
C330   O337    1.380   .     S
C330   C381    1.406   1_455 S
C331   O339    1.386   .     S
C331   C380    1.406   .     S
C332   O341    1.385   .     S
C332   C379    1.404   1_455 S
C333   C534    1.188   1_545 S
C334   C433    1.188   .     S
O335   H336    0.992   .     S
O337   H338    0.992   .     S
O339   H340    0.989   .     S
O341   H342    0.990   .     S
O343   H344    0.992   .     S
O345   H346    0.992   .     S
O347   H348    0.990   .     S
O349   H350    0.988   .     S
O351   C355    1.274   .     A
O351   Cu363   1.933   .     S
O352   C356    1.274   .     A
O352   Cu364   1.933   .     S
O353   Cu363   1.934   .     S
O353   C356    1.274   .     A
O354   Cu364   1.934   .     S
O354   C355    1.274   .     A
C355   C383    1.405   .     S
C356   C384    1.405   .     S
O357   C361    1.276   .     A
O357   Cu363   1.968   .     S
O358   C362    1.278   .     A
O358   Cu364   1.968   .     S
O359   C362    1.277   .     A
O359   Cu363   1.966   .     S
O360   C361    1.280   .     A
O360   Cu364   1.966   .     S
C361   C372    1.455   .     S
C362   C371    1.453   .     S
Cu363  Cu364   2.635   .     S
Cu363  N366    1.980   .     S
Cu364  N365    1.980   .     S
N366   N665    1.197   .     S
C367   O393    1.380   .     S
C367   C375    1.412   .     A
C367   C371    1.395   .     A
C368   O395    1.379   .     S
C368   C372    1.398   .     A
C368   C376    1.413   .     A
C369   C373    1.411   .     A
C369   C371    1.408   .     A
C369   O397    1.387   .     S
C370   O399    1.386   .     S
C370   C372    1.410   .     A
C370   C374    1.410   .     A
C373   C377    1.422   .     A
C373   C379    1.418   .     A
C374   C380    1.418   .     A
C374   C378    1.420   .     A
C375   C381    1.415   .     A
C375   C377    1.421   .     A
C376   C382    1.414   .     A
C376   C378    1.420   .     A
C377   C328    1.412   1_655 S
C379   O385    1.378   .     S
C379   C332    1.404   1_655 S
C380   O387    1.380   .     S
C381   O389    1.386   .     S
C381   C330    1.406   1_655 S
C382   O391    1.385   .     S
C383   C584    1.188   1_545 S
C384   C483    1.188   .     S
O385   H386    0.992   .     S
O387   H388    0.992   .     S
O389   H390    0.989   .     S
O391   H392    0.990   .     S
O393   H394    0.992   .     S
O395   H396    0.992   .     S
O397   H398    0.990   .     S
O399   H400    0.988   .     S
O401   C405    1.274   .     A
O401   Cu413   1.933   .     S
O402   C406    1.274   .     A
O402   Cu414   1.933   .     S
O403   Cu413   1.934   .     S
O403   C406    1.274   .     A
O404   Cu414   1.934   .     S
O404   C405    1.274   .     A
C405   C433    1.405   .     S
C406   C434    1.405   .     S
O407   C411    1.276   .     A
O407   Cu413   1.968   .     S
O408   C412    1.278   .     A
O408   Cu414   1.968   .     S
O409   C412    1.277   .     A
O409   Cu413   1.966   .     S
O410   C411    1.280   .     A
O410   Cu414   1.966   .     S
C411   C422    1.455   .     S
C412   C421    1.453   .     S
Cu413  Cu414   2.635   .     S
Cu413  N416    1.980   .     S
Cu414  N415    1.980   .     S
N416   N715    1.197   .     S
C417   O443    1.380   .     S
C417   C425    1.412   .     A
C417   C421    1.395   .     A
C418   O445    1.379   .     S
C418   C422    1.398   .     A
C418   C426    1.413   .     A
C419   C423    1.411   .     A
C419   C421    1.408   .     A
C419   O447    1.387   .     S
C420   O449    1.386   .     S
C420   C422    1.410   .     A
C420   C424    1.410   .     A
C423   C427    1.422   .     A
C423   C429    1.418   .     A
C424   C430    1.418   .     A
C424   C428    1.420   .     A
C425   C431    1.415   .     A
C425   C427    1.421   .     A
C426   C432    1.414   .     A
C426   C428    1.420   .     A
C427   C478    1.412   .     S
C428   C477    1.412   1_455 S
C429   O435    1.378   .     S
C429   C482    1.404   .     S
C430   O437    1.380   .     S
C430   C481    1.406   1_455 S
C431   O439    1.386   .     S
C431   C480    1.406   .     S
C432   O441    1.385   .     S
C432   C479    1.404   1_455 S
C434   C533    1.188   .     S
O435   H436    0.992   .     S
O437   H438    0.992   .     S
O439   H440    0.989   .     S
O441   H442    0.990   .     S
O443   H444    0.992   .     S
O445   H446    0.992   .     S
O447   H448    0.990   .     S
O449   H450    0.988   .     S
O451   C455    1.274   .     A
O451   Cu463   1.933   .     S
O452   C456    1.274   .     A
O452   Cu464   1.933   .     S
O453   Cu463   1.934   .     S
O453   C456    1.274   .     A
O454   Cu464   1.934   .     S
O454   C455    1.274   .     A
C455   C483    1.405   .     S
C456   C484    1.405   .     S
O457   C461    1.276   .     A
O457   Cu463   1.968   .     S
O458   C462    1.278   .     A
O458   Cu464   1.968   .     S
O459   C462    1.277   .     A
O459   Cu463   1.966   .     S
O460   C461    1.280   .     A
O460   Cu464   1.966   .     S
C461   C472    1.455   .     S
C462   C471    1.453   .     S
Cu463  Cu464   2.635   .     S
Cu463  N466    1.980   .     S
Cu464  N465    1.980   .     S
N466   N765    1.197   .     S
C467   O493    1.380   .     S
C467   C475    1.412   .     A
C467   C471    1.395   .     A
C468   O495    1.379   .     S
C468   C472    1.398   .     A
C468   C476    1.413   .     A
C469   C473    1.411   .     A
C469   C471    1.408   .     A
C469   O497    1.387   .     S
C470   O499    1.386   .     S
C470   C472    1.410   .     A
C470   C474    1.410   .     A
C473   C477    1.422   .     A
C473   C479    1.418   .     A
C474   C480    1.418   .     A
C474   C478    1.420   .     A
C475   C481    1.415   .     A
C475   C477    1.421   .     A
C476   C482    1.414   .     A
C476   C478    1.420   .     A
C477   C428    1.412   1_655 S
C479   O485    1.378   .     S
C479   C432    1.404   1_655 S
C480   O487    1.380   .     S
C481   O489    1.386   .     S
C481   C430    1.406   1_655 S
C482   O491    1.385   .     S
C484   C583    1.188   .     S
O485   H486    0.992   .     S
O487   H488    0.992   .     S
O489   H490    0.989   .     S
O491   H492    0.990   .     S
O493   H494    0.992   .     S
O495   H496    0.992   .     S
O497   H498    0.990   .     S
O499   H500    0.988   .     S
O501   C505    1.274   .     A
O501   Cu513   1.933   .     S
O502   C506    1.274   .     A
O502   Cu514   1.933   .     S
O503   Cu513   1.934   .     S
O503   C506    1.274   .     A
O504   Cu514   1.934   .     S
O504   C505    1.274   .     A
C505   C533    1.405   .     S
C506   C534    1.405   .     S
O507   C511    1.276   .     A
O507   Cu513   1.968   .     S
O508   C512    1.278   .     A
O508   Cu514   1.968   .     S
O509   C512    1.277   .     A
O509   Cu513   1.966   .     S
O510   C511    1.280   .     A
O510   Cu514   1.966   .     S
C511   C522    1.455   .     S
C512   C521    1.453   .     S
Cu513  Cu514   2.635   .     S
Cu513  N516    1.980   .     S
Cu514  N515    1.980   .     S
N516   N815    1.197   .     S
C517   O543    1.380   .     S
C517   C525    1.412   .     A
C517   C521    1.395   .     A
C518   O545    1.379   .     S
C518   C522    1.398   .     A
C518   C526    1.413   .     A
C519   C523    1.411   .     A
C519   C521    1.408   .     A
C519   O547    1.387   .     S
C520   O549    1.386   .     S
C520   C522    1.410   .     A
C520   C524    1.410   .     A
C523   C527    1.422   .     A
C523   C529    1.418   .     A
C524   C530    1.418   .     A
C524   C528    1.420   .     A
C525   C531    1.415   .     A
C525   C527    1.421   .     A
C526   C532    1.414   .     A
C526   C528    1.420   .     A
C527   C578    1.412   .     S
C528   C577    1.412   1_455 S
C529   O535    1.378   .     S
C529   C582    1.404   .     S
C530   O537    1.380   .     S
C530   C581    1.406   1_455 S
C531   O539    1.386   .     S
C531   C580    1.406   .     S
C532   O541    1.385   .     S
C532   C579    1.404   1_455 S
C534   C333    1.188   1_565 S
O535   H536    0.992   .     S
O537   H538    0.992   .     S
O539   H540    0.989   .     S
O541   H542    0.990   .     S
O543   H544    0.992   .     S
O545   H546    0.992   .     S
O547   H548    0.990   .     S
O549   H550    0.988   .     S
O551   C555    1.274   .     A
O551   Cu563   1.933   .     S
O552   C556    1.274   .     A
O552   Cu564   1.933   .     S
O553   Cu563   1.934   .     S
O553   C556    1.274   .     A
O554   Cu564   1.934   .     S
O554   C555    1.274   .     A
C555   C583    1.405   .     S
C556   C584    1.405   .     S
O557   C561    1.276   .     A
O557   Cu563   1.968   .     S
O558   C562    1.278   .     A
O558   Cu564   1.968   .     S
O559   C562    1.277   .     A
O559   Cu563   1.966   .     S
O560   C561    1.280   .     A
O560   Cu564   1.966   .     S
C561   C572    1.455   .     S
C562   C571    1.453   .     S
Cu563  Cu564   2.635   .     S
Cu563  N566    1.980   .     S
Cu564  N565    1.980   .     S
N566   N865    1.197   .     S
C567   O593    1.380   .     S
C567   C575    1.412   .     A
C567   C571    1.395   .     A
C568   O595    1.379   .     S
C568   C572    1.398   .     A
C568   C576    1.413   .     A
C569   C573    1.411   .     A
C569   C571    1.408   .     A
C569   O597    1.387   .     S
C570   O599    1.386   .     S
C570   C572    1.410   .     A
C570   C574    1.410   .     A
C573   C577    1.422   .     A
C573   C579    1.418   .     A
C574   C580    1.418   .     A
C574   C578    1.420   .     A
C575   C581    1.415   .     A
C575   C577    1.421   .     A
C576   C582    1.414   .     A
C576   C578    1.420   .     A
C577   C528    1.412   1_655 S
C579   O585    1.378   .     S
C579   C532    1.404   1_655 S
C580   O587    1.380   .     S
C581   O589    1.386   .     S
C581   C530    1.406   1_655 S
C582   O591    1.385   .     S
C584   C383    1.188   1_565 S
O585   H586    0.992   .     S
O587   H588    0.992   .     S
O589   H590    0.989   .     S
O591   H592    0.990   .     S
O593   H594    0.992   .     S
O595   H596    0.992   .     S
O597   H598    0.990   .     S
O599   H600    0.988   .     S
O601   C605    1.274   .     A
O601   Cu613   1.933   .     S
O602   C606    1.274   .     A
O602   Cu614   1.933   .     S
O603   Cu613   1.934   .     S
O603   C606    1.274   .     A
O604   Cu614   1.934   .     S
O604   C605    1.274   .     A
C605   C633    1.405   .     S
C606   C634    1.405   .     S
O607   C611    1.276   .     A
O607   Cu613   1.968   .     S
O608   C612    1.278   .     A
O608   Cu614   1.968   .     S
O609   C612    1.277   .     A
O609   Cu613   1.966   .     S
O610   C611    1.280   .     A
O610   Cu614   1.966   .     S
C611   C622    1.455   .     S
C612   C621    1.453   .     S
Cu613  Cu614   2.635   .     S
Cu613  N616    1.980   .     S
Cu614  N615    1.980   .     S
N616   N15     1.197   1_556 S
C617   O643    1.380   .     S
C617   C625    1.412   .     A
C617   C621    1.395   .     A
C618   O645    1.379   .     S
C618   C622    1.398   .     A
C618   C626    1.413   .     A
C619   C623    1.411   .     A
C619   C621    1.408   .     A
C619   O647    1.387   .     S
C620   O649    1.386   .     S
C620   C622    1.410   .     A
C620   C624    1.410   .     A
C623   C627    1.422   .     A
C623   C629    1.418   .     A
C624   C630    1.418   .     A
C624   C628    1.420   .     A
C625   C631    1.415   .     A
C625   C627    1.421   .     A
C626   C632    1.414   .     A
C626   C628    1.420   .     A
C627   C678    1.412   .     S
C628   C677    1.412   1_455 S
C629   O635    1.378   .     S
C629   C682    1.404   .     S
C630   O637    1.380   .     S
C630   C681    1.406   1_455 S
C631   O639    1.386   .     S
C631   C680    1.406   .     S
C632   O641    1.385   .     S
C632   C679    1.404   1_455 S
C633   C834    1.188   1_545 S
C634   C733    1.188   .     S
O635   H636    0.992   .     S
O637   H638    0.992   .     S
O639   H640    0.989   .     S
O641   H642    0.990   .     S
O643   H644    0.992   .     S
O645   H646    0.992   .     S
O647   H648    0.990   .     S
O649   H650    0.988   .     S
O651   C655    1.274   .     A
O651   Cu663   1.933   .     S
O652   C656    1.274   .     A
O652   Cu664   1.933   .     S
O653   Cu663   1.934   .     S
O653   C656    1.274   .     A
O654   Cu664   1.934   .     S
O654   C655    1.274   .     A
C655   C683    1.405   .     S
C656   C684    1.405   .     S
O657   C661    1.276   .     A
O657   Cu663   1.968   .     S
O658   C662    1.278   .     A
O658   Cu664   1.968   .     S
O659   C662    1.277   .     A
O659   Cu663   1.966   .     S
O660   C661    1.280   .     A
O660   Cu664   1.966   .     S
C661   C672    1.455   .     S
C662   C671    1.453   .     S
Cu663  Cu664   2.635   .     S
Cu663  N666    1.980   .     S
Cu664  N665    1.980   .     S
N666   N65     1.197   1_556 S
C667   O693    1.380   .     S
C667   C675    1.412   .     A
C667   C671    1.395   .     A
C668   O695    1.379   .     S
C668   C672    1.398   .     A
C668   C676    1.413   .     A
C669   C673    1.411   .     A
C669   C671    1.408   .     A
C669   O697    1.387   .     S
C670   O699    1.386   .     S
C670   C672    1.410   .     A
C670   C674    1.410   .     A
C673   C677    1.422   .     A
C673   C679    1.418   .     A
C674   C680    1.418   .     A
C674   C678    1.420   .     A
C675   C681    1.415   .     A
C675   C677    1.421   .     A
C676   C682    1.414   .     A
C676   C678    1.420   .     A
C677   C628    1.412   1_655 S
C679   O685    1.378   .     S
C679   C632    1.404   1_655 S
C680   O687    1.380   .     S
C681   O689    1.386   .     S
C681   C630    1.406   1_655 S
C682   O691    1.385   .     S
C683   C884    1.188   1_545 S
C684   C783    1.188   .     S
O685   H686    0.992   .     S
O687   H688    0.992   .     S
O689   H690    0.989   .     S
O691   H692    0.990   .     S
O693   H694    0.992   .     S
O695   H696    0.992   .     S
O697   H698    0.990   .     S
O699   H700    0.988   .     S
O701   C705    1.274   .     A
O701   Cu713   1.933   .     S
O702   C706    1.274   .     A
O702   Cu714   1.933   .     S
O703   Cu713   1.934   .     S
O703   C706    1.274   .     A
O704   Cu714   1.934   .     S
O704   C705    1.274   .     A
C705   C733    1.405   .     S
C706   C734    1.405   .     S
O707   C711    1.276   .     A
O707   Cu713   1.968   .     S
O708   C712    1.278   .     A
O708   Cu714   1.968   .     S
O709   C712    1.277   .     A
O709   Cu713   1.966   .     S
O710   C711    1.280   .     A
O710   Cu714   1.966   .     S
C711   C722    1.455   .     S
C712   C721    1.453   .     S
Cu713  Cu714   2.635   .     S
Cu713  N716    1.980   .     S
Cu714  N715    1.980   .     S
N716   N115    1.197   1_556 S
C717   O743    1.380   .     S
C717   C725    1.412   .     A
C717   C721    1.395   .     A
C718   O745    1.379   .     S
C718   C722    1.398   .     A
C718   C726    1.413   .     A
C719   C723    1.411   .     A
C719   C721    1.408   .     A
C719   O747    1.387   .     S
C720   O749    1.386   .     S
C720   C722    1.410   .     A
C720   C724    1.410   .     A
C723   C727    1.422   .     A
C723   C729    1.418   .     A
C724   C730    1.418   .     A
C724   C728    1.420   .     A
C725   C731    1.415   .     A
C725   C727    1.421   .     A
C726   C732    1.414   .     A
C726   C728    1.420   .     A
C727   C778    1.412   .     S
C728   C777    1.412   1_455 S
C729   O735    1.378   .     S
C729   C782    1.404   .     S
C730   O737    1.380   .     S
C730   C781    1.406   1_455 S
C731   O739    1.386   .     S
C731   C780    1.406   .     S
C732   O741    1.385   .     S
C732   C779    1.404   1_455 S
C734   C833    1.188   .     S
O735   H736    0.992   .     S
O737   H738    0.992   .     S
O739   H740    0.989   .     S
O741   H742    0.990   .     S
O743   H744    0.992   .     S
O745   H746    0.992   .     S
O747   H748    0.990   .     S
O749   H750    0.988   .     S
O751   C755    1.274   .     A
O751   Cu763   1.933   .     S
O752   C756    1.274   .     A
O752   Cu764   1.933   .     S
O753   Cu763   1.934   .     S
O753   C756    1.274   .     A
O754   Cu764   1.934   .     S
O754   C755    1.274   .     A
C755   C783    1.405   .     S
C756   C784    1.405   .     S
O757   C761    1.276   .     A
O757   Cu763   1.968   .     S
O758   C762    1.278   .     A
O758   Cu764   1.968   .     S
O759   C762    1.277   .     A
O759   Cu763   1.966   .     S
O760   C761    1.280   .     A
O760   Cu764   1.966   .     S
C761   C772    1.455   .     S
C762   C771    1.453   .     S
Cu763  Cu764   2.635   .     S
Cu763  N766    1.980   .     S
Cu764  N765    1.980   .     S
N766   N165    1.197   1_556 S
C767   O793    1.380   .     S
C767   C775    1.412   .     A
C767   C771    1.395   .     A
C768   O795    1.379   .     S
C768   C772    1.398   .     A
C768   C776    1.413   .     A
C769   C773    1.411   .     A
C769   C771    1.408   .     A
C769   O797    1.387   .     S
C770   O799    1.386   .     S
C770   C772    1.410   .     A
C770   C774    1.410   .     A
C773   C777    1.422   .     A
C773   C779    1.418   .     A
C774   C780    1.418   .     A
C774   C778    1.420   .     A
C775   C781    1.415   .     A
C775   C777    1.421   .     A
C776   C782    1.414   .     A
C776   C778    1.420   .     A
C777   C728    1.412   1_655 S
C779   O785    1.378   .     S
C779   C732    1.404   1_655 S
C780   O787    1.380   .     S
C781   O789    1.386   .     S
C781   C730    1.406   1_655 S
C782   O791    1.385   .     S
C784   C883    1.188   .     S
O785   H786    0.992   .     S
O787   H788    0.992   .     S
O789   H790    0.989   .     S
O791   H792    0.990   .     S
O793   H794    0.992   .     S
O795   H796    0.992   .     S
O797   H798    0.990   .     S
O799   H800    0.988   .     S
O801   C805    1.274   .     A
O801   Cu813   1.933   .     S
O802   C806    1.274   .     A
O802   Cu814   1.933   .     S
O803   Cu813   1.934   .     S
O803   C806    1.274   .     A
O804   Cu814   1.934   .     S
O804   C805    1.274   .     A
C805   C833    1.405   .     S
C806   C834    1.405   .     S
O807   C811    1.276   .     A
O807   Cu813   1.968   .     S
O808   C812    1.278   .     A
O808   Cu814   1.968   .     S
O809   C812    1.277   .     A
O809   Cu813   1.966   .     S
O810   C811    1.280   .     A
O810   Cu814   1.966   .     S
C811   C822    1.455   .     S
C812   C821    1.453   .     S
Cu813  Cu814   2.635   .     S
Cu813  N816    1.980   .     S
Cu814  N815    1.980   .     S
N816   N215    1.197   1_556 S
C817   O843    1.380   .     S
C817   C825    1.412   .     A
C817   C821    1.395   .     A
C818   O845    1.379   .     S
C818   C822    1.398   .     A
C818   C826    1.413   .     A
C819   C823    1.411   .     A
C819   C821    1.408   .     A
C819   O847    1.387   .     S
C820   O849    1.386   .     S
C820   C822    1.410   .     A
C820   C824    1.410   .     A
C823   C827    1.422   .     A
C823   C829    1.418   .     A
C824   C830    1.418   .     A
C824   C828    1.420   .     A
C825   C831    1.415   .     A
C825   C827    1.421   .     A
C826   C832    1.414   .     A
C826   C828    1.420   .     A
C827   C878    1.412   .     S
C828   C877    1.412   1_455 S
C829   O835    1.378   .     S
C829   C882    1.404   .     S
C830   O837    1.380   .     S
C830   C881    1.406   1_455 S
C831   O839    1.386   .     S
C831   C880    1.406   .     S
C832   O841    1.385   .     S
C832   C879    1.404   1_455 S
C834   C633    1.188   1_565 S
O835   H836    0.992   .     S
O837   H838    0.992   .     S
O839   H840    0.989   .     S
O841   H842    0.990   .     S
O843   H844    0.992   .     S
O845   H846    0.992   .     S
O847   H848    0.990   .     S
O849   H850    0.988   .     S
O851   C855    1.274   .     A
O851   Cu863   1.933   .     S
O852   C856    1.274   .     A
O852   Cu864   1.933   .     S
O853   Cu863   1.934   .     S
O853   C856    1.274   .     A
O854   Cu864   1.934   .     S
O854   C855    1.274   .     A
C855   C883    1.405   .     S
C856   C884    1.405   .     S
O857   C861    1.276   .     A
O857   Cu863   1.968   .     S
O858   C862    1.278   .     A
O858   Cu864   1.968   .     S
O859   C862    1.277   .     A
O859   Cu863   1.966   .     S
O860   C861    1.280   .     A
O860   Cu864   1.966   .     S
C861   C872    1.455   .     S
C862   C871    1.453   .     S
Cu863  Cu864   2.635   .     S
Cu863  N866    1.980   .     S
Cu864  N865    1.980   .     S
N866   N265    1.197   1_556 S
C867   O893    1.380   .     S
C867   C875    1.412   .     A
C867   C871    1.395   .     A
C868   O895    1.379   .     S
C868   C872    1.398   .     A
C868   C876    1.413   .     A
C869   C873    1.411   .     A
C869   C871    1.408   .     A
C869   O897    1.387   .     S
C870   O899    1.386   .     S
C870   C872    1.410   .     A
C870   C874    1.410   .     A
C873   C877    1.422   .     A
C873   C879    1.418   .     A
C874   C880    1.418   .     A
C874   C878    1.420   .     A
C875   C881    1.415   .     A
C875   C877    1.421   .     A
C876   C882    1.414   .     A
C876   C878    1.420   .     A
C877   C828    1.412   1_655 S
C879   O885    1.378   .     S
C879   C832    1.404   1_655 S
C880   O887    1.380   .     S
C881   O889    1.386   .     S
C881   C830    1.406   1_655 S
C882   O891    1.385   .     S
C884   C683    1.188   1_565 S
O885   H886    0.992   .     S
O887   H888    0.992   .     S
O889   H890    0.989   .     S
O891   H892    0.990   .     S
O893   H894    0.992   .     S
O895   H896    0.992   .     S
O897   H898    0.990   .     S
O899   H900    0.988   .     S
