data_str_m2_o1_o2_pcu_sym.34
_audit_creation_date              2020-01-03
_audit_creation_method            'Materials Studio'
_symmetry_space_group_name_H-M    'P1'
_symmetry_Int_Tables_number       1
_symmetry_cell_setting            triclinic
loop_
_symmetry_equiv_pos_as_xyz
  x,y,z
_cell_length_a                    32.5656
_cell_length_b                    28.9810
_cell_length_c                    30.3463
_cell_angle_alpha                 89.9997
_cell_angle_beta                  94.3852
_cell_angle_gamma                 90.0000
loop_
_atom_site_label
_atom_site_type_symbol
_atom_site_fract_x
_atom_site_fract_y
_atom_site_fract_z
_atom_site_U_iso_or_equiv
_atom_site_adp_type
_atom_site_occupancy
C1     C     0.08754   0.16681   0.25088   0.00000  Uiso   1.00
C2     C     0.31200   0.20937   0.24947   0.00000  Uiso   1.00
C3     C     0.31211   0.12592   0.24751   0.00000  Uiso   1.00
C4     C     0.02133   0.20937   0.25053   0.00000  Uiso   1.00
C5     C     0.15117   0.19872   0.04457   0.00000  Uiso   1.00
C6     C     0.14784   0.12476   0.45033   0.00000  Uiso   1.00
C7     C     0.18216   0.19872   0.45543   0.00000  Uiso   1.00
C8     C     0.18550   0.12476   0.04967   0.00000  Uiso   1.00
C9     C     0.15475   0.20272   0.09021   0.00000  Uiso   1.00
C10    C     0.14569   0.12740   0.40382   0.00000  Uiso   1.00
C11    C     0.17858   0.20272   0.40979   0.00000  Uiso   1.00
C12    C     0.24579   0.16681   0.24912   0.00000  Uiso   1.00
C13    C     0.18764   0.12740   0.09618   0.00000  Uiso   1.00
C14    C     0.17020   0.16573   0.11659   0.00000  Uiso   1.00
C15    C     0.16313   0.16573   0.38341   0.00000  Uiso   1.00
C16    C     0.16647   0.15998   0.02409   0.00000  Uiso   1.00
C17    C     0.16686   0.15998   0.47591   0.00000  Uiso   1.00
C18    C     0.29044   0.16742   0.24825   0.00000  Uiso   1.00
C19    C     0.04289   0.16742   0.25175   0.00000  Uiso   1.00
C20    C     0.07283   0.04665   0.19294   0.00000  Uiso   1.00
C21    C     0.24328   0.27623   0.32565   0.00000  Uiso   1.00
C22    C     0.26051   0.04665   0.30706   0.00000  Uiso   1.00
C23    C     0.16808   0.16660   0.16511   0.00000  Uiso   1.00
C24    C     0.09005   0.27623   0.17435   0.00000  Uiso   1.00
C25    C     0.17917   0.27266   0.11141   0.00000  Uiso   1.00
C26    C     0.13241   0.05173   0.38564   0.00000  Uiso   1.00
C27    C     0.15416   0.27266   0.38858   0.00000  Uiso   1.00
C28    C     0.20092   0.05173   0.11437   0.00000  Uiso   1.00
C29    C     0.16525   0.16660   0.33489   0.00000  Uiso   1.00
C30    C     0.13766   0.02513   0.22432   0.00000  Uiso   1.00
C31    C     0.19823   0.30884   0.27192   0.00000  Uiso   1.00
C32    C     0.19567   0.02513   0.27568   0.00000  Uiso   1.00
C33    C     0.13510   0.30884   0.22808   0.00000  Uiso   1.00
C34    C     0.02123   0.12592   0.25249   0.00000  Uiso   1.00
Cu35   Cu    0.16667   0.21355   0.25000   0.00000  Uiso   1.00
Cu36   Cu    0.16667   0.11978   0.25000   0.00000  Uiso   1.00
H37    H     0.06029   0.08193   0.18816   0.00000  Uiso   1.00
H38    H     0.09853   0.23985   0.16925   0.00000  Uiso   1.00
H39    H     0.10515   0.29985   0.15170   0.00000  Uiso   1.00
H40    H     0.05642   0.27817   0.16548   0.00000  Uiso   1.00
H41    H     0.13793   0.22709   0.02500   0.00000  Uiso   1.00
H42    H     0.13290   0.09687   0.46662   0.00000  Uiso   1.00
H43    H     0.19540   0.22709   0.47500   0.00000  Uiso   1.00
H44    H     0.20043   0.09687   0.03338   0.00000  Uiso   1.00
H45    H     0.17459   0.29936   0.13654   0.00000  Uiso   1.00
H46    H     0.18254   0.28966   0.07906   0.00000  Uiso   1.00
H47    H     0.20822   0.25432   0.12270   0.00000  Uiso   1.00
H48    H     0.06305   0.03222   0.22449   0.00000  Uiso   1.00
H49    H     0.16641   0.04708   0.38606   0.00000  Uiso   1.00
H50    H     0.11796   0.03076   0.35809   0.00000  Uiso   1.00
H51    H     0.12059   0.03863   0.41663   0.00000  Uiso   1.00
H52    H     0.15875   0.29936   0.36346   0.00000  Uiso   1.00
H53    H     0.15078   0.28965   0.42093   0.00000  Uiso   1.00
H54    H     0.12511   0.25432   0.37729   0.00000  Uiso   1.00
H55    H     0.16692   0.04708   0.11395   0.00000  Uiso   1.00
H56    H     0.21537   0.03076   0.14191   0.00000  Uiso   1.00
H57    H     0.21274   0.03863   0.08337   0.00000  Uiso   1.00
H58    H     0.03692   0.09338   0.25667   0.00000  Uiso   1.00
H59    H     0.05861   0.02673   0.16466   0.00000  Uiso   1.00
H60    H     0.29610   0.24213   0.24921   0.00000  Uiso   1.00
H61    H     0.29642   0.09338   0.24333   0.00000  Uiso   1.00
H62    H     0.03723   0.24213   0.25079   0.00000  Uiso   1.00
H63    H     0.23481   0.23985   0.33075   0.00000  Uiso   1.00
H64    H     0.22818   0.29985   0.34830   0.00000  Uiso   1.00
H65    H     0.27691   0.27817   0.33452   0.00000  Uiso   1.00
H66    H     0.27304   0.08194   0.31185   0.00000  Uiso   1.00
H67    H     0.27029   0.03222   0.27551   0.00000  Uiso   1.00
H68    H     0.27472   0.02673   0.33534   0.00000  Uiso   1.00
N69    N     0.16667   0.28402   0.25000   0.00000  Uiso   1.00
N70    N     0.16667   0.04931   0.25000   0.00000  Uiso   1.00
O71    O     0.10655   0.20625   0.24999   0.00000  Uiso   1.00
O72    O     0.23606   0.28778   0.28073   0.00000  Uiso   1.00
O73    O     0.21752   0.04890   0.30959   0.00000  Uiso   1.00
O74    O     0.09727   0.28779   0.21927   0.00000  Uiso   1.00
O75    O     0.14419   0.24383   0.10866   0.00000  Uiso   1.00
O76    O     0.12061   0.09783   0.37794   0.00000  Uiso   1.00
O77    O     0.18914   0.24383   0.39134   0.00000  Uiso   1.00
O78    O     0.21273   0.09783   0.12206   0.00000  Uiso   1.00
O79    O     0.22679   0.12709   0.25001   0.00000  Uiso   1.00
O80    O     0.22679   0.20625   0.25000   0.00000  Uiso   1.00
O81    O     0.10655   0.12709   0.24999   0.00000  Uiso   1.00
O82    O     0.16666   0.20626   0.18573   0.00000  Uiso   1.00
O83    O     0.16667   0.12707   0.31427   0.00000  Uiso   1.00
O84    O     0.16667   0.20626   0.31427   0.00000  Uiso   1.00
O85    O     0.16666   0.12707   0.18573   0.00000  Uiso   1.00
O86    O     0.11582   0.04890   0.19041   0.00000  Uiso   1.00
C87    C     0.42088   0.16681   0.25088   0.00000  Uiso   1.00
C88    C     0.64533   0.20937   0.24947   0.00000  Uiso   1.00
C89    C     0.64544   0.12592   0.24751   0.00000  Uiso   1.00
C90    C     0.35467   0.20937   0.25053   0.00000  Uiso   1.00
C91    C     0.48451   0.19872   0.04457   0.00000  Uiso   1.00
C92    C     0.48117   0.12476   0.45033   0.00000  Uiso   1.00
C93    C     0.51549   0.19872   0.45543   0.00000  Uiso   1.00
C94    C     0.51883   0.12476   0.04967   0.00000  Uiso   1.00
C95    C     0.48809   0.20272   0.09021   0.00000  Uiso   1.00
C96    C     0.47902   0.12740   0.40382   0.00000  Uiso   1.00
C97    C     0.51191   0.20272   0.40979   0.00000  Uiso   1.00
C98    C     0.57912   0.16681   0.24912   0.00000  Uiso   1.00
C99    C     0.52098   0.12740   0.09618   0.00000  Uiso   1.00
C100   C     0.50353   0.16573   0.11659   0.00000  Uiso   1.00
C101   C     0.49647   0.16573   0.38341   0.00000  Uiso   1.00
C102   C     0.49980   0.15998   0.02409   0.00000  Uiso   1.00
C103   C     0.50020   0.15998   0.47591   0.00000  Uiso   1.00
C104   C     0.62378   0.16742   0.24825   0.00000  Uiso   1.00
C105   C     0.37622   0.16742   0.25175   0.00000  Uiso   1.00
C106   C     0.40616   0.04665   0.19294   0.00000  Uiso   1.00
C107   C     0.57661   0.27623   0.32565   0.00000  Uiso   1.00
C108   C     0.59384   0.04665   0.30706   0.00000  Uiso   1.00
C109   C     0.50141   0.16660   0.16511   0.00000  Uiso   1.00
C110   C     0.42339   0.27623   0.17435   0.00000  Uiso   1.00
C111   C     0.51250   0.27266   0.11141   0.00000  Uiso   1.00
C112   C     0.46574   0.05173   0.38564   0.00000  Uiso   1.00
C113   C     0.48749   0.27266   0.38858   0.00000  Uiso   1.00
C114   C     0.53426   0.05173   0.11437   0.00000  Uiso   1.00
C115   C     0.49859   0.16660   0.33489   0.00000  Uiso   1.00
C116   C     0.47099   0.02513   0.22432   0.00000  Uiso   1.00
C117   C     0.53156   0.30884   0.27192   0.00000  Uiso   1.00
C118   C     0.52901   0.02513   0.27568   0.00000  Uiso   1.00
C119   C     0.46844   0.30884   0.22808   0.00000  Uiso   1.00
C120   C     0.35456   0.12592   0.25249   0.00000  Uiso   1.00
Cu121  Cu    0.50000   0.21355   0.25000   0.00000  Uiso   1.00
Cu122  Cu    0.50000   0.11978   0.25000   0.00000  Uiso   1.00
H123   H     0.39362   0.08193   0.18816   0.00000  Uiso   1.00
H124   H     0.43186   0.23985   0.16925   0.00000  Uiso   1.00
H125   H     0.43849   0.29985   0.15170   0.00000  Uiso   1.00
H126   H     0.38975   0.27817   0.16548   0.00000  Uiso   1.00
H127   H     0.47127   0.22709   0.02500   0.00000  Uiso   1.00
H128   H     0.46623   0.09687   0.46662   0.00000  Uiso   1.00
H129   H     0.52873   0.22709   0.47500   0.00000  Uiso   1.00
H130   H     0.53377   0.09687   0.03338   0.00000  Uiso   1.00
H131   H     0.50792   0.29936   0.13654   0.00000  Uiso   1.00
H132   H     0.51587   0.28966   0.07906   0.00000  Uiso   1.00
H133   H     0.54156   0.25432   0.12270   0.00000  Uiso   1.00
H134   H     0.39638   0.03222   0.22449   0.00000  Uiso   1.00
H135   H     0.49975   0.04708   0.38606   0.00000  Uiso   1.00
H136   H     0.45130   0.03076   0.35809   0.00000  Uiso   1.00
H137   H     0.45392   0.03863   0.41663   0.00000  Uiso   1.00
H138   H     0.49208   0.29936   0.36346   0.00000  Uiso   1.00
H139   H     0.48412   0.28965   0.42093   0.00000  Uiso   1.00
H140   H     0.45844   0.25432   0.37729   0.00000  Uiso   1.00
H141   H     0.50025   0.04708   0.11395   0.00000  Uiso   1.00
H142   H     0.54870   0.03076   0.14191   0.00000  Uiso   1.00
H143   H     0.54607   0.03863   0.08337   0.00000  Uiso   1.00
H144   H     0.37025   0.09338   0.25667   0.00000  Uiso   1.00
H145   H     0.39195   0.02673   0.16466   0.00000  Uiso   1.00
H146   H     0.62944   0.24213   0.24921   0.00000  Uiso   1.00
H147   H     0.62975   0.09338   0.24333   0.00000  Uiso   1.00
H148   H     0.37056   0.24213   0.25079   0.00000  Uiso   1.00
H149   H     0.56814   0.23985   0.33075   0.00000  Uiso   1.00
H150   H     0.56151   0.29985   0.34830   0.00000  Uiso   1.00
H151   H     0.61025   0.27817   0.33452   0.00000  Uiso   1.00
H152   H     0.60638   0.08194   0.31185   0.00000  Uiso   1.00
H153   H     0.60362   0.03222   0.27551   0.00000  Uiso   1.00
H154   H     0.60805   0.02673   0.33534   0.00000  Uiso   1.00
N155   N     0.50000   0.28402   0.25000   0.00000  Uiso   1.00
N156   N     0.50000   0.04931   0.25000   0.00000  Uiso   1.00
O157   O     0.43988   0.20625   0.24999   0.00000  Uiso   1.00
O158   O     0.56939   0.28778   0.28073   0.00000  Uiso   1.00
O159   O     0.55085   0.04890   0.30959   0.00000  Uiso   1.00
O160   O     0.43061   0.28779   0.21927   0.00000  Uiso   1.00
O161   O     0.47752   0.24383   0.10866   0.00000  Uiso   1.00
O162   O     0.45394   0.09783   0.37794   0.00000  Uiso   1.00
O163   O     0.52248   0.24383   0.39134   0.00000  Uiso   1.00
O164   O     0.54606   0.09783   0.12206   0.00000  Uiso   1.00
O165   O     0.56012   0.12709   0.25001   0.00000  Uiso   1.00
O166   O     0.56012   0.20625   0.25000   0.00000  Uiso   1.00
O167   O     0.43988   0.12709   0.24999   0.00000  Uiso   1.00
O168   O     0.50000   0.20626   0.18573   0.00000  Uiso   1.00
O169   O     0.50000   0.12707   0.31427   0.00000  Uiso   1.00
O170   O     0.50000   0.20626   0.31427   0.00000  Uiso   1.00
O171   O     0.50000   0.12707   0.18573   0.00000  Uiso   1.00
O172   O     0.44915   0.04890   0.19041   0.00000  Uiso   1.00
C173   C     0.75421   0.16681   0.25088   0.00000  Uiso   1.00
C174   C     0.97867   0.20937   0.24947   0.00000  Uiso   1.00
C175   C     0.97877   0.12592   0.24751   0.00000  Uiso   1.00
C176   C     0.68800   0.20937   0.25053   0.00000  Uiso   1.00
C177   C     0.81784   0.19872   0.04457   0.00000  Uiso   1.00
C178   C     0.81450   0.12476   0.45033   0.00000  Uiso   1.00
C179   C     0.84882   0.19872   0.45543   0.00000  Uiso   1.00
C180   C     0.85216   0.12476   0.04967   0.00000  Uiso   1.00
C181   C     0.82142   0.20272   0.09021   0.00000  Uiso   1.00
C182   C     0.81235   0.12740   0.40382   0.00000  Uiso   1.00
C183   C     0.84524   0.20272   0.40979   0.00000  Uiso   1.00
C184   C     0.91246   0.16681   0.24912   0.00000  Uiso   1.00
C185   C     0.85431   0.12740   0.09618   0.00000  Uiso   1.00
C186   C     0.83687   0.16573   0.11659   0.00000  Uiso   1.00
C187   C     0.82980   0.16573   0.38341   0.00000  Uiso   1.00
C188   C     0.83314   0.15998   0.02409   0.00000  Uiso   1.00
C189   C     0.83353   0.15998   0.47591   0.00000  Uiso   1.00
C190   C     0.95711   0.16742   0.24825   0.00000  Uiso   1.00
C191   C     0.70956   0.16742   0.25175   0.00000  Uiso   1.00
C192   C     0.73949   0.04665   0.19294   0.00000  Uiso   1.00
C193   C     0.90995   0.27623   0.32565   0.00000  Uiso   1.00
C194   C     0.92717   0.04665   0.30706   0.00000  Uiso   1.00
C195   C     0.83475   0.16660   0.16511   0.00000  Uiso   1.00
C196   C     0.75672   0.27623   0.17435   0.00000  Uiso   1.00
C197   C     0.84583   0.27266   0.11141   0.00000  Uiso   1.00
C198   C     0.79907   0.05173   0.38564   0.00000  Uiso   1.00
C199   C     0.82083   0.27266   0.38858   0.00000  Uiso   1.00
C200   C     0.86759   0.05173   0.11437   0.00000  Uiso   1.00
C201   C     0.83192   0.16660   0.33489   0.00000  Uiso   1.00
C202   C     0.80433   0.02513   0.22432   0.00000  Uiso   1.00
C203   C     0.86490   0.30884   0.27192   0.00000  Uiso   1.00
C204   C     0.86234   0.02513   0.27568   0.00000  Uiso   1.00
C205   C     0.80177   0.30884   0.22808   0.00000  Uiso   1.00
C206   C     0.68789   0.12592   0.25249   0.00000  Uiso   1.00
Cu207  Cu    0.83333   0.21355   0.25000   0.00000  Uiso   1.00
Cu208  Cu    0.83333   0.11978   0.25000   0.00000  Uiso   1.00
H209   H     0.72696   0.08193   0.18816   0.00000  Uiso   1.00
H210   H     0.76519   0.23985   0.16925   0.00000  Uiso   1.00
H211   H     0.77182   0.29985   0.15170   0.00000  Uiso   1.00
H212   H     0.72308   0.27817   0.16548   0.00000  Uiso   1.00
H213   H     0.80460   0.22709   0.02500   0.00000  Uiso   1.00
H214   H     0.79957   0.09687   0.46662   0.00000  Uiso   1.00
H215   H     0.86206   0.22709   0.47500   0.00000  Uiso   1.00
H216   H     0.86710   0.09687   0.03338   0.00000  Uiso   1.00
H217   H     0.84125   0.29936   0.13654   0.00000  Uiso   1.00
H218   H     0.84921   0.28966   0.07906   0.00000  Uiso   1.00
H219   H     0.87489   0.25432   0.12270   0.00000  Uiso   1.00
H220   H     0.72971   0.03222   0.22449   0.00000  Uiso   1.00
H221   H     0.83308   0.04708   0.38606   0.00000  Uiso   1.00
H222   H     0.78463   0.03076   0.35809   0.00000  Uiso   1.00
H223   H     0.78725   0.03863   0.41663   0.00000  Uiso   1.00
H224   H     0.82541   0.29936   0.36346   0.00000  Uiso   1.00
H225   H     0.81745   0.28965   0.42093   0.00000  Uiso   1.00
H226   H     0.79177   0.25432   0.37729   0.00000  Uiso   1.00
H227   H     0.83358   0.04708   0.11395   0.00000  Uiso   1.00
H228   H     0.88204   0.03076   0.14191   0.00000  Uiso   1.00
H229   H     0.87941   0.03863   0.08337   0.00000  Uiso   1.00
H230   H     0.70358   0.09338   0.25667   0.00000  Uiso   1.00
H231   H     0.72528   0.02673   0.16466   0.00000  Uiso   1.00
H232   H     0.96277   0.24213   0.24921   0.00000  Uiso   1.00
H233   H     0.96308   0.09338   0.24333   0.00000  Uiso   1.00
H234   H     0.70390   0.24213   0.25079   0.00000  Uiso   1.00
H235   H     0.90147   0.23985   0.33075   0.00000  Uiso   1.00
H236   H     0.89485   0.29985   0.34830   0.00000  Uiso   1.00
H237   H     0.94358   0.27817   0.33452   0.00000  Uiso   1.00
H238   H     0.93971   0.08194   0.31185   0.00000  Uiso   1.00
H239   H     0.93695   0.03222   0.27551   0.00000  Uiso   1.00
H240   H     0.94139   0.02673   0.33534   0.00000  Uiso   1.00
N241   N     0.83333   0.28402   0.25000   0.00000  Uiso   1.00
N242   N     0.83333   0.04931   0.25000   0.00000  Uiso   1.00
O243   O     0.77321   0.20625   0.24999   0.00000  Uiso   1.00
O244   O     0.90273   0.28778   0.28073   0.00000  Uiso   1.00
O245   O     0.88418   0.04890   0.30959   0.00000  Uiso   1.00
O246   O     0.76394   0.28779   0.21927   0.00000  Uiso   1.00
O247   O     0.81085   0.24383   0.10866   0.00000  Uiso   1.00
O248   O     0.78727   0.09783   0.37794   0.00000  Uiso   1.00
O249   O     0.85581   0.24383   0.39134   0.00000  Uiso   1.00
O250   O     0.87939   0.09783   0.12206   0.00000  Uiso   1.00
O251   O     0.89345   0.12709   0.25001   0.00000  Uiso   1.00
O252   O     0.89345   0.20625   0.25000   0.00000  Uiso   1.00
O253   O     0.77321   0.12709   0.24999   0.00000  Uiso   1.00
O254   O     0.83333   0.20626   0.18573   0.00000  Uiso   1.00
O255   O     0.83334   0.12707   0.31427   0.00000  Uiso   1.00
O256   O     0.83334   0.20626   0.31427   0.00000  Uiso   1.00
O257   O     0.83333   0.12707   0.18573   0.00000  Uiso   1.00
O258   O     0.78248   0.04890   0.19041   0.00000  Uiso   1.00
C259   C     0.08754   0.50014   0.25088   0.00000  Uiso   1.00
C260   C     0.31200   0.54271   0.24947   0.00000  Uiso   1.00
C261   C     0.31211   0.45925   0.24751   0.00000  Uiso   1.00
C262   C     0.02133   0.54271   0.25053   0.00000  Uiso   1.00
C263   C     0.15117   0.53205   0.04457   0.00000  Uiso   1.00
C264   C     0.14784   0.45810   0.45033   0.00000  Uiso   1.00
C265   C     0.18216   0.53205   0.45543   0.00000  Uiso   1.00
C266   C     0.18550   0.45810   0.04967   0.00000  Uiso   1.00
C267   C     0.15475   0.53605   0.09021   0.00000  Uiso   1.00
C268   C     0.14569   0.46073   0.40382   0.00000  Uiso   1.00
C269   C     0.17858   0.53605   0.40979   0.00000  Uiso   1.00
C270   C     0.24579   0.50014   0.24912   0.00000  Uiso   1.00
C271   C     0.18764   0.46073   0.09618   0.00000  Uiso   1.00
C272   C     0.17020   0.49906   0.11659   0.00000  Uiso   1.00
C273   C     0.16313   0.49906   0.38341   0.00000  Uiso   1.00
C274   C     0.16647   0.49331   0.02409   0.00000  Uiso   1.00
C275   C     0.16686   0.49331   0.47591   0.00000  Uiso   1.00
C276   C     0.29044   0.50075   0.24825   0.00000  Uiso   1.00
C277   C     0.04289   0.50075   0.25175   0.00000  Uiso   1.00
C278   C     0.07283   0.37999   0.19294   0.00000  Uiso   1.00
C279   C     0.24328   0.60956   0.32565   0.00000  Uiso   1.00
C280   C     0.26051   0.37999   0.30706   0.00000  Uiso   1.00
C281   C     0.16808   0.49993   0.16511   0.00000  Uiso   1.00
C282   C     0.09005   0.60957   0.17435   0.00000  Uiso   1.00
C283   C     0.17917   0.60600   0.11141   0.00000  Uiso   1.00
C284   C     0.13241   0.38506   0.38564   0.00000  Uiso   1.00
C285   C     0.15416   0.60600   0.38858   0.00000  Uiso   1.00
C286   C     0.20092   0.38506   0.11437   0.00000  Uiso   1.00
C287   C     0.16525   0.49993   0.33489   0.00000  Uiso   1.00
C288   C     0.13766   0.35846   0.22432   0.00000  Uiso   1.00
C289   C     0.19823   0.64217   0.27192   0.00000  Uiso   1.00
C290   C     0.19567   0.35846   0.27568   0.00000  Uiso   1.00
C291   C     0.13510   0.64217   0.22808   0.00000  Uiso   1.00
C292   C     0.02123   0.45925   0.25249   0.00000  Uiso   1.00
Cu293  Cu    0.16667   0.54689   0.25000   0.00000  Uiso   1.00
Cu294  Cu    0.16667   0.45311   0.25000   0.00000  Uiso   1.00
H295   H     0.06029   0.41527   0.18816   0.00000  Uiso   1.00
H296   H     0.09853   0.57319   0.16925   0.00000  Uiso   1.00
H297   H     0.10515   0.63318   0.15170   0.00000  Uiso   1.00
H298   H     0.05642   0.61150   0.16548   0.00000  Uiso   1.00
H299   H     0.13793   0.56043   0.02500   0.00000  Uiso   1.00
H300   H     0.13290   0.43020   0.46662   0.00000  Uiso   1.00
H301   H     0.19540   0.56043   0.47500   0.00000  Uiso   1.00
H302   H     0.20043   0.43020   0.03338   0.00000  Uiso   1.00
H303   H     0.17459   0.63269   0.13654   0.00000  Uiso   1.00
H304   H     0.18254   0.62299   0.07906   0.00000  Uiso   1.00
H305   H     0.20822   0.58766   0.12270   0.00000  Uiso   1.00
H306   H     0.06305   0.36555   0.22449   0.00000  Uiso   1.00
H307   H     0.16641   0.38042   0.38606   0.00000  Uiso   1.00
H308   H     0.11796   0.36409   0.35809   0.00000  Uiso   1.00
H309   H     0.12059   0.37196   0.41663   0.00000  Uiso   1.00
H310   H     0.15875   0.63270   0.36346   0.00000  Uiso   1.00
H311   H     0.15078   0.62299   0.42093   0.00000  Uiso   1.00
H312   H     0.12511   0.58765   0.37729   0.00000  Uiso   1.00
H313   H     0.16692   0.38042   0.11395   0.00000  Uiso   1.00
H314   H     0.21537   0.36409   0.14191   0.00000  Uiso   1.00
H315   H     0.21274   0.37196   0.08337   0.00000  Uiso   1.00
H316   H     0.03692   0.42671   0.25667   0.00000  Uiso   1.00
H317   H     0.05861   0.36006   0.16466   0.00000  Uiso   1.00
H318   H     0.29610   0.57546   0.24921   0.00000  Uiso   1.00
H319   H     0.29642   0.42671   0.24333   0.00000  Uiso   1.00
H320   H     0.03723   0.57546   0.25079   0.00000  Uiso   1.00
H321   H     0.23481   0.57318   0.33075   0.00000  Uiso   1.00
H322   H     0.22818   0.63318   0.34830   0.00000  Uiso   1.00
H323   H     0.27691   0.61150   0.33452   0.00000  Uiso   1.00
H324   H     0.27304   0.41527   0.31185   0.00000  Uiso   1.00
H325   H     0.27029   0.36555   0.27551   0.00000  Uiso   1.00
H326   H     0.27472   0.36006   0.33534   0.00000  Uiso   1.00
N327   N     0.16667   0.61736   0.25000   0.00000  Uiso   1.00
N328   N     0.16667   0.38264   0.25000   0.00000  Uiso   1.00
O329   O     0.10655   0.53958   0.24999   0.00000  Uiso   1.00
O330   O     0.23606   0.62112   0.28073   0.00000  Uiso   1.00
O331   O     0.21752   0.38223   0.30959   0.00000  Uiso   1.00
O332   O     0.09727   0.62112   0.21927   0.00000  Uiso   1.00
O333   O     0.14419   0.57717   0.10866   0.00000  Uiso   1.00
O334   O     0.12061   0.43117   0.37794   0.00000  Uiso   1.00
O335   O     0.18914   0.57717   0.39134   0.00000  Uiso   1.00
O336   O     0.21273   0.43117   0.12206   0.00000  Uiso   1.00
O337   O     0.22679   0.46042   0.25001   0.00000  Uiso   1.00
O338   O     0.22679   0.53958   0.25000   0.00000  Uiso   1.00
O339   O     0.10655   0.46042   0.24999   0.00000  Uiso   1.00
O340   O     0.16666   0.53959   0.18573   0.00000  Uiso   1.00
O341   O     0.16667   0.46041   0.31427   0.00000  Uiso   1.00
O342   O     0.16667   0.53959   0.31427   0.00000  Uiso   1.00
O343   O     0.16666   0.46041   0.18573   0.00000  Uiso   1.00
O344   O     0.11582   0.38224   0.19041   0.00000  Uiso   1.00
C345   C     0.42088   0.50014   0.25088   0.00000  Uiso   1.00
C346   C     0.64533   0.54271   0.24947   0.00000  Uiso   1.00
C347   C     0.64544   0.45925   0.24751   0.00000  Uiso   1.00
C348   C     0.35467   0.54271   0.25053   0.00000  Uiso   1.00
C349   C     0.48451   0.53205   0.04457   0.00000  Uiso   1.00
C350   C     0.48117   0.45810   0.45033   0.00000  Uiso   1.00
C351   C     0.51549   0.53205   0.45543   0.00000  Uiso   1.00
C352   C     0.51883   0.45810   0.04967   0.00000  Uiso   1.00
C353   C     0.48809   0.53605   0.09021   0.00000  Uiso   1.00
C354   C     0.47902   0.46073   0.40382   0.00000  Uiso   1.00
C355   C     0.51191   0.53605   0.40979   0.00000  Uiso   1.00
C356   C     0.57912   0.50014   0.24912   0.00000  Uiso   1.00
C357   C     0.52098   0.46073   0.09618   0.00000  Uiso   1.00
C358   C     0.50353   0.49906   0.11659   0.00000  Uiso   1.00
C359   C     0.49647   0.49906   0.38341   0.00000  Uiso   1.00
C360   C     0.49980   0.49331   0.02409   0.00000  Uiso   1.00
C361   C     0.50020   0.49331   0.47591   0.00000  Uiso   1.00
C362   C     0.62378   0.50075   0.24825   0.00000  Uiso   1.00
C363   C     0.37622   0.50075   0.25175   0.00000  Uiso   1.00
C364   C     0.40616   0.37999   0.19294   0.00000  Uiso   1.00
C365   C     0.57661   0.60956   0.32565   0.00000  Uiso   1.00
C366   C     0.59384   0.37999   0.30706   0.00000  Uiso   1.00
C367   C     0.50141   0.49993   0.16511   0.00000  Uiso   1.00
C368   C     0.42339   0.60957   0.17435   0.00000  Uiso   1.00
C369   C     0.51250   0.60600   0.11141   0.00000  Uiso   1.00
C370   C     0.46574   0.38506   0.38564   0.00000  Uiso   1.00
C371   C     0.48749   0.60600   0.38858   0.00000  Uiso   1.00
C372   C     0.53426   0.38506   0.11437   0.00000  Uiso   1.00
C373   C     0.49859   0.49993   0.33489   0.00000  Uiso   1.00
C374   C     0.47099   0.35846   0.22432   0.00000  Uiso   1.00
C375   C     0.53156   0.64217   0.27192   0.00000  Uiso   1.00
C376   C     0.52901   0.35846   0.27568   0.00000  Uiso   1.00
C377   C     0.46844   0.64217   0.22808   0.00000  Uiso   1.00
C378   C     0.35456   0.45925   0.25249   0.00000  Uiso   1.00
Cu379  Cu    0.50000   0.54689   0.25000   0.00000  Uiso   1.00
Cu380  Cu    0.50000   0.45311   0.25000   0.00000  Uiso   1.00
H381   H     0.39362   0.41527   0.18816   0.00000  Uiso   1.00
H382   H     0.43186   0.57319   0.16925   0.00000  Uiso   1.00
H383   H     0.43849   0.63318   0.15170   0.00000  Uiso   1.00
H384   H     0.38975   0.61150   0.16548   0.00000  Uiso   1.00
H385   H     0.47127   0.56043   0.02500   0.00000  Uiso   1.00
H386   H     0.46623   0.43020   0.46662   0.00000  Uiso   1.00
H387   H     0.52873   0.56043   0.47500   0.00000  Uiso   1.00
H388   H     0.53377   0.43020   0.03338   0.00000  Uiso   1.00
H389   H     0.50792   0.63269   0.13654   0.00000  Uiso   1.00
H390   H     0.51587   0.62299   0.07906   0.00000  Uiso   1.00
H391   H     0.54156   0.58766   0.12270   0.00000  Uiso   1.00
H392   H     0.39638   0.36555   0.22449   0.00000  Uiso   1.00
H393   H     0.49975   0.38042   0.38606   0.00000  Uiso   1.00
H394   H     0.45130   0.36409   0.35809   0.00000  Uiso   1.00
H395   H     0.45392   0.37196   0.41663   0.00000  Uiso   1.00
H396   H     0.49208   0.63270   0.36346   0.00000  Uiso   1.00
H397   H     0.48412   0.62299   0.42093   0.00000  Uiso   1.00
H398   H     0.45844   0.58765   0.37729   0.00000  Uiso   1.00
H399   H     0.50025   0.38042   0.11395   0.00000  Uiso   1.00
H400   H     0.54870   0.36409   0.14191   0.00000  Uiso   1.00
H401   H     0.54607   0.37196   0.08337   0.00000  Uiso   1.00
H402   H     0.37025   0.42671   0.25667   0.00000  Uiso   1.00
H403   H     0.39195   0.36006   0.16466   0.00000  Uiso   1.00
H404   H     0.62944   0.57546   0.24921   0.00000  Uiso   1.00
H405   H     0.62975   0.42671   0.24333   0.00000  Uiso   1.00
H406   H     0.37056   0.57546   0.25079   0.00000  Uiso   1.00
H407   H     0.56814   0.57318   0.33075   0.00000  Uiso   1.00
H408   H     0.56151   0.63318   0.34830   0.00000  Uiso   1.00
H409   H     0.61025   0.61150   0.33452   0.00000  Uiso   1.00
H410   H     0.60638   0.41527   0.31185   0.00000  Uiso   1.00
H411   H     0.60362   0.36555   0.27551   0.00000  Uiso   1.00
H412   H     0.60805   0.36006   0.33534   0.00000  Uiso   1.00
N413   N     0.50000   0.61736   0.25000   0.00000  Uiso   1.00
N414   N     0.50000   0.38264   0.25000   0.00000  Uiso   1.00
O415   O     0.43988   0.53958   0.24999   0.00000  Uiso   1.00
O416   O     0.56939   0.62112   0.28073   0.00000  Uiso   1.00
O417   O     0.55085   0.38223   0.30959   0.00000  Uiso   1.00
O418   O     0.43061   0.62112   0.21927   0.00000  Uiso   1.00
O419   O     0.47752   0.57717   0.10866   0.00000  Uiso   1.00
O420   O     0.45394   0.43117   0.37794   0.00000  Uiso   1.00
O421   O     0.52248   0.57717   0.39134   0.00000  Uiso   1.00
O422   O     0.54606   0.43117   0.12206   0.00000  Uiso   1.00
O423   O     0.56012   0.46042   0.25001   0.00000  Uiso   1.00
O424   O     0.56012   0.53958   0.25000   0.00000  Uiso   1.00
O425   O     0.43988   0.46042   0.24999   0.00000  Uiso   1.00
O426   O     0.50000   0.53959   0.18573   0.00000  Uiso   1.00
O427   O     0.50000   0.46041   0.31427   0.00000  Uiso   1.00
O428   O     0.50000   0.53959   0.31427   0.00000  Uiso   1.00
O429   O     0.50000   0.46041   0.18573   0.00000  Uiso   1.00
O430   O     0.44915   0.38224   0.19041   0.00000  Uiso   1.00
C431   C     0.75421   0.50014   0.25088   0.00000  Uiso   1.00
C432   C     0.97867   0.54271   0.24947   0.00000  Uiso   1.00
C433   C     0.97877   0.45925   0.24751   0.00000  Uiso   1.00
C434   C     0.68800   0.54271   0.25053   0.00000  Uiso   1.00
C435   C     0.81784   0.53205   0.04457   0.00000  Uiso   1.00
C436   C     0.81450   0.45810   0.45033   0.00000  Uiso   1.00
C437   C     0.84882   0.53205   0.45543   0.00000  Uiso   1.00
C438   C     0.85216   0.45810   0.04967   0.00000  Uiso   1.00
C439   C     0.82142   0.53605   0.09021   0.00000  Uiso   1.00
C440   C     0.81235   0.46073   0.40382   0.00000  Uiso   1.00
C441   C     0.84524   0.53605   0.40979   0.00000  Uiso   1.00
C442   C     0.91246   0.50014   0.24912   0.00000  Uiso   1.00
C443   C     0.85431   0.46073   0.09618   0.00000  Uiso   1.00
C444   C     0.83687   0.49906   0.11659   0.00000  Uiso   1.00
C445   C     0.82980   0.49906   0.38341   0.00000  Uiso   1.00
C446   C     0.83314   0.49331   0.02409   0.00000  Uiso   1.00
C447   C     0.83353   0.49331   0.47591   0.00000  Uiso   1.00
C448   C     0.95711   0.50075   0.24825   0.00000  Uiso   1.00
C449   C     0.70956   0.50075   0.25175   0.00000  Uiso   1.00
C450   C     0.73949   0.37999   0.19294   0.00000  Uiso   1.00
C451   C     0.90995   0.60956   0.32565   0.00000  Uiso   1.00
C452   C     0.92717   0.37999   0.30706   0.00000  Uiso   1.00
C453   C     0.83475   0.49993   0.16511   0.00000  Uiso   1.00
C454   C     0.75672   0.60957   0.17435   0.00000  Uiso   1.00
C455   C     0.84583   0.60600   0.11141   0.00000  Uiso   1.00
C456   C     0.79907   0.38506   0.38564   0.00000  Uiso   1.00
C457   C     0.82083   0.60600   0.38858   0.00000  Uiso   1.00
C458   C     0.86759   0.38506   0.11437   0.00000  Uiso   1.00
C459   C     0.83192   0.49993   0.33489   0.00000  Uiso   1.00
C460   C     0.80433   0.35846   0.22432   0.00000  Uiso   1.00
C461   C     0.86490   0.64217   0.27192   0.00000  Uiso   1.00
C462   C     0.86234   0.35846   0.27568   0.00000  Uiso   1.00
C463   C     0.80177   0.64217   0.22808   0.00000  Uiso   1.00
C464   C     0.68789   0.45925   0.25249   0.00000  Uiso   1.00
Cu465  Cu    0.83333   0.54689   0.25000   0.00000  Uiso   1.00
Cu466  Cu    0.83333   0.45311   0.25000   0.00000  Uiso   1.00
H467   H     0.72696   0.41527   0.18816   0.00000  Uiso   1.00
H468   H     0.76519   0.57319   0.16925   0.00000  Uiso   1.00
H469   H     0.77182   0.63318   0.15170   0.00000  Uiso   1.00
H470   H     0.72308   0.61150   0.16548   0.00000  Uiso   1.00
H471   H     0.80460   0.56043   0.02500   0.00000  Uiso   1.00
H472   H     0.79957   0.43020   0.46662   0.00000  Uiso   1.00
H473   H     0.86206   0.56043   0.47500   0.00000  Uiso   1.00
H474   H     0.86710   0.43020   0.03338   0.00000  Uiso   1.00
H475   H     0.84125   0.63269   0.13654   0.00000  Uiso   1.00
H476   H     0.84921   0.62299   0.07906   0.00000  Uiso   1.00
H477   H     0.87489   0.58766   0.12270   0.00000  Uiso   1.00
H478   H     0.72971   0.36555   0.22449   0.00000  Uiso   1.00
H479   H     0.83308   0.38042   0.38606   0.00000  Uiso   1.00
H480   H     0.78463   0.36409   0.35809   0.00000  Uiso   1.00
H481   H     0.78725   0.37196   0.41663   0.00000  Uiso   1.00
H482   H     0.82541   0.63270   0.36346   0.00000  Uiso   1.00
H483   H     0.81745   0.62299   0.42093   0.00000  Uiso   1.00
H484   H     0.79177   0.58765   0.37729   0.00000  Uiso   1.00
H485   H     0.83358   0.38042   0.11395   0.00000  Uiso   1.00
H486   H     0.88204   0.36409   0.14191   0.00000  Uiso   1.00
H487   H     0.87941   0.37196   0.08337   0.00000  Uiso   1.00
H488   H     0.70358   0.42671   0.25667   0.00000  Uiso   1.00
H489   H     0.72528   0.36006   0.16466   0.00000  Uiso   1.00
H490   H     0.96277   0.57546   0.24921   0.00000  Uiso   1.00
H491   H     0.96308   0.42671   0.24333   0.00000  Uiso   1.00
H492   H     0.70390   0.57546   0.25079   0.00000  Uiso   1.00
H493   H     0.90147   0.57318   0.33075   0.00000  Uiso   1.00
H494   H     0.89485   0.63318   0.34830   0.00000  Uiso   1.00
H495   H     0.94358   0.61150   0.33452   0.00000  Uiso   1.00
H496   H     0.93971   0.41527   0.31185   0.00000  Uiso   1.00
H497   H     0.93695   0.36555   0.27551   0.00000  Uiso   1.00
H498   H     0.94139   0.36006   0.33534   0.00000  Uiso   1.00
N499   N     0.83333   0.61736   0.25000   0.00000  Uiso   1.00
N500   N     0.83333   0.38264   0.25000   0.00000  Uiso   1.00
O501   O     0.77321   0.53958   0.24999   0.00000  Uiso   1.00
O502   O     0.90273   0.62112   0.28073   0.00000  Uiso   1.00
O503   O     0.88418   0.38223   0.30959   0.00000  Uiso   1.00
O504   O     0.76394   0.62112   0.21927   0.00000  Uiso   1.00
O505   O     0.81085   0.57717   0.10866   0.00000  Uiso   1.00
O506   O     0.78727   0.43117   0.37794   0.00000  Uiso   1.00
O507   O     0.85581   0.57717   0.39134   0.00000  Uiso   1.00
O508   O     0.87939   0.43117   0.12206   0.00000  Uiso   1.00
O509   O     0.89345   0.46042   0.25001   0.00000  Uiso   1.00
O510   O     0.89345   0.53958   0.25000   0.00000  Uiso   1.00
O511   O     0.77321   0.46042   0.24999   0.00000  Uiso   1.00
O512   O     0.83333   0.53959   0.18573   0.00000  Uiso   1.00
O513   O     0.83334   0.46041   0.31427   0.00000  Uiso   1.00
O514   O     0.83334   0.53959   0.31427   0.00000  Uiso   1.00
O515   O     0.83333   0.46041   0.18573   0.00000  Uiso   1.00
O516   O     0.78248   0.38224   0.19041   0.00000  Uiso   1.00
C517   C     0.08754   0.83347   0.25088   0.00000  Uiso   1.00
C518   C     0.31200   0.87604   0.24947   0.00000  Uiso   1.00
C519   C     0.31211   0.79259   0.24751   0.00000  Uiso   1.00
C520   C     0.02133   0.87604   0.25053   0.00000  Uiso   1.00
C521   C     0.15117   0.86539   0.04457   0.00000  Uiso   1.00
C522   C     0.14784   0.79143   0.45033   0.00000  Uiso   1.00
C523   C     0.18216   0.86539   0.45543   0.00000  Uiso   1.00
C524   C     0.18550   0.79143   0.04967   0.00000  Uiso   1.00
C525   C     0.15475   0.86939   0.09021   0.00000  Uiso   1.00
C526   C     0.14569   0.79406   0.40382   0.00000  Uiso   1.00
C527   C     0.17858   0.86939   0.40979   0.00000  Uiso   1.00
C528   C     0.24579   0.83347   0.24912   0.00000  Uiso   1.00
C529   C     0.18764   0.79406   0.09618   0.00000  Uiso   1.00
C530   C     0.17020   0.83240   0.11659   0.00000  Uiso   1.00
C531   C     0.16313   0.83240   0.38341   0.00000  Uiso   1.00
C532   C     0.16647   0.82664   0.02409   0.00000  Uiso   1.00
C533   C     0.16686   0.82664   0.47591   0.00000  Uiso   1.00
C534   C     0.29044   0.83409   0.24825   0.00000  Uiso   1.00
C535   C     0.04289   0.83409   0.25175   0.00000  Uiso   1.00
C536   C     0.07283   0.71332   0.19294   0.00000  Uiso   1.00
C537   C     0.24328   0.94290   0.32565   0.00000  Uiso   1.00
C538   C     0.26051   0.71332   0.30706   0.00000  Uiso   1.00
C539   C     0.16808   0.83326   0.16511   0.00000  Uiso   1.00
C540   C     0.09005   0.94290   0.17435   0.00000  Uiso   1.00
C541   C     0.17917   0.93933   0.11141   0.00000  Uiso   1.00
C542   C     0.13241   0.71840   0.38564   0.00000  Uiso   1.00
C543   C     0.15416   0.93933   0.38858   0.00000  Uiso   1.00
C544   C     0.20092   0.71840   0.11437   0.00000  Uiso   1.00
C545   C     0.16525   0.83326   0.33489   0.00000  Uiso   1.00
C546   C     0.13766   0.69179   0.22432   0.00000  Uiso   1.00
C547   C     0.19823   0.97550   0.27192   0.00000  Uiso   1.00
C548   C     0.19567   0.69179   0.27568   0.00000  Uiso   1.00
C549   C     0.13510   0.97550   0.22808   0.00000  Uiso   1.00
C550   C     0.02123   0.79259   0.25249   0.00000  Uiso   1.00
Cu551  Cu    0.16667   0.88022   0.25000   0.00000  Uiso   1.00
Cu552  Cu    0.16667   0.78645   0.25000   0.00000  Uiso   1.00
H553   H     0.06029   0.74860   0.18816   0.00000  Uiso   1.00
H554   H     0.09853   0.90652   0.16925   0.00000  Uiso   1.00
H555   H     0.10515   0.96651   0.15170   0.00000  Uiso   1.00
H556   H     0.05642   0.94483   0.16548   0.00000  Uiso   1.00
H557   H     0.13793   0.89376   0.02500   0.00000  Uiso   1.00
H558   H     0.13290   0.76353   0.46662   0.00000  Uiso   1.00
H559   H     0.19540   0.89376   0.47500   0.00000  Uiso   1.00
H560   H     0.20043   0.76353   0.03338   0.00000  Uiso   1.00
H561   H     0.17459   0.96603   0.13654   0.00000  Uiso   1.00
H562   H     0.18254   0.95633   0.07906   0.00000  Uiso   1.00
H563   H     0.20822   0.92099   0.12270   0.00000  Uiso   1.00
H564   H     0.06305   0.69888   0.22449   0.00000  Uiso   1.00
H565   H     0.16641   0.71375   0.38606   0.00000  Uiso   1.00
H566   H     0.11796   0.69743   0.35809   0.00000  Uiso   1.00
H567   H     0.12059   0.70530   0.41663   0.00000  Uiso   1.00
H568   H     0.15875   0.96603   0.36346   0.00000  Uiso   1.00
H569   H     0.15078   0.95632   0.42093   0.00000  Uiso   1.00
H570   H     0.12511   0.92099   0.37729   0.00000  Uiso   1.00
H571   H     0.16692   0.71375   0.11395   0.00000  Uiso   1.00
H572   H     0.21537   0.69743   0.14191   0.00000  Uiso   1.00
H573   H     0.21274   0.70530   0.08337   0.00000  Uiso   1.00
H574   H     0.03692   0.76005   0.25667   0.00000  Uiso   1.00
H575   H     0.05861   0.69340   0.16466   0.00000  Uiso   1.00
H576   H     0.29610   0.90880   0.24921   0.00000  Uiso   1.00
H577   H     0.29642   0.76005   0.24333   0.00000  Uiso   1.00
H578   H     0.03723   0.90880   0.25079   0.00000  Uiso   1.00
H579   H     0.23481   0.90652   0.33075   0.00000  Uiso   1.00
H580   H     0.22818   0.96651   0.34830   0.00000  Uiso   1.00
H581   H     0.27691   0.94483   0.33452   0.00000  Uiso   1.00
H582   H     0.27304   0.74860   0.31185   0.00000  Uiso   1.00
H583   H     0.27029   0.69889   0.27551   0.00000  Uiso   1.00
H584   H     0.27472   0.69339   0.33534   0.00000  Uiso   1.00
N585   N     0.16667   0.95069   0.25000   0.00000  Uiso   1.00
N586   N     0.16667   0.71598   0.25000   0.00000  Uiso   1.00
O587   O     0.10655   0.87291   0.24999   0.00000  Uiso   1.00
O588   O     0.23606   0.95445   0.28073   0.00000  Uiso   1.00
O589   O     0.21752   0.71557   0.30959   0.00000  Uiso   1.00
O590   O     0.09727   0.95445   0.21927   0.00000  Uiso   1.00
O591   O     0.14419   0.91050   0.10866   0.00000  Uiso   1.00
O592   O     0.12061   0.76450   0.37794   0.00000  Uiso   1.00
O593   O     0.18914   0.91050   0.39134   0.00000  Uiso   1.00
O594   O     0.21273   0.76450   0.12206   0.00000  Uiso   1.00
O595   O     0.22679   0.79375   0.25001   0.00000  Uiso   1.00
O596   O     0.22679   0.87291   0.25000   0.00000  Uiso   1.00
O597   O     0.10655   0.79375   0.24999   0.00000  Uiso   1.00
O598   O     0.16666   0.87293   0.18573   0.00000  Uiso   1.00
O599   O     0.16667   0.79374   0.31427   0.00000  Uiso   1.00
O600   O     0.16667   0.87293   0.31427   0.00000  Uiso   1.00
O601   O     0.16666   0.79374   0.18573   0.00000  Uiso   1.00
O602   O     0.11582   0.71557   0.19041   0.00000  Uiso   1.00
C603   C     0.42088   0.83347   0.25088   0.00000  Uiso   1.00
C604   C     0.64533   0.87604   0.24947   0.00000  Uiso   1.00
C605   C     0.64544   0.79259   0.24751   0.00000  Uiso   1.00
C606   C     0.35467   0.87604   0.25053   0.00000  Uiso   1.00
C607   C     0.48451   0.86539   0.04457   0.00000  Uiso   1.00
C608   C     0.48117   0.79143   0.45033   0.00000  Uiso   1.00
C609   C     0.51549   0.86539   0.45543   0.00000  Uiso   1.00
C610   C     0.51883   0.79143   0.04967   0.00000  Uiso   1.00
C611   C     0.48809   0.86939   0.09021   0.00000  Uiso   1.00
C612   C     0.47902   0.79406   0.40382   0.00000  Uiso   1.00
C613   C     0.51191   0.86939   0.40979   0.00000  Uiso   1.00
C614   C     0.57912   0.83347   0.24912   0.00000  Uiso   1.00
C615   C     0.52098   0.79406   0.09618   0.00000  Uiso   1.00
C616   C     0.50353   0.83240   0.11659   0.00000  Uiso   1.00
C617   C     0.49647   0.83240   0.38341   0.00000  Uiso   1.00
C618   C     0.49980   0.82664   0.02409   0.00000  Uiso   1.00
C619   C     0.50020   0.82664   0.47591   0.00000  Uiso   1.00
C620   C     0.62378   0.83409   0.24825   0.00000  Uiso   1.00
C621   C     0.37622   0.83409   0.25175   0.00000  Uiso   1.00
C622   C     0.40616   0.71332   0.19294   0.00000  Uiso   1.00
C623   C     0.57661   0.94290   0.32565   0.00000  Uiso   1.00
C624   C     0.59384   0.71332   0.30706   0.00000  Uiso   1.00
C625   C     0.50141   0.83326   0.16511   0.00000  Uiso   1.00
C626   C     0.42339   0.94290   0.17435   0.00000  Uiso   1.00
C627   C     0.51250   0.93933   0.11141   0.00000  Uiso   1.00
C628   C     0.46574   0.71840   0.38564   0.00000  Uiso   1.00
C629   C     0.48749   0.93933   0.38858   0.00000  Uiso   1.00
C630   C     0.53426   0.71840   0.11437   0.00000  Uiso   1.00
C631   C     0.49859   0.83326   0.33489   0.00000  Uiso   1.00
C632   C     0.47099   0.69179   0.22432   0.00000  Uiso   1.00
C633   C     0.53156   0.97550   0.27192   0.00000  Uiso   1.00
C634   C     0.52901   0.69179   0.27568   0.00000  Uiso   1.00
C635   C     0.46844   0.97550   0.22808   0.00000  Uiso   1.00
C636   C     0.35456   0.79259   0.25249   0.00000  Uiso   1.00
Cu637  Cu    0.50000   0.88022   0.25000   0.00000  Uiso   1.00
Cu638  Cu    0.50000   0.78645   0.25000   0.00000  Uiso   1.00
H639   H     0.39362   0.74860   0.18816   0.00000  Uiso   1.00
H640   H     0.43186   0.90652   0.16925   0.00000  Uiso   1.00
H641   H     0.43849   0.96651   0.15170   0.00000  Uiso   1.00
H642   H     0.38975   0.94483   0.16548   0.00000  Uiso   1.00
H643   H     0.47127   0.89376   0.02500   0.00000  Uiso   1.00
H644   H     0.46623   0.76353   0.46662   0.00000  Uiso   1.00
H645   H     0.52873   0.89376   0.47500   0.00000  Uiso   1.00
H646   H     0.53377   0.76353   0.03338   0.00000  Uiso   1.00
H647   H     0.50792   0.96603   0.13654   0.00000  Uiso   1.00
H648   H     0.51587   0.95633   0.07906   0.00000  Uiso   1.00
H649   H     0.54156   0.92099   0.12270   0.00000  Uiso   1.00
H650   H     0.39638   0.69888   0.22449   0.00000  Uiso   1.00
H651   H     0.49975   0.71375   0.38606   0.00000  Uiso   1.00
H652   H     0.45130   0.69743   0.35809   0.00000  Uiso   1.00
H653   H     0.45392   0.70530   0.41663   0.00000  Uiso   1.00
H654   H     0.49208   0.96603   0.36346   0.00000  Uiso   1.00
H655   H     0.48412   0.95632   0.42093   0.00000  Uiso   1.00
H656   H     0.45844   0.92099   0.37729   0.00000  Uiso   1.00
H657   H     0.50025   0.71375   0.11395   0.00000  Uiso   1.00
H658   H     0.54870   0.69743   0.14191   0.00000  Uiso   1.00
H659   H     0.54607   0.70530   0.08337   0.00000  Uiso   1.00
H660   H     0.37025   0.76005   0.25667   0.00000  Uiso   1.00
H661   H     0.39195   0.69340   0.16466   0.00000  Uiso   1.00
H662   H     0.62944   0.90880   0.24921   0.00000  Uiso   1.00
H663   H     0.62975   0.76005   0.24333   0.00000  Uiso   1.00
H664   H     0.37056   0.90880   0.25079   0.00000  Uiso   1.00
H665   H     0.56814   0.90652   0.33075   0.00000  Uiso   1.00
H666   H     0.56151   0.96651   0.34830   0.00000  Uiso   1.00
H667   H     0.61025   0.94483   0.33452   0.00000  Uiso   1.00
H668   H     0.60638   0.74860   0.31185   0.00000  Uiso   1.00
H669   H     0.60362   0.69889   0.27551   0.00000  Uiso   1.00
H670   H     0.60805   0.69339   0.33534   0.00000  Uiso   1.00
N671   N     0.50000   0.95069   0.25000   0.00000  Uiso   1.00
N672   N     0.50000   0.71598   0.25000   0.00000  Uiso   1.00
O673   O     0.43988   0.87291   0.24999   0.00000  Uiso   1.00
O674   O     0.56939   0.95445   0.28073   0.00000  Uiso   1.00
O675   O     0.55085   0.71557   0.30959   0.00000  Uiso   1.00
O676   O     0.43061   0.95445   0.21927   0.00000  Uiso   1.00
O677   O     0.47752   0.91050   0.10866   0.00000  Uiso   1.00
O678   O     0.45394   0.76450   0.37794   0.00000  Uiso   1.00
O679   O     0.52248   0.91050   0.39134   0.00000  Uiso   1.00
O680   O     0.54606   0.76450   0.12206   0.00000  Uiso   1.00
O681   O     0.56012   0.79375   0.25001   0.00000  Uiso   1.00
O682   O     0.56012   0.87291   0.25000   0.00000  Uiso   1.00
O683   O     0.43988   0.79375   0.24999   0.00000  Uiso   1.00
O684   O     0.50000   0.87293   0.18573   0.00000  Uiso   1.00
O685   O     0.50000   0.79374   0.31427   0.00000  Uiso   1.00
O686   O     0.50000   0.87293   0.31427   0.00000  Uiso   1.00
O687   O     0.50000   0.79374   0.18573   0.00000  Uiso   1.00
O688   O     0.44915   0.71557   0.19041   0.00000  Uiso   1.00
C689   C     0.75421   0.83347   0.25088   0.00000  Uiso   1.00
C690   C     0.97867   0.87604   0.24947   0.00000  Uiso   1.00
C691   C     0.97877   0.79259   0.24751   0.00000  Uiso   1.00
C692   C     0.68800   0.87604   0.25053   0.00000  Uiso   1.00
C693   C     0.81784   0.86539   0.04457   0.00000  Uiso   1.00
C694   C     0.81450   0.79143   0.45033   0.00000  Uiso   1.00
C695   C     0.84882   0.86539   0.45543   0.00000  Uiso   1.00
C696   C     0.85216   0.79143   0.04967   0.00000  Uiso   1.00
C697   C     0.82142   0.86939   0.09021   0.00000  Uiso   1.00
C698   C     0.81235   0.79406   0.40382   0.00000  Uiso   1.00
C699   C     0.84524   0.86939   0.40979   0.00000  Uiso   1.00
C700   C     0.91246   0.83347   0.24912   0.00000  Uiso   1.00
C701   C     0.85431   0.79406   0.09618   0.00000  Uiso   1.00
C702   C     0.83687   0.83240   0.11659   0.00000  Uiso   1.00
C703   C     0.82980   0.83240   0.38341   0.00000  Uiso   1.00
C704   C     0.83314   0.82664   0.02409   0.00000  Uiso   1.00
C705   C     0.83353   0.82664   0.47591   0.00000  Uiso   1.00
C706   C     0.95711   0.83409   0.24825   0.00000  Uiso   1.00
C707   C     0.70956   0.83409   0.25175   0.00000  Uiso   1.00
C708   C     0.73949   0.71332   0.19294   0.00000  Uiso   1.00
C709   C     0.90995   0.94290   0.32565   0.00000  Uiso   1.00
C710   C     0.92717   0.71332   0.30706   0.00000  Uiso   1.00
C711   C     0.83475   0.83326   0.16511   0.00000  Uiso   1.00
C712   C     0.75672   0.94290   0.17435   0.00000  Uiso   1.00
C713   C     0.84583   0.93933   0.11141   0.00000  Uiso   1.00
C714   C     0.79907   0.71840   0.38564   0.00000  Uiso   1.00
C715   C     0.82083   0.93933   0.38858   0.00000  Uiso   1.00
C716   C     0.86759   0.71840   0.11437   0.00000  Uiso   1.00
C717   C     0.83192   0.83326   0.33489   0.00000  Uiso   1.00
C718   C     0.80433   0.69179   0.22432   0.00000  Uiso   1.00
C719   C     0.86490   0.97550   0.27192   0.00000  Uiso   1.00
C720   C     0.86234   0.69179   0.27568   0.00000  Uiso   1.00
C721   C     0.80177   0.97550   0.22808   0.00000  Uiso   1.00
C722   C     0.68789   0.79259   0.25249   0.00000  Uiso   1.00
Cu723  Cu    0.83333   0.88022   0.25000   0.00000  Uiso   1.00
Cu724  Cu    0.83333   0.78645   0.25000   0.00000  Uiso   1.00
H725   H     0.72696   0.74860   0.18816   0.00000  Uiso   1.00
H726   H     0.76519   0.90652   0.16925   0.00000  Uiso   1.00
H727   H     0.77182   0.96651   0.15170   0.00000  Uiso   1.00
H728   H     0.72308   0.94483   0.16548   0.00000  Uiso   1.00
H729   H     0.80460   0.89376   0.02500   0.00000  Uiso   1.00
H730   H     0.79957   0.76353   0.46662   0.00000  Uiso   1.00
H731   H     0.86206   0.89376   0.47500   0.00000  Uiso   1.00
H732   H     0.86710   0.76353   0.03338   0.00000  Uiso   1.00
H733   H     0.84125   0.96603   0.13654   0.00000  Uiso   1.00
H734   H     0.84921   0.95633   0.07906   0.00000  Uiso   1.00
H735   H     0.87489   0.92099   0.12270   0.00000  Uiso   1.00
H736   H     0.72971   0.69888   0.22449   0.00000  Uiso   1.00
H737   H     0.83308   0.71375   0.38606   0.00000  Uiso   1.00
H738   H     0.78463   0.69743   0.35809   0.00000  Uiso   1.00
H739   H     0.78725   0.70530   0.41663   0.00000  Uiso   1.00
H740   H     0.82541   0.96603   0.36346   0.00000  Uiso   1.00
H741   H     0.81745   0.95632   0.42093   0.00000  Uiso   1.00
H742   H     0.79177   0.92099   0.37729   0.00000  Uiso   1.00
H743   H     0.83358   0.71375   0.11395   0.00000  Uiso   1.00
H744   H     0.88204   0.69743   0.14191   0.00000  Uiso   1.00
H745   H     0.87941   0.70530   0.08337   0.00000  Uiso   1.00
H746   H     0.70358   0.76005   0.25667   0.00000  Uiso   1.00
H747   H     0.72528   0.69340   0.16466   0.00000  Uiso   1.00
H748   H     0.96277   0.90880   0.24921   0.00000  Uiso   1.00
H749   H     0.96308   0.76005   0.24333   0.00000  Uiso   1.00
H750   H     0.70390   0.90880   0.25079   0.00000  Uiso   1.00
H751   H     0.90147   0.90652   0.33075   0.00000  Uiso   1.00
H752   H     0.89485   0.96651   0.34830   0.00000  Uiso   1.00
H753   H     0.94358   0.94483   0.33452   0.00000  Uiso   1.00
H754   H     0.93971   0.74860   0.31185   0.00000  Uiso   1.00
H755   H     0.93695   0.69889   0.27551   0.00000  Uiso   1.00
H756   H     0.94139   0.69339   0.33534   0.00000  Uiso   1.00
N757   N     0.83333   0.95069   0.25000   0.00000  Uiso   1.00
N758   N     0.83333   0.71598   0.25000   0.00000  Uiso   1.00
O759   O     0.77321   0.87291   0.24999   0.00000  Uiso   1.00
O760   O     0.90273   0.95445   0.28073   0.00000  Uiso   1.00
O761   O     0.88418   0.71557   0.30959   0.00000  Uiso   1.00
O762   O     0.76394   0.95445   0.21927   0.00000  Uiso   1.00
O763   O     0.81085   0.91050   0.10866   0.00000  Uiso   1.00
O764   O     0.78727   0.76450   0.37794   0.00000  Uiso   1.00
O765   O     0.85581   0.91050   0.39134   0.00000  Uiso   1.00
O766   O     0.87939   0.76450   0.12206   0.00000  Uiso   1.00
O767   O     0.89345   0.79375   0.25001   0.00000  Uiso   1.00
O768   O     0.89345   0.87291   0.25000   0.00000  Uiso   1.00
O769   O     0.77321   0.79375   0.24999   0.00000  Uiso   1.00
O770   O     0.83333   0.87293   0.18573   0.00000  Uiso   1.00
O771   O     0.83334   0.79374   0.31427   0.00000  Uiso   1.00
O772   O     0.83334   0.87293   0.31427   0.00000  Uiso   1.00
O773   O     0.83333   0.79374   0.18573   0.00000  Uiso   1.00
O774   O     0.78248   0.71557   0.19041   0.00000  Uiso   1.00
C775   C     0.08754   0.16681   0.75088   0.00000  Uiso   1.00
C776   C     0.31200   0.20937   0.74947   0.00000  Uiso   1.00
C777   C     0.31211   0.12592   0.74751   0.00000  Uiso   1.00
C778   C     0.02133   0.20937   0.75053   0.00000  Uiso   1.00
C779   C     0.15117   0.19872   0.54457   0.00000  Uiso   1.00
C780   C     0.14784   0.12476   0.95033   0.00000  Uiso   1.00
C781   C     0.18216   0.19872   0.95543   0.00000  Uiso   1.00
C782   C     0.18550   0.12476   0.54967   0.00000  Uiso   1.00
C783   C     0.15475   0.20272   0.59021   0.00000  Uiso   1.00
C784   C     0.14569   0.12740   0.90382   0.00000  Uiso   1.00
C785   C     0.17858   0.20272   0.90979   0.00000  Uiso   1.00
C786   C     0.24579   0.16681   0.74912   0.00000  Uiso   1.00
C787   C     0.18764   0.12740   0.59618   0.00000  Uiso   1.00
C788   C     0.17020   0.16573   0.61659   0.00000  Uiso   1.00
C789   C     0.16313   0.16573   0.88341   0.00000  Uiso   1.00
C790   C     0.16647   0.15998   0.52409   0.00000  Uiso   1.00
C791   C     0.16686   0.15998   0.97591   0.00000  Uiso   1.00
C792   C     0.29044   0.16742   0.74825   0.00000  Uiso   1.00
C793   C     0.04289   0.16742   0.75175   0.00000  Uiso   1.00
C794   C     0.07283   0.04665   0.69294   0.00000  Uiso   1.00
C795   C     0.24328   0.27623   0.82565   0.00000  Uiso   1.00
C796   C     0.26051   0.04665   0.80706   0.00000  Uiso   1.00
C797   C     0.16808   0.16660   0.66511   0.00000  Uiso   1.00
C798   C     0.09005   0.27623   0.67435   0.00000  Uiso   1.00
C799   C     0.17917   0.27266   0.61141   0.00000  Uiso   1.00
C800   C     0.13241   0.05173   0.88564   0.00000  Uiso   1.00
C801   C     0.15416   0.27266   0.88858   0.00000  Uiso   1.00
C802   C     0.20092   0.05173   0.61437   0.00000  Uiso   1.00
C803   C     0.16525   0.16660   0.83489   0.00000  Uiso   1.00
C804   C     0.13766   0.02513   0.72432   0.00000  Uiso   1.00
C805   C     0.19823   0.30884   0.77192   0.00000  Uiso   1.00
C806   C     0.19567   0.02513   0.77568   0.00000  Uiso   1.00
C807   C     0.13510   0.30884   0.72808   0.00000  Uiso   1.00
C808   C     0.02123   0.12592   0.75249   0.00000  Uiso   1.00
Cu809  Cu    0.16667   0.21355   0.75000   0.00000  Uiso   1.00
Cu810  Cu    0.16667   0.11978   0.75000   0.00000  Uiso   1.00
H811   H     0.06029   0.08193   0.68816   0.00000  Uiso   1.00
H812   H     0.09853   0.23985   0.66925   0.00000  Uiso   1.00
H813   H     0.10515   0.29985   0.65170   0.00000  Uiso   1.00
H814   H     0.05642   0.27817   0.66548   0.00000  Uiso   1.00
H815   H     0.13793   0.22709   0.52500   0.00000  Uiso   1.00
H816   H     0.13290   0.09687   0.96662   0.00000  Uiso   1.00
H817   H     0.19540   0.22709   0.97500   0.00000  Uiso   1.00
H818   H     0.20043   0.09687   0.53338   0.00000  Uiso   1.00
H819   H     0.17459   0.29936   0.63654   0.00000  Uiso   1.00
H820   H     0.18254   0.28966   0.57906   0.00000  Uiso   1.00
H821   H     0.20822   0.25432   0.62270   0.00000  Uiso   1.00
H822   H     0.06305   0.03222   0.72449   0.00000  Uiso   1.00
H823   H     0.16641   0.04708   0.88606   0.00000  Uiso   1.00
H824   H     0.11796   0.03076   0.85809   0.00000  Uiso   1.00
H825   H     0.12059   0.03863   0.91663   0.00000  Uiso   1.00
H826   H     0.15875   0.29936   0.86346   0.00000  Uiso   1.00
H827   H     0.15078   0.28965   0.92093   0.00000  Uiso   1.00
H828   H     0.12511   0.25432   0.87729   0.00000  Uiso   1.00
H829   H     0.16692   0.04708   0.61395   0.00000  Uiso   1.00
H830   H     0.21537   0.03076   0.64191   0.00000  Uiso   1.00
H831   H     0.21274   0.03863   0.58337   0.00000  Uiso   1.00
H832   H     0.03692   0.09338   0.75667   0.00000  Uiso   1.00
H833   H     0.05861   0.02673   0.66466   0.00000  Uiso   1.00
H834   H     0.29610   0.24213   0.74921   0.00000  Uiso   1.00
H835   H     0.29642   0.09338   0.74333   0.00000  Uiso   1.00
H836   H     0.03723   0.24213   0.75079   0.00000  Uiso   1.00
H837   H     0.23481   0.23985   0.83075   0.00000  Uiso   1.00
H838   H     0.22818   0.29985   0.84830   0.00000  Uiso   1.00
H839   H     0.27691   0.27817   0.83452   0.00000  Uiso   1.00
H840   H     0.27304   0.08194   0.81185   0.00000  Uiso   1.00
H841   H     0.27029   0.03222   0.77551   0.00000  Uiso   1.00
H842   H     0.27472   0.02673   0.83534   0.00000  Uiso   1.00
N843   N     0.16667   0.28402   0.75000   0.00000  Uiso   1.00
N844   N     0.16667   0.04931   0.75000   0.00000  Uiso   1.00
O845   O     0.10655   0.20625   0.74999   0.00000  Uiso   1.00
O846   O     0.23606   0.28778   0.78073   0.00000  Uiso   1.00
O847   O     0.21752   0.04890   0.80959   0.00000  Uiso   1.00
O848   O     0.09727   0.28779   0.71927   0.00000  Uiso   1.00
O849   O     0.14419   0.24383   0.60866   0.00000  Uiso   1.00
O850   O     0.12061   0.09783   0.87794   0.00000  Uiso   1.00
O851   O     0.18914   0.24383   0.89134   0.00000  Uiso   1.00
O852   O     0.21273   0.09783   0.62206   0.00000  Uiso   1.00
O853   O     0.22679   0.12709   0.75001   0.00000  Uiso   1.00
O854   O     0.22679   0.20625   0.75000   0.00000  Uiso   1.00
O855   O     0.10655   0.12709   0.74999   0.00000  Uiso   1.00
O856   O     0.16666   0.20626   0.68573   0.00000  Uiso   1.00
O857   O     0.16667   0.12707   0.81427   0.00000  Uiso   1.00
O858   O     0.16667   0.20626   0.81427   0.00000  Uiso   1.00
O859   O     0.16666   0.12707   0.68573   0.00000  Uiso   1.00
O860   O     0.11582   0.04890   0.69041   0.00000  Uiso   1.00
C861   C     0.42088   0.16681   0.75088   0.00000  Uiso   1.00
C862   C     0.64533   0.20937   0.74947   0.00000  Uiso   1.00
C863   C     0.64544   0.12592   0.74751   0.00000  Uiso   1.00
C864   C     0.35467   0.20937   0.75053   0.00000  Uiso   1.00
C865   C     0.48451   0.19872   0.54457   0.00000  Uiso   1.00
C866   C     0.48117   0.12476   0.95033   0.00000  Uiso   1.00
C867   C     0.51549   0.19872   0.95543   0.00000  Uiso   1.00
C868   C     0.51883   0.12476   0.54967   0.00000  Uiso   1.00
C869   C     0.48809   0.20272   0.59021   0.00000  Uiso   1.00
C870   C     0.47902   0.12740   0.90382   0.00000  Uiso   1.00
C871   C     0.51191   0.20272   0.90979   0.00000  Uiso   1.00
C872   C     0.57912   0.16681   0.74912   0.00000  Uiso   1.00
C873   C     0.52098   0.12740   0.59618   0.00000  Uiso   1.00
C874   C     0.50353   0.16573   0.61659   0.00000  Uiso   1.00
C875   C     0.49647   0.16573   0.88341   0.00000  Uiso   1.00
C876   C     0.49980   0.15998   0.52409   0.00000  Uiso   1.00
C877   C     0.50020   0.15998   0.97591   0.00000  Uiso   1.00
C878   C     0.62378   0.16742   0.74825   0.00000  Uiso   1.00
C879   C     0.37622   0.16742   0.75175   0.00000  Uiso   1.00
C880   C     0.40616   0.04665   0.69294   0.00000  Uiso   1.00
C881   C     0.57661   0.27623   0.82565   0.00000  Uiso   1.00
C882   C     0.59384   0.04665   0.80706   0.00000  Uiso   1.00
C883   C     0.50141   0.16660   0.66511   0.00000  Uiso   1.00
C884   C     0.42339   0.27623   0.67435   0.00000  Uiso   1.00
C885   C     0.51250   0.27266   0.61141   0.00000  Uiso   1.00
C886   C     0.46574   0.05173   0.88564   0.00000  Uiso   1.00
C887   C     0.48749   0.27266   0.88858   0.00000  Uiso   1.00
C888   C     0.53426   0.05173   0.61437   0.00000  Uiso   1.00
C889   C     0.49859   0.16660   0.83489   0.00000  Uiso   1.00
C890   C     0.47099   0.02513   0.72432   0.00000  Uiso   1.00
C891   C     0.53156   0.30884   0.77192   0.00000  Uiso   1.00
C892   C     0.52901   0.02513   0.77568   0.00000  Uiso   1.00
C893   C     0.46844   0.30884   0.72808   0.00000  Uiso   1.00
C894   C     0.35456   0.12592   0.75249   0.00000  Uiso   1.00
Cu895  Cu    0.50000   0.21355   0.75000   0.00000  Uiso   1.00
Cu896  Cu    0.50000   0.11978   0.75000   0.00000  Uiso   1.00
H897   H     0.39362   0.08193   0.68816   0.00000  Uiso   1.00
H898   H     0.43186   0.23985   0.66925   0.00000  Uiso   1.00
H899   H     0.43849   0.29985   0.65170   0.00000  Uiso   1.00
H900   H     0.38975   0.27817   0.66548   0.00000  Uiso   1.00
H901   H     0.47127   0.22709   0.52500   0.00000  Uiso   1.00
H902   H     0.46623   0.09687   0.96662   0.00000  Uiso   1.00
H903   H     0.52873   0.22709   0.97500   0.00000  Uiso   1.00
H904   H     0.53377   0.09687   0.53338   0.00000  Uiso   1.00
H905   H     0.50792   0.29936   0.63654   0.00000  Uiso   1.00
H906   H     0.51587   0.28966   0.57906   0.00000  Uiso   1.00
H907   H     0.54156   0.25432   0.62270   0.00000  Uiso   1.00
H908   H     0.39638   0.03222   0.72449   0.00000  Uiso   1.00
H909   H     0.49975   0.04708   0.88606   0.00000  Uiso   1.00
H910   H     0.45130   0.03076   0.85809   0.00000  Uiso   1.00
H911   H     0.45392   0.03863   0.91663   0.00000  Uiso   1.00
H912   H     0.49208   0.29936   0.86346   0.00000  Uiso   1.00
H913   H     0.48412   0.28965   0.92093   0.00000  Uiso   1.00
H914   H     0.45844   0.25432   0.87729   0.00000  Uiso   1.00
H915   H     0.50025   0.04708   0.61395   0.00000  Uiso   1.00
H916   H     0.54870   0.03076   0.64191   0.00000  Uiso   1.00
H917   H     0.54607   0.03863   0.58337   0.00000  Uiso   1.00
H918   H     0.37025   0.09338   0.75667   0.00000  Uiso   1.00
H919   H     0.39195   0.02673   0.66466   0.00000  Uiso   1.00
H920   H     0.62944   0.24213   0.74921   0.00000  Uiso   1.00
H921   H     0.62975   0.09338   0.74333   0.00000  Uiso   1.00
H922   H     0.37056   0.24213   0.75079   0.00000  Uiso   1.00
H923   H     0.56814   0.23985   0.83075   0.00000  Uiso   1.00
H924   H     0.56151   0.29985   0.84830   0.00000  Uiso   1.00
H925   H     0.61025   0.27817   0.83452   0.00000  Uiso   1.00
H926   H     0.60638   0.08194   0.81185   0.00000  Uiso   1.00
H927   H     0.60362   0.03222   0.77551   0.00000  Uiso   1.00
H928   H     0.60805   0.02673   0.83534   0.00000  Uiso   1.00
N929   N     0.50000   0.28402   0.75000   0.00000  Uiso   1.00
N930   N     0.50000   0.04931   0.75000   0.00000  Uiso   1.00
O931   O     0.43988   0.20625   0.74999   0.00000  Uiso   1.00
O932   O     0.56939   0.28778   0.78073   0.00000  Uiso   1.00
O933   O     0.55085   0.04890   0.80959   0.00000  Uiso   1.00
O934   O     0.43061   0.28779   0.71927   0.00000  Uiso   1.00
O935   O     0.47752   0.24383   0.60866   0.00000  Uiso   1.00
O936   O     0.45394   0.09783   0.87794   0.00000  Uiso   1.00
O937   O     0.52248   0.24383   0.89134   0.00000  Uiso   1.00
O938   O     0.54606   0.09783   0.62206   0.00000  Uiso   1.00
O939   O     0.56012   0.12709   0.75001   0.00000  Uiso   1.00
O940   O     0.56012   0.20625   0.75000   0.00000  Uiso   1.00
O941   O     0.43988   0.12709   0.74999   0.00000  Uiso   1.00
O942   O     0.50000   0.20626   0.68573   0.00000  Uiso   1.00
O943   O     0.50000   0.12707   0.81427   0.00000  Uiso   1.00
O944   O     0.50000   0.20626   0.81427   0.00000  Uiso   1.00
O945   O     0.50000   0.12707   0.68573   0.00000  Uiso   1.00
O946   O     0.44915   0.04890   0.69041   0.00000  Uiso   1.00
C947   C     0.75421   0.16681   0.75088   0.00000  Uiso   1.00
C948   C     0.97867   0.20937   0.74947   0.00000  Uiso   1.00
C949   C     0.97877   0.12592   0.74751   0.00000  Uiso   1.00
C950   C     0.68800   0.20937   0.75053   0.00000  Uiso   1.00
C951   C     0.81784   0.19872   0.54457   0.00000  Uiso   1.00
C952   C     0.81450   0.12476   0.95033   0.00000  Uiso   1.00
C953   C     0.84882   0.19872   0.95543   0.00000  Uiso   1.00
C954   C     0.85216   0.12476   0.54967   0.00000  Uiso   1.00
C955   C     0.82142   0.20272   0.59021   0.00000  Uiso   1.00
C956   C     0.81235   0.12740   0.90382   0.00000  Uiso   1.00
C957   C     0.84524   0.20272   0.90979   0.00000  Uiso   1.00
C958   C     0.91246   0.16681   0.74912   0.00000  Uiso   1.00
C959   C     0.85431   0.12740   0.59618   0.00000  Uiso   1.00
C960   C     0.83687   0.16573   0.61659   0.00000  Uiso   1.00
C961   C     0.82980   0.16573   0.88341   0.00000  Uiso   1.00
C962   C     0.83314   0.15998   0.52409   0.00000  Uiso   1.00
C963   C     0.83353   0.15998   0.97591   0.00000  Uiso   1.00
C964   C     0.95711   0.16742   0.74825   0.00000  Uiso   1.00
C965   C     0.70956   0.16742   0.75175   0.00000  Uiso   1.00
C966   C     0.73949   0.04665   0.69294   0.00000  Uiso   1.00
C967   C     0.90995   0.27623   0.82565   0.00000  Uiso   1.00
C968   C     0.92717   0.04665   0.80706   0.00000  Uiso   1.00
C969   C     0.83475   0.16660   0.66511   0.00000  Uiso   1.00
C970   C     0.75672   0.27623   0.67435   0.00000  Uiso   1.00
C971   C     0.84583   0.27266   0.61141   0.00000  Uiso   1.00
C972   C     0.79907   0.05173   0.88564   0.00000  Uiso   1.00
C973   C     0.82083   0.27266   0.88858   0.00000  Uiso   1.00
C974   C     0.86759   0.05173   0.61437   0.00000  Uiso   1.00
C975   C     0.83192   0.16660   0.83489   0.00000  Uiso   1.00
C976   C     0.80433   0.02513   0.72432   0.00000  Uiso   1.00
C977   C     0.86490   0.30884   0.77192   0.00000  Uiso   1.00
C978   C     0.86234   0.02513   0.77568   0.00000  Uiso   1.00
C979   C     0.80177   0.30884   0.72808   0.00000  Uiso   1.00
C980   C     0.68789   0.12592   0.75249   0.00000  Uiso   1.00
Cu981  Cu    0.83333   0.21355   0.75000   0.00000  Uiso   1.00
Cu982  Cu    0.83333   0.11978   0.75000   0.00000  Uiso   1.00
H983   H     0.72696   0.08193   0.68816   0.00000  Uiso   1.00
H984   H     0.76519   0.23985   0.66925   0.00000  Uiso   1.00
H985   H     0.77182   0.29985   0.65170   0.00000  Uiso   1.00
H986   H     0.72308   0.27817   0.66548   0.00000  Uiso   1.00
H987   H     0.80460   0.22709   0.52500   0.00000  Uiso   1.00
H988   H     0.79957   0.09687   0.96662   0.00000  Uiso   1.00
H989   H     0.86206   0.22709   0.97500   0.00000  Uiso   1.00
H990   H     0.86710   0.09687   0.53338   0.00000  Uiso   1.00
H991   H     0.84125   0.29936   0.63654   0.00000  Uiso   1.00
H992   H     0.84921   0.28966   0.57906   0.00000  Uiso   1.00
H993   H     0.87489   0.25432   0.62270   0.00000  Uiso   1.00
H994   H     0.72971   0.03222   0.72449   0.00000  Uiso   1.00
H995   H     0.83308   0.04708   0.88606   0.00000  Uiso   1.00
H996   H     0.78463   0.03076   0.85809   0.00000  Uiso   1.00
H997   H     0.78725   0.03863   0.91663   0.00000  Uiso   1.00
H998   H     0.82541   0.29936   0.86346   0.00000  Uiso   1.00
H999   H     0.81745   0.28965   0.92093   0.00000  Uiso   1.00
H1000  H     0.79177   0.25432   0.87729   0.00000  Uiso   1.00
H1001  H     0.83358   0.04708   0.61395   0.00000  Uiso   1.00
H1002  H     0.88204   0.03076   0.64191   0.00000  Uiso   1.00
H1003  H     0.87941   0.03863   0.58337   0.00000  Uiso   1.00
H1004  H     0.70358   0.09338   0.75667   0.00000  Uiso   1.00
H1005  H     0.72528   0.02673   0.66466   0.00000  Uiso   1.00
H1006  H     0.96277   0.24213   0.74921   0.00000  Uiso   1.00
H1007  H     0.96308   0.09338   0.74333   0.00000  Uiso   1.00
H1008  H     0.70390   0.24213   0.75079   0.00000  Uiso   1.00
H1009  H     0.90147   0.23985   0.83075   0.00000  Uiso   1.00
H1010  H     0.89485   0.29985   0.84830   0.00000  Uiso   1.00
H1011  H     0.94358   0.27817   0.83452   0.00000  Uiso   1.00
H1012  H     0.93971   0.08194   0.81185   0.00000  Uiso   1.00
H1013  H     0.93695   0.03222   0.77551   0.00000  Uiso   1.00
H1014  H     0.94139   0.02673   0.83534   0.00000  Uiso   1.00
N1015  N     0.83333   0.28402   0.75000   0.00000  Uiso   1.00
N1016  N     0.83333   0.04931   0.75000   0.00000  Uiso   1.00
O1017  O     0.77321   0.20625   0.74999   0.00000  Uiso   1.00
O1018  O     0.90273   0.28778   0.78073   0.00000  Uiso   1.00
O1019  O     0.88418   0.04890   0.80959   0.00000  Uiso   1.00
O1020  O     0.76394   0.28779   0.71927   0.00000  Uiso   1.00
O1021  O     0.81085   0.24383   0.60866   0.00000  Uiso   1.00
O1022  O     0.78727   0.09783   0.87794   0.00000  Uiso   1.00
O1023  O     0.85581   0.24383   0.89134   0.00000  Uiso   1.00
O1024  O     0.87939   0.09783   0.62206   0.00000  Uiso   1.00
O1025  O     0.89345   0.12709   0.75001   0.00000  Uiso   1.00
O1026  O     0.89345   0.20625   0.75000   0.00000  Uiso   1.00
O1027  O     0.77321   0.12709   0.74999   0.00000  Uiso   1.00
O1028  O     0.83333   0.20626   0.68573   0.00000  Uiso   1.00
O1029  O     0.83334   0.12707   0.81427   0.00000  Uiso   1.00
O1030  O     0.83334   0.20626   0.81427   0.00000  Uiso   1.00
O1031  O     0.83333   0.12707   0.68573   0.00000  Uiso   1.00
O1032  O     0.78248   0.04890   0.69041   0.00000  Uiso   1.00
C1033  C     0.08754   0.50014   0.75088   0.00000  Uiso   1.00
C1034  C     0.31200   0.54271   0.74947   0.00000  Uiso   1.00
C1035  C     0.31211   0.45925   0.74751   0.00000  Uiso   1.00
C1036  C     0.02133   0.54271   0.75053   0.00000  Uiso   1.00
C1037  C     0.15117   0.53205   0.54457   0.00000  Uiso   1.00
C1038  C     0.14784   0.45810   0.95033   0.00000  Uiso   1.00
C1039  C     0.18216   0.53205   0.95543   0.00000  Uiso   1.00
C1040  C     0.18550   0.45810   0.54967   0.00000  Uiso   1.00
C1041  C     0.15475   0.53605   0.59021   0.00000  Uiso   1.00
C1042  C     0.14569   0.46073   0.90382   0.00000  Uiso   1.00
C1043  C     0.17858   0.53605   0.90979   0.00000  Uiso   1.00
C1044  C     0.24579   0.50014   0.74912   0.00000  Uiso   1.00
C1045  C     0.18764   0.46073   0.59618   0.00000  Uiso   1.00
C1046  C     0.17020   0.49906   0.61659   0.00000  Uiso   1.00
C1047  C     0.16313   0.49906   0.88341   0.00000  Uiso   1.00
C1048  C     0.16647   0.49331   0.52409   0.00000  Uiso   1.00
C1049  C     0.16686   0.49331   0.97591   0.00000  Uiso   1.00
C1050  C     0.29044   0.50075   0.74825   0.00000  Uiso   1.00
C1051  C     0.04289   0.50075   0.75175   0.00000  Uiso   1.00
C1052  C     0.07283   0.37999   0.69294   0.00000  Uiso   1.00
C1053  C     0.24328   0.60956   0.82565   0.00000  Uiso   1.00
C1054  C     0.26051   0.37999   0.80706   0.00000  Uiso   1.00
C1055  C     0.16808   0.49993   0.66511   0.00000  Uiso   1.00
C1056  C     0.09005   0.60957   0.67435   0.00000  Uiso   1.00
C1057  C     0.17917   0.60600   0.61141   0.00000  Uiso   1.00
C1058  C     0.13241   0.38506   0.88564   0.00000  Uiso   1.00
C1059  C     0.15416   0.60600   0.88858   0.00000  Uiso   1.00
C1060  C     0.20092   0.38506   0.61437   0.00000  Uiso   1.00
C1061  C     0.16525   0.49993   0.83489   0.00000  Uiso   1.00
C1062  C     0.13766   0.35846   0.72432   0.00000  Uiso   1.00
C1063  C     0.19823   0.64217   0.77192   0.00000  Uiso   1.00
C1064  C     0.19567   0.35846   0.77568   0.00000  Uiso   1.00
C1065  C     0.13510   0.64217   0.72808   0.00000  Uiso   1.00
C1066  C     0.02123   0.45925   0.75249   0.00000  Uiso   1.00
Cu1067 Cu    0.16667   0.54689   0.75000   0.00000  Uiso   1.00
Cu1068 Cu    0.16667   0.45311   0.75000   0.00000  Uiso   1.00
H1069  H     0.06029   0.41527   0.68816   0.00000  Uiso   1.00
H1070  H     0.09853   0.57319   0.66925   0.00000  Uiso   1.00
H1071  H     0.10515   0.63318   0.65170   0.00000  Uiso   1.00
H1072  H     0.05642   0.61150   0.66548   0.00000  Uiso   1.00
H1073  H     0.13793   0.56043   0.52500   0.00000  Uiso   1.00
H1074  H     0.13290   0.43020   0.96662   0.00000  Uiso   1.00
H1075  H     0.19540   0.56043   0.97500   0.00000  Uiso   1.00
H1076  H     0.20043   0.43020   0.53338   0.00000  Uiso   1.00
H1077  H     0.17459   0.63269   0.63654   0.00000  Uiso   1.00
H1078  H     0.18254   0.62299   0.57906   0.00000  Uiso   1.00
H1079  H     0.20822   0.58766   0.62270   0.00000  Uiso   1.00
H1080  H     0.06305   0.36555   0.72449   0.00000  Uiso   1.00
H1081  H     0.16641   0.38042   0.88606   0.00000  Uiso   1.00
H1082  H     0.11796   0.36409   0.85809   0.00000  Uiso   1.00
H1083  H     0.12059   0.37196   0.91663   0.00000  Uiso   1.00
H1084  H     0.15875   0.63270   0.86346   0.00000  Uiso   1.00
H1085  H     0.15078   0.62299   0.92093   0.00000  Uiso   1.00
H1086  H     0.12511   0.58765   0.87729   0.00000  Uiso   1.00
H1087  H     0.16692   0.38042   0.61395   0.00000  Uiso   1.00
H1088  H     0.21537   0.36409   0.64191   0.00000  Uiso   1.00
H1089  H     0.21274   0.37196   0.58337   0.00000  Uiso   1.00
H1090  H     0.03692   0.42671   0.75667   0.00000  Uiso   1.00
H1091  H     0.05861   0.36006   0.66466   0.00000  Uiso   1.00
H1092  H     0.29610   0.57546   0.74921   0.00000  Uiso   1.00
H1093  H     0.29642   0.42671   0.74333   0.00000  Uiso   1.00
H1094  H     0.03723   0.57546   0.75079   0.00000  Uiso   1.00
H1095  H     0.23481   0.57318   0.83075   0.00000  Uiso   1.00
H1096  H     0.22818   0.63318   0.84830   0.00000  Uiso   1.00
H1097  H     0.27691   0.61150   0.83452   0.00000  Uiso   1.00
H1098  H     0.27304   0.41527   0.81185   0.00000  Uiso   1.00
H1099  H     0.27029   0.36555   0.77551   0.00000  Uiso   1.00
H1100  H     0.27472   0.36006   0.83534   0.00000  Uiso   1.00
N1101  N     0.16667   0.61736   0.75000   0.00000  Uiso   1.00
N1102  N     0.16667   0.38264   0.75000   0.00000  Uiso   1.00
O1103  O     0.10655   0.53958   0.74999   0.00000  Uiso   1.00
O1104  O     0.23606   0.62112   0.78073   0.00000  Uiso   1.00
O1105  O     0.21752   0.38223   0.80959   0.00000  Uiso   1.00
O1106  O     0.09727   0.62112   0.71927   0.00000  Uiso   1.00
O1107  O     0.14419   0.57717   0.60866   0.00000  Uiso   1.00
O1108  O     0.12061   0.43117   0.87794   0.00000  Uiso   1.00
O1109  O     0.18914   0.57717   0.89134   0.00000  Uiso   1.00
O1110  O     0.21273   0.43117   0.62206   0.00000  Uiso   1.00
O1111  O     0.22679   0.46042   0.75001   0.00000  Uiso   1.00
O1112  O     0.22679   0.53958   0.75000   0.00000  Uiso   1.00
O1113  O     0.10655   0.46042   0.74999   0.00000  Uiso   1.00
O1114  O     0.16666   0.53959   0.68573   0.00000  Uiso   1.00
O1115  O     0.16667   0.46041   0.81427   0.00000  Uiso   1.00
O1116  O     0.16667   0.53959   0.81427   0.00000  Uiso   1.00
O1117  O     0.16666   0.46041   0.68573   0.00000  Uiso   1.00
O1118  O     0.11582   0.38224   0.69041   0.00000  Uiso   1.00
C1119  C     0.42088   0.50014   0.75088   0.00000  Uiso   1.00
C1120  C     0.64533   0.54271   0.74947   0.00000  Uiso   1.00
C1121  C     0.64544   0.45925   0.74751   0.00000  Uiso   1.00
C1122  C     0.35467   0.54271   0.75053   0.00000  Uiso   1.00
C1123  C     0.48451   0.53205   0.54457   0.00000  Uiso   1.00
C1124  C     0.48117   0.45810   0.95033   0.00000  Uiso   1.00
C1125  C     0.51549   0.53205   0.95543   0.00000  Uiso   1.00
C1126  C     0.51883   0.45810   0.54967   0.00000  Uiso   1.00
C1127  C     0.48809   0.53605   0.59021   0.00000  Uiso   1.00
C1128  C     0.47902   0.46073   0.90382   0.00000  Uiso   1.00
C1129  C     0.51191   0.53605   0.90979   0.00000  Uiso   1.00
C1130  C     0.57912   0.50014   0.74912   0.00000  Uiso   1.00
C1131  C     0.52098   0.46073   0.59618   0.00000  Uiso   1.00
C1132  C     0.50353   0.49906   0.61659   0.00000  Uiso   1.00
C1133  C     0.49647   0.49906   0.88341   0.00000  Uiso   1.00
C1134  C     0.49980   0.49331   0.52409   0.00000  Uiso   1.00
C1135  C     0.50020   0.49331   0.97591   0.00000  Uiso   1.00
C1136  C     0.62378   0.50075   0.74825   0.00000  Uiso   1.00
C1137  C     0.37622   0.50075   0.75175   0.00000  Uiso   1.00
C1138  C     0.40616   0.37999   0.69294   0.00000  Uiso   1.00
C1139  C     0.57661   0.60956   0.82565   0.00000  Uiso   1.00
C1140  C     0.59384   0.37999   0.80706   0.00000  Uiso   1.00
C1141  C     0.50141   0.49993   0.66511   0.00000  Uiso   1.00
C1142  C     0.42339   0.60957   0.67435   0.00000  Uiso   1.00
C1143  C     0.51250   0.60600   0.61141   0.00000  Uiso   1.00
C1144  C     0.46574   0.38506   0.88564   0.00000  Uiso   1.00
C1145  C     0.48749   0.60600   0.88858   0.00000  Uiso   1.00
C1146  C     0.53426   0.38506   0.61437   0.00000  Uiso   1.00
C1147  C     0.49859   0.49993   0.83489   0.00000  Uiso   1.00
C1148  C     0.47099   0.35846   0.72432   0.00000  Uiso   1.00
C1149  C     0.53156   0.64217   0.77192   0.00000  Uiso   1.00
C1150  C     0.52901   0.35846   0.77568   0.00000  Uiso   1.00
C1151  C     0.46844   0.64217   0.72808   0.00000  Uiso   1.00
C1152  C     0.35456   0.45925   0.75249   0.00000  Uiso   1.00
Cu1153 Cu    0.50000   0.54689   0.75000   0.00000  Uiso   1.00
Cu1154 Cu    0.50000   0.45311   0.75000   0.00000  Uiso   1.00
H1155  H     0.39362   0.41527   0.68816   0.00000  Uiso   1.00
H1156  H     0.43186   0.57319   0.66925   0.00000  Uiso   1.00
H1157  H     0.43849   0.63318   0.65170   0.00000  Uiso   1.00
H1158  H     0.38975   0.61150   0.66548   0.00000  Uiso   1.00
H1159  H     0.47127   0.56043   0.52500   0.00000  Uiso   1.00
H1160  H     0.46623   0.43020   0.96662   0.00000  Uiso   1.00
H1161  H     0.52873   0.56043   0.97500   0.00000  Uiso   1.00
H1162  H     0.53377   0.43020   0.53338   0.00000  Uiso   1.00
H1163  H     0.50792   0.63269   0.63654   0.00000  Uiso   1.00
H1164  H     0.51587   0.62299   0.57906   0.00000  Uiso   1.00
H1165  H     0.54156   0.58766   0.62270   0.00000  Uiso   1.00
H1166  H     0.39638   0.36555   0.72449   0.00000  Uiso   1.00
H1167  H     0.49975   0.38042   0.88606   0.00000  Uiso   1.00
H1168  H     0.45130   0.36409   0.85809   0.00000  Uiso   1.00
H1169  H     0.45392   0.37196   0.91663   0.00000  Uiso   1.00
H1170  H     0.49208   0.63270   0.86346   0.00000  Uiso   1.00
H1171  H     0.48412   0.62299   0.92093   0.00000  Uiso   1.00
H1172  H     0.45844   0.58765   0.87729   0.00000  Uiso   1.00
H1173  H     0.50025   0.38042   0.61395   0.00000  Uiso   1.00
H1174  H     0.54870   0.36409   0.64191   0.00000  Uiso   1.00
H1175  H     0.54607   0.37196   0.58337   0.00000  Uiso   1.00
H1176  H     0.37025   0.42671   0.75667   0.00000  Uiso   1.00
H1177  H     0.39195   0.36006   0.66466   0.00000  Uiso   1.00
H1178  H     0.62944   0.57546   0.74921   0.00000  Uiso   1.00
H1179  H     0.62975   0.42671   0.74333   0.00000  Uiso   1.00
H1180  H     0.37056   0.57546   0.75079   0.00000  Uiso   1.00
H1181  H     0.56814   0.57318   0.83075   0.00000  Uiso   1.00
H1182  H     0.56151   0.63318   0.84830   0.00000  Uiso   1.00
H1183  H     0.61025   0.61150   0.83452   0.00000  Uiso   1.00
H1184  H     0.60638   0.41527   0.81185   0.00000  Uiso   1.00
H1185  H     0.60362   0.36555   0.77551   0.00000  Uiso   1.00
H1186  H     0.60805   0.36006   0.83534   0.00000  Uiso   1.00
N1187  N     0.50000   0.61736   0.75000   0.00000  Uiso   1.00
N1188  N     0.50000   0.38264   0.75000   0.00000  Uiso   1.00
O1189  O     0.43988   0.53958   0.74999   0.00000  Uiso   1.00
O1190  O     0.56939   0.62112   0.78073   0.00000  Uiso   1.00
O1191  O     0.55085   0.38223   0.80959   0.00000  Uiso   1.00
O1192  O     0.43061   0.62112   0.71927   0.00000  Uiso   1.00
O1193  O     0.47752   0.57717   0.60866   0.00000  Uiso   1.00
O1194  O     0.45394   0.43117   0.87794   0.00000  Uiso   1.00
O1195  O     0.52248   0.57717   0.89134   0.00000  Uiso   1.00
O1196  O     0.54606   0.43117   0.62206   0.00000  Uiso   1.00
O1197  O     0.56012   0.46042   0.75001   0.00000  Uiso   1.00
O1198  O     0.56012   0.53958   0.75000   0.00000  Uiso   1.00
O1199  O     0.43988   0.46042   0.74999   0.00000  Uiso   1.00
O1200  O     0.50000   0.53959   0.68573   0.00000  Uiso   1.00
O1201  O     0.50000   0.46041   0.81427   0.00000  Uiso   1.00
O1202  O     0.50000   0.53959   0.81427   0.00000  Uiso   1.00
O1203  O     0.50000   0.46041   0.68573   0.00000  Uiso   1.00
O1204  O     0.44915   0.38224   0.69041   0.00000  Uiso   1.00
C1205  C     0.75421   0.50014   0.75088   0.00000  Uiso   1.00
C1206  C     0.97867   0.54271   0.74947   0.00000  Uiso   1.00
C1207  C     0.97877   0.45925   0.74751   0.00000  Uiso   1.00
C1208  C     0.68800   0.54271   0.75053   0.00000  Uiso   1.00
C1209  C     0.81784   0.53205   0.54457   0.00000  Uiso   1.00
C1210  C     0.81450   0.45810   0.95033   0.00000  Uiso   1.00
C1211  C     0.84882   0.53205   0.95543   0.00000  Uiso   1.00
C1212  C     0.85216   0.45810   0.54967   0.00000  Uiso   1.00
C1213  C     0.82142   0.53605   0.59021   0.00000  Uiso   1.00
C1214  C     0.81235   0.46073   0.90382   0.00000  Uiso   1.00
C1215  C     0.84524   0.53605   0.90979   0.00000  Uiso   1.00
C1216  C     0.91246   0.50014   0.74912   0.00000  Uiso   1.00
C1217  C     0.85431   0.46073   0.59618   0.00000  Uiso   1.00
C1218  C     0.83687   0.49906   0.61659   0.00000  Uiso   1.00
C1219  C     0.82980   0.49906   0.88341   0.00000  Uiso   1.00
C1220  C     0.83314   0.49331   0.52409   0.00000  Uiso   1.00
C1221  C     0.83353   0.49331   0.97591   0.00000  Uiso   1.00
C1222  C     0.95711   0.50075   0.74825   0.00000  Uiso   1.00
C1223  C     0.70956   0.50075   0.75175   0.00000  Uiso   1.00
C1224  C     0.73949   0.37999   0.69294   0.00000  Uiso   1.00
C1225  C     0.90995   0.60956   0.82565   0.00000  Uiso   1.00
C1226  C     0.92717   0.37999   0.80706   0.00000  Uiso   1.00
C1227  C     0.83475   0.49993   0.66511   0.00000  Uiso   1.00
C1228  C     0.75672   0.60957   0.67435   0.00000  Uiso   1.00
C1229  C     0.84583   0.60600   0.61141   0.00000  Uiso   1.00
C1230  C     0.79907   0.38506   0.88564   0.00000  Uiso   1.00
C1231  C     0.82083   0.60600   0.88858   0.00000  Uiso   1.00
C1232  C     0.86759   0.38506   0.61437   0.00000  Uiso   1.00
C1233  C     0.83192   0.49993   0.83489   0.00000  Uiso   1.00
C1234  C     0.80433   0.35846   0.72432   0.00000  Uiso   1.00
C1235  C     0.86490   0.64217   0.77192   0.00000  Uiso   1.00
C1236  C     0.86234   0.35846   0.77568   0.00000  Uiso   1.00
C1237  C     0.80177   0.64217   0.72808   0.00000  Uiso   1.00
C1238  C     0.68789   0.45925   0.75249   0.00000  Uiso   1.00
Cu1239 Cu    0.83333   0.54689   0.75000   0.00000  Uiso   1.00
Cu1240 Cu    0.83333   0.45311   0.75000   0.00000  Uiso   1.00
H1241  H     0.72696   0.41527   0.68816   0.00000  Uiso   1.00
H1242  H     0.76519   0.57319   0.66925   0.00000  Uiso   1.00
H1243  H     0.77182   0.63318   0.65170   0.00000  Uiso   1.00
H1244  H     0.72308   0.61150   0.66548   0.00000  Uiso   1.00
H1245  H     0.80460   0.56043   0.52500   0.00000  Uiso   1.00
H1246  H     0.79957   0.43020   0.96662   0.00000  Uiso   1.00
H1247  H     0.86206   0.56043   0.97500   0.00000  Uiso   1.00
H1248  H     0.86710   0.43020   0.53338   0.00000  Uiso   1.00
H1249  H     0.84125   0.63269   0.63654   0.00000  Uiso   1.00
H1250  H     0.84921   0.62299   0.57906   0.00000  Uiso   1.00
H1251  H     0.87489   0.58766   0.62270   0.00000  Uiso   1.00
H1252  H     0.72971   0.36555   0.72449   0.00000  Uiso   1.00
H1253  H     0.83308   0.38042   0.88606   0.00000  Uiso   1.00
H1254  H     0.78463   0.36409   0.85809   0.00000  Uiso   1.00
H1255  H     0.78725   0.37196   0.91663   0.00000  Uiso   1.00
H1256  H     0.82541   0.63270   0.86346   0.00000  Uiso   1.00
H1257  H     0.81745   0.62299   0.92093   0.00000  Uiso   1.00
H1258  H     0.79177   0.58765   0.87729   0.00000  Uiso   1.00
H1259  H     0.83358   0.38042   0.61395   0.00000  Uiso   1.00
H1260  H     0.88204   0.36409   0.64191   0.00000  Uiso   1.00
H1261  H     0.87941   0.37196   0.58337   0.00000  Uiso   1.00
H1262  H     0.70358   0.42671   0.75667   0.00000  Uiso   1.00
H1263  H     0.72528   0.36006   0.66466   0.00000  Uiso   1.00
H1264  H     0.96277   0.57546   0.74921   0.00000  Uiso   1.00
H1265  H     0.96308   0.42671   0.74333   0.00000  Uiso   1.00
H1266  H     0.70390   0.57546   0.75079   0.00000  Uiso   1.00
H1267  H     0.90147   0.57318   0.83075   0.00000  Uiso   1.00
H1268  H     0.89485   0.63318   0.84830   0.00000  Uiso   1.00
H1269  H     0.94358   0.61150   0.83452   0.00000  Uiso   1.00
H1270  H     0.93971   0.41527   0.81185   0.00000  Uiso   1.00
H1271  H     0.93695   0.36555   0.77551   0.00000  Uiso   1.00
H1272  H     0.94139   0.36006   0.83534   0.00000  Uiso   1.00
N1273  N     0.83333   0.61736   0.75000   0.00000  Uiso   1.00
N1274  N     0.83333   0.38264   0.75000   0.00000  Uiso   1.00
O1275  O     0.77321   0.53958   0.74999   0.00000  Uiso   1.00
O1276  O     0.90273   0.62112   0.78073   0.00000  Uiso   1.00
O1277  O     0.88418   0.38223   0.80959   0.00000  Uiso   1.00
O1278  O     0.76394   0.62112   0.71927   0.00000  Uiso   1.00
O1279  O     0.81085   0.57717   0.60866   0.00000  Uiso   1.00
O1280  O     0.78727   0.43117   0.87794   0.00000  Uiso   1.00
O1281  O     0.85581   0.57717   0.89134   0.00000  Uiso   1.00
O1282  O     0.87939   0.43117   0.62206   0.00000  Uiso   1.00
O1283  O     0.89345   0.46042   0.75001   0.00000  Uiso   1.00
O1284  O     0.89345   0.53958   0.75000   0.00000  Uiso   1.00
O1285  O     0.77321   0.46042   0.74999   0.00000  Uiso   1.00
O1286  O     0.83333   0.53959   0.68573   0.00000  Uiso   1.00
O1287  O     0.83334   0.46041   0.81427   0.00000  Uiso   1.00
O1288  O     0.83334   0.53959   0.81427   0.00000  Uiso   1.00
O1289  O     0.83333   0.46041   0.68573   0.00000  Uiso   1.00
O1290  O     0.78248   0.38224   0.69041   0.00000  Uiso   1.00
C1291  C     0.08754   0.83347   0.75088   0.00000  Uiso   1.00
C1292  C     0.31200   0.87604   0.74947   0.00000  Uiso   1.00
C1293  C     0.31211   0.79259   0.74751   0.00000  Uiso   1.00
C1294  C     0.02133   0.87604   0.75053   0.00000  Uiso   1.00
C1295  C     0.15117   0.86539   0.54457   0.00000  Uiso   1.00
C1296  C     0.14784   0.79143   0.95033   0.00000  Uiso   1.00
C1297  C     0.18216   0.86539   0.95543   0.00000  Uiso   1.00
C1298  C     0.18550   0.79143   0.54967   0.00000  Uiso   1.00
C1299  C     0.15475   0.86939   0.59021   0.00000  Uiso   1.00
C1300  C     0.14569   0.79406   0.90382   0.00000  Uiso   1.00
C1301  C     0.17858   0.86939   0.90979   0.00000  Uiso   1.00
C1302  C     0.24579   0.83347   0.74912   0.00000  Uiso   1.00
C1303  C     0.18764   0.79406   0.59618   0.00000  Uiso   1.00
C1304  C     0.17020   0.83240   0.61659   0.00000  Uiso   1.00
C1305  C     0.16313   0.83240   0.88341   0.00000  Uiso   1.00
C1306  C     0.16647   0.82664   0.52409   0.00000  Uiso   1.00
C1307  C     0.16686   0.82664   0.97591   0.00000  Uiso   1.00
C1308  C     0.29044   0.83409   0.74825   0.00000  Uiso   1.00
C1309  C     0.04289   0.83409   0.75175   0.00000  Uiso   1.00
C1310  C     0.07283   0.71332   0.69294   0.00000  Uiso   1.00
C1311  C     0.24328   0.94290   0.82565   0.00000  Uiso   1.00
C1312  C     0.26051   0.71332   0.80706   0.00000  Uiso   1.00
C1313  C     0.16808   0.83326   0.66511   0.00000  Uiso   1.00
C1314  C     0.09005   0.94290   0.67435   0.00000  Uiso   1.00
C1315  C     0.17917   0.93933   0.61141   0.00000  Uiso   1.00
C1316  C     0.13241   0.71840   0.88564   0.00000  Uiso   1.00
C1317  C     0.15416   0.93933   0.88858   0.00000  Uiso   1.00
C1318  C     0.20092   0.71840   0.61437   0.00000  Uiso   1.00
C1319  C     0.16525   0.83326   0.83489   0.00000  Uiso   1.00
C1320  C     0.13766   0.69179   0.72432   0.00000  Uiso   1.00
C1321  C     0.19823   0.97550   0.77192   0.00000  Uiso   1.00
C1322  C     0.19567   0.69179   0.77568   0.00000  Uiso   1.00
C1323  C     0.13510   0.97550   0.72808   0.00000  Uiso   1.00
C1324  C     0.02123   0.79259   0.75249   0.00000  Uiso   1.00
Cu1325 Cu    0.16667   0.88022   0.75000   0.00000  Uiso   1.00
Cu1326 Cu    0.16667   0.78645   0.75000   0.00000  Uiso   1.00
H1327  H     0.06029   0.74860   0.68816   0.00000  Uiso   1.00
H1328  H     0.09853   0.90652   0.66925   0.00000  Uiso   1.00
H1329  H     0.10515   0.96651   0.65170   0.00000  Uiso   1.00
H1330  H     0.05642   0.94483   0.66548   0.00000  Uiso   1.00
H1331  H     0.13793   0.89376   0.52500   0.00000  Uiso   1.00
H1332  H     0.13290   0.76353   0.96662   0.00000  Uiso   1.00
H1333  H     0.19540   0.89376   0.97500   0.00000  Uiso   1.00
H1334  H     0.20043   0.76353   0.53338   0.00000  Uiso   1.00
H1335  H     0.17459   0.96603   0.63654   0.00000  Uiso   1.00
H1336  H     0.18254   0.95633   0.57906   0.00000  Uiso   1.00
H1337  H     0.20822   0.92099   0.62270   0.00000  Uiso   1.00
H1338  H     0.06305   0.69888   0.72449   0.00000  Uiso   1.00
H1339  H     0.16641   0.71375   0.88606   0.00000  Uiso   1.00
H1340  H     0.11796   0.69743   0.85809   0.00000  Uiso   1.00
H1341  H     0.12059   0.70530   0.91663   0.00000  Uiso   1.00
H1342  H     0.15875   0.96603   0.86346   0.00000  Uiso   1.00
H1343  H     0.15078   0.95632   0.92093   0.00000  Uiso   1.00
H1344  H     0.12511   0.92099   0.87729   0.00000  Uiso   1.00
H1345  H     0.16692   0.71375   0.61395   0.00000  Uiso   1.00
H1346  H     0.21537   0.69743   0.64191   0.00000  Uiso   1.00
H1347  H     0.21274   0.70530   0.58337   0.00000  Uiso   1.00
H1348  H     0.03692   0.76005   0.75667   0.00000  Uiso   1.00
H1349  H     0.05861   0.69340   0.66466   0.00000  Uiso   1.00
H1350  H     0.29610   0.90880   0.74921   0.00000  Uiso   1.00
H1351  H     0.29642   0.76005   0.74333   0.00000  Uiso   1.00
H1352  H     0.03723   0.90880   0.75079   0.00000  Uiso   1.00
H1353  H     0.23481   0.90652   0.83075   0.00000  Uiso   1.00
H1354  H     0.22818   0.96651   0.84830   0.00000  Uiso   1.00
H1355  H     0.27691   0.94483   0.83452   0.00000  Uiso   1.00
H1356  H     0.27304   0.74860   0.81185   0.00000  Uiso   1.00
H1357  H     0.27029   0.69889   0.77551   0.00000  Uiso   1.00
H1358  H     0.27472   0.69339   0.83534   0.00000  Uiso   1.00
N1359  N     0.16667   0.95069   0.75000   0.00000  Uiso   1.00
N1360  N     0.16667   0.71598   0.75000   0.00000  Uiso   1.00
O1361  O     0.10655   0.87291   0.74999   0.00000  Uiso   1.00
O1362  O     0.23606   0.95445   0.78073   0.00000  Uiso   1.00
O1363  O     0.21752   0.71557   0.80959   0.00000  Uiso   1.00
O1364  O     0.09727   0.95445   0.71927   0.00000  Uiso   1.00
O1365  O     0.14419   0.91050   0.60866   0.00000  Uiso   1.00
O1366  O     0.12061   0.76450   0.87794   0.00000  Uiso   1.00
O1367  O     0.18914   0.91050   0.89134   0.00000  Uiso   1.00
O1368  O     0.21273   0.76450   0.62206   0.00000  Uiso   1.00
O1369  O     0.22679   0.79375   0.75001   0.00000  Uiso   1.00
O1370  O     0.22679   0.87291   0.75000   0.00000  Uiso   1.00
O1371  O     0.10655   0.79375   0.74999   0.00000  Uiso   1.00
O1372  O     0.16666   0.87293   0.68573   0.00000  Uiso   1.00
O1373  O     0.16667   0.79374   0.81427   0.00000  Uiso   1.00
O1374  O     0.16667   0.87293   0.81427   0.00000  Uiso   1.00
O1375  O     0.16666   0.79374   0.68573   0.00000  Uiso   1.00
O1376  O     0.11582   0.71557   0.69041   0.00000  Uiso   1.00
C1377  C     0.42088   0.83347   0.75088   0.00000  Uiso   1.00
C1378  C     0.64533   0.87604   0.74947   0.00000  Uiso   1.00
C1379  C     0.64544   0.79259   0.74751   0.00000  Uiso   1.00
C1380  C     0.35467   0.87604   0.75053   0.00000  Uiso   1.00
C1381  C     0.48451   0.86539   0.54457   0.00000  Uiso   1.00
C1382  C     0.48117   0.79143   0.95033   0.00000  Uiso   1.00
C1383  C     0.51549   0.86539   0.95543   0.00000  Uiso   1.00
C1384  C     0.51883   0.79143   0.54967   0.00000  Uiso   1.00
C1385  C     0.48809   0.86939   0.59021   0.00000  Uiso   1.00
C1386  C     0.47902   0.79406   0.90382   0.00000  Uiso   1.00
C1387  C     0.51191   0.86939   0.90979   0.00000  Uiso   1.00
C1388  C     0.57912   0.83347   0.74912   0.00000  Uiso   1.00
C1389  C     0.52098   0.79406   0.59618   0.00000  Uiso   1.00
C1390  C     0.50353   0.83240   0.61659   0.00000  Uiso   1.00
C1391  C     0.49647   0.83240   0.88341   0.00000  Uiso   1.00
C1392  C     0.49980   0.82664   0.52409   0.00000  Uiso   1.00
C1393  C     0.50020   0.82664   0.97591   0.00000  Uiso   1.00
C1394  C     0.62378   0.83409   0.74825   0.00000  Uiso   1.00
C1395  C     0.37622   0.83409   0.75175   0.00000  Uiso   1.00
C1396  C     0.40616   0.71332   0.69294   0.00000  Uiso   1.00
C1397  C     0.57661   0.94290   0.82565   0.00000  Uiso   1.00
C1398  C     0.59384   0.71332   0.80706   0.00000  Uiso   1.00
C1399  C     0.50141   0.83326   0.66511   0.00000  Uiso   1.00
C1400  C     0.42339   0.94290   0.67435   0.00000  Uiso   1.00
C1401  C     0.51250   0.93933   0.61141   0.00000  Uiso   1.00
C1402  C     0.46574   0.71840   0.88564   0.00000  Uiso   1.00
C1403  C     0.48749   0.93933   0.88858   0.00000  Uiso   1.00
C1404  C     0.53426   0.71840   0.61437   0.00000  Uiso   1.00
C1405  C     0.49859   0.83326   0.83489   0.00000  Uiso   1.00
C1406  C     0.47099   0.69179   0.72432   0.00000  Uiso   1.00
C1407  C     0.53156   0.97550   0.77192   0.00000  Uiso   1.00
C1408  C     0.52901   0.69179   0.77568   0.00000  Uiso   1.00
C1409  C     0.46844   0.97550   0.72808   0.00000  Uiso   1.00
C1410  C     0.35456   0.79259   0.75249   0.00000  Uiso   1.00
Cu1411 Cu    0.50000   0.88022   0.75000   0.00000  Uiso   1.00
Cu1412 Cu    0.50000   0.78645   0.75000   0.00000  Uiso   1.00
H1413  H     0.39362   0.74860   0.68816   0.00000  Uiso   1.00
H1414  H     0.43186   0.90652   0.66925   0.00000  Uiso   1.00
H1415  H     0.43849   0.96651   0.65170   0.00000  Uiso   1.00
H1416  H     0.38975   0.94483   0.66548   0.00000  Uiso   1.00
H1417  H     0.47127   0.89376   0.52500   0.00000  Uiso   1.00
H1418  H     0.46623   0.76353   0.96662   0.00000  Uiso   1.00
H1419  H     0.52873   0.89376   0.97500   0.00000  Uiso   1.00
H1420  H     0.53377   0.76353   0.53338   0.00000  Uiso   1.00
H1421  H     0.50792   0.96603   0.63654   0.00000  Uiso   1.00
H1422  H     0.51587   0.95633   0.57906   0.00000  Uiso   1.00
H1423  H     0.54156   0.92099   0.62270   0.00000  Uiso   1.00
H1424  H     0.39638   0.69888   0.72449   0.00000  Uiso   1.00
H1425  H     0.49975   0.71375   0.88606   0.00000  Uiso   1.00
H1426  H     0.45130   0.69743   0.85809   0.00000  Uiso   1.00
H1427  H     0.45392   0.70530   0.91663   0.00000  Uiso   1.00
H1428  H     0.49208   0.96603   0.86346   0.00000  Uiso   1.00
H1429  H     0.48412   0.95632   0.92093   0.00000  Uiso   1.00
H1430  H     0.45844   0.92099   0.87729   0.00000  Uiso   1.00
H1431  H     0.50025   0.71375   0.61395   0.00000  Uiso   1.00
H1432  H     0.54870   0.69743   0.64191   0.00000  Uiso   1.00
H1433  H     0.54607   0.70530   0.58337   0.00000  Uiso   1.00
H1434  H     0.37025   0.76005   0.75667   0.00000  Uiso   1.00
H1435  H     0.39195   0.69340   0.66466   0.00000  Uiso   1.00
H1436  H     0.62944   0.90880   0.74921   0.00000  Uiso   1.00
H1437  H     0.62975   0.76005   0.74333   0.00000  Uiso   1.00
H1438  H     0.37056   0.90880   0.75079   0.00000  Uiso   1.00
H1439  H     0.56814   0.90652   0.83075   0.00000  Uiso   1.00
H1440  H     0.56151   0.96651   0.84830   0.00000  Uiso   1.00
H1441  H     0.61025   0.94483   0.83452   0.00000  Uiso   1.00
H1442  H     0.60638   0.74860   0.81185   0.00000  Uiso   1.00
H1443  H     0.60362   0.69889   0.77551   0.00000  Uiso   1.00
H1444  H     0.60805   0.69339   0.83534   0.00000  Uiso   1.00
N1445  N     0.50000   0.95069   0.75000   0.00000  Uiso   1.00
N1446  N     0.50000   0.71598   0.75000   0.00000  Uiso   1.00
O1447  O     0.43988   0.87291   0.74999   0.00000  Uiso   1.00
O1448  O     0.56939   0.95445   0.78073   0.00000  Uiso   1.00
O1449  O     0.55085   0.71557   0.80959   0.00000  Uiso   1.00
O1450  O     0.43061   0.95445   0.71927   0.00000  Uiso   1.00
O1451  O     0.47752   0.91050   0.60866   0.00000  Uiso   1.00
O1452  O     0.45394   0.76450   0.87794   0.00000  Uiso   1.00
O1453  O     0.52248   0.91050   0.89134   0.00000  Uiso   1.00
O1454  O     0.54606   0.76450   0.62206   0.00000  Uiso   1.00
O1455  O     0.56012   0.79375   0.75001   0.00000  Uiso   1.00
O1456  O     0.56012   0.87291   0.75000   0.00000  Uiso   1.00
O1457  O     0.43988   0.79375   0.74999   0.00000  Uiso   1.00
O1458  O     0.50000   0.87293   0.68573   0.00000  Uiso   1.00
O1459  O     0.50000   0.79374   0.81427   0.00000  Uiso   1.00
O1460  O     0.50000   0.87293   0.81427   0.00000  Uiso   1.00
O1461  O     0.50000   0.79374   0.68573   0.00000  Uiso   1.00
O1462  O     0.44915   0.71557   0.69041   0.00000  Uiso   1.00
C1463  C     0.75421   0.83347   0.75088   0.00000  Uiso   1.00
C1464  C     0.97867   0.87604   0.74947   0.00000  Uiso   1.00
C1465  C     0.97877   0.79259   0.74751   0.00000  Uiso   1.00
C1466  C     0.68800   0.87604   0.75053   0.00000  Uiso   1.00
C1467  C     0.81784   0.86539   0.54457   0.00000  Uiso   1.00
C1468  C     0.81450   0.79143   0.95033   0.00000  Uiso   1.00
C1469  C     0.84882   0.86539   0.95543   0.00000  Uiso   1.00
C1470  C     0.85216   0.79143   0.54967   0.00000  Uiso   1.00
C1471  C     0.82142   0.86939   0.59021   0.00000  Uiso   1.00
C1472  C     0.81235   0.79406   0.90382   0.00000  Uiso   1.00
C1473  C     0.84524   0.86939   0.90979   0.00000  Uiso   1.00
C1474  C     0.91246   0.83347   0.74912   0.00000  Uiso   1.00
C1475  C     0.85431   0.79406   0.59618   0.00000  Uiso   1.00
C1476  C     0.83687   0.83240   0.61659   0.00000  Uiso   1.00
C1477  C     0.82980   0.83240   0.88341   0.00000  Uiso   1.00
C1478  C     0.83314   0.82664   0.52409   0.00000  Uiso   1.00
C1479  C     0.83353   0.82664   0.97591   0.00000  Uiso   1.00
C1480  C     0.95711   0.83409   0.74825   0.00000  Uiso   1.00
C1481  C     0.70956   0.83409   0.75175   0.00000  Uiso   1.00
C1482  C     0.73949   0.71332   0.69294   0.00000  Uiso   1.00
C1483  C     0.90995   0.94290   0.82565   0.00000  Uiso   1.00
C1484  C     0.92717   0.71332   0.80706   0.00000  Uiso   1.00
C1485  C     0.83475   0.83326   0.66511   0.00000  Uiso   1.00
C1486  C     0.75672   0.94290   0.67435   0.00000  Uiso   1.00
C1487  C     0.84583   0.93933   0.61141   0.00000  Uiso   1.00
C1488  C     0.79907   0.71840   0.88564   0.00000  Uiso   1.00
C1489  C     0.82083   0.93933   0.88858   0.00000  Uiso   1.00
C1490  C     0.86759   0.71840   0.61437   0.00000  Uiso   1.00
C1491  C     0.83192   0.83326   0.83489   0.00000  Uiso   1.00
C1492  C     0.80433   0.69179   0.72432   0.00000  Uiso   1.00
C1493  C     0.86490   0.97550   0.77192   0.00000  Uiso   1.00
C1494  C     0.86234   0.69179   0.77568   0.00000  Uiso   1.00
C1495  C     0.80177   0.97550   0.72808   0.00000  Uiso   1.00
C1496  C     0.68789   0.79259   0.75249   0.00000  Uiso   1.00
Cu1497 Cu    0.83333   0.88022   0.75000   0.00000  Uiso   1.00
Cu1498 Cu    0.83333   0.78645   0.75000   0.00000  Uiso   1.00
H1499  H     0.72696   0.74860   0.68816   0.00000  Uiso   1.00
H1500  H     0.76519   0.90652   0.66925   0.00000  Uiso   1.00
H1501  H     0.77182   0.96651   0.65170   0.00000  Uiso   1.00
H1502  H     0.72308   0.94483   0.66548   0.00000  Uiso   1.00
H1503  H     0.80460   0.89376   0.52500   0.00000  Uiso   1.00
H1504  H     0.79957   0.76353   0.96662   0.00000  Uiso   1.00
H1505  H     0.86206   0.89376   0.97500   0.00000  Uiso   1.00
H1506  H     0.86710   0.76353   0.53338   0.00000  Uiso   1.00
H1507  H     0.84125   0.96603   0.63654   0.00000  Uiso   1.00
H1508  H     0.84921   0.95633   0.57906   0.00000  Uiso   1.00
H1509  H     0.87489   0.92099   0.62270   0.00000  Uiso   1.00
H1510  H     0.72971   0.69888   0.72449   0.00000  Uiso   1.00
H1511  H     0.83308   0.71375   0.88606   0.00000  Uiso   1.00
H1512  H     0.78463   0.69743   0.85809   0.00000  Uiso   1.00
H1513  H     0.78725   0.70530   0.91663   0.00000  Uiso   1.00
H1514  H     0.82541   0.96603   0.86346   0.00000  Uiso   1.00
H1515  H     0.81745   0.95632   0.92093   0.00000  Uiso   1.00
H1516  H     0.79177   0.92099   0.87729   0.00000  Uiso   1.00
H1517  H     0.83358   0.71375   0.61395   0.00000  Uiso   1.00
H1518  H     0.88204   0.69743   0.64191   0.00000  Uiso   1.00
H1519  H     0.87941   0.70530   0.58337   0.00000  Uiso   1.00
H1520  H     0.70358   0.76005   0.75667   0.00000  Uiso   1.00
H1521  H     0.72528   0.69340   0.66466   0.00000  Uiso   1.00
H1522  H     0.96277   0.90880   0.74921   0.00000  Uiso   1.00
H1523  H     0.96308   0.76005   0.74333   0.00000  Uiso   1.00
H1524  H     0.70390   0.90880   0.75079   0.00000  Uiso   1.00
H1525  H     0.90147   0.90652   0.83075   0.00000  Uiso   1.00
H1526  H     0.89485   0.96651   0.84830   0.00000  Uiso   1.00
H1527  H     0.94358   0.94483   0.83452   0.00000  Uiso   1.00
H1528  H     0.93971   0.74860   0.81185   0.00000  Uiso   1.00
H1529  H     0.93695   0.69889   0.77551   0.00000  Uiso   1.00
H1530  H     0.94139   0.69339   0.83534   0.00000  Uiso   1.00
N1531  N     0.83333   0.95069   0.75000   0.00000  Uiso   1.00
N1532  N     0.83333   0.71598   0.75000   0.00000  Uiso   1.00
O1533  O     0.77321   0.87291   0.74999   0.00000  Uiso   1.00
O1534  O     0.90273   0.95445   0.78073   0.00000  Uiso   1.00
O1535  O     0.88418   0.71557   0.80959   0.00000  Uiso   1.00
O1536  O     0.76394   0.95445   0.71927   0.00000  Uiso   1.00
O1537  O     0.81085   0.91050   0.60866   0.00000  Uiso   1.00
O1538  O     0.78727   0.76450   0.87794   0.00000  Uiso   1.00
O1539  O     0.85581   0.91050   0.89134   0.00000  Uiso   1.00
O1540  O     0.87939   0.76450   0.62206   0.00000  Uiso   1.00
O1541  O     0.89345   0.79375   0.75001   0.00000  Uiso   1.00
O1542  O     0.89345   0.87291   0.75000   0.00000  Uiso   1.00
O1543  O     0.77321   0.79375   0.74999   0.00000  Uiso   1.00
O1544  O     0.83333   0.87293   0.68573   0.00000  Uiso   1.00
O1545  O     0.83334   0.79374   0.81427   0.00000  Uiso   1.00
O1546  O     0.83334   0.87293   0.81427   0.00000  Uiso   1.00
O1547  O     0.83333   0.79374   0.68573   0.00000  Uiso   1.00
O1548  O     0.78248   0.71557   0.69041   0.00000  Uiso   1.00
loop_
_geom_bond_atom_site_label_1
_geom_bond_atom_site_label_2
_geom_bond_distance
_geom_bond_site_symmetry_2
_ccdc_geom_bond_type
C1     O71     1.301   .     A
C1     O81     1.308   .     A
C1     C19     1.457   .     S
C2     C18     1.403   .     A
C2     H60     1.081   .     S
C2     C90     1.387   .     S
C3     C18     1.395   .     A
C3     H61     1.075   .     S
C3     C120    1.379   .     S
C4     H62     1.081   .     S
C4     C19     1.403   .     A
C4     C174    1.387   1_455 S
C5     C16     1.394   .     A
C5     C9      1.386   .     A
C5     H41     1.084   .     S
C6     H42     1.082   .     S
C6     C17     1.398   .     A
C6     C10     1.410   .     A
C7     C11     1.386   .     A
C7     H43     1.084   .     S
C7     C17     1.394   .     A
C8     C13     1.410   .     A
C8     C16     1.398   .     A
C8     H44     1.082   .     S
C9     C14     1.408   .     A
C9     O75     1.371   .     S
C10    C15     1.412   .     A
C10    O76     1.386   .     S
C11    O77     1.371   .     S
C11    C15     1.408   .     A
C12    O79     1.308   .     A
C12    O80     1.301   .     A
C12    C18     1.457   .     S
C13    C14     1.412   .     A
C13    O78     1.386   .     S
C14    C23     1.479   .     S
C15    C29     1.479   .     S
C16    C791    1.463   1_554 S
C17    C790    1.463   .     S
C19    C34     1.395   .     A
C20    O86     1.409   .     S
C20    H59     1.106   .     S
C20    H48     1.113   .     S
C20    H37     1.106   .     S
C21    H64     1.111   .     S
C21    O72     1.406   .     S
C21    H65     1.109   .     S
C21    H63     1.104   .     S
C22    H66     1.106   .     S
C22    H68     1.106   .     S
C22    H67     1.113   .     S
C22    O73     1.409   .     S
C23    O82     1.311   .     A
C23    O85     1.308   .     A
C24    H39     1.111   .     S
C24    H38     1.104   .     S
C24    O74     1.406   .     S
C24    H40     1.109   .     S
C25    H47     1.116   .     S
C25    O75     1.410   .     S
C25    H45     1.104   .     S
C25    H46     1.111   .     S
C26    H50     1.109   .     S
C26    O76     1.405   .     S
C26    H49     1.115   .     S
C26    H51     1.110   .     S
C27    H54     1.116   .     S
C27    H52     1.104   .     S
C27    O77     1.410   .     S
C27    H53     1.111   .     S
C28    H56     1.109   .     S
C28    H57     1.110   .     S
C28    O78     1.405   .     S
C28    H55     1.115   .     S
C29    O83     1.308   .     A
C29    O84     1.311   .     A
C30    O86     1.389   .     S
C30    N70     1.370   .     A
C30    C549    1.446   1_545 S
C31    O72     1.382   .     S
C31    N69     1.383   .     A
C31    C290    1.446   .     S
C32    O73     1.389   .     S
C32    N70     1.370   .     A
C32    C547    1.446   1_545 S
C33    N69     1.383   .     A
C33    O74     1.382   .     S
C33    C288    1.446   .     S
C34    H58     1.075   .     S
C34    C175    1.379   1_455 S
Cu35   Cu36    2.718   .     S
Cu35   O80     1.969   .     S
Cu35   O82     1.962   .     S
Cu35   O71     1.969   .     S
Cu35   O84     1.962   .     S
Cu35   N69     2.042   .     S
Cu36   O83     1.962   .     S
Cu36   N70     2.042   .     S
Cu36   O79     1.969   .     S
Cu36   O81     1.969   .     S
Cu36   O85     1.962   .     S
C87    O157    1.301   .     A
C87    O167    1.308   .     A
C87    C105    1.457   .     S
C88    C104    1.403   .     A
C88    H146    1.081   .     S
C88    C176    1.387   .     S
C89    C104    1.395   .     A
C89    H147    1.075   .     S
C89    C206    1.379   .     S
C90    H148    1.081   .     S
C90    C105    1.403   .     A
C91    C102    1.394   .     A
C91    C95     1.386   .     A
C91    H127    1.084   .     S
C92    H128    1.082   .     S
C92    C103    1.398   .     A
C92    C96     1.410   .     A
C93    C97     1.386   .     A
C93    H129    1.084   .     S
C93    C103    1.394   .     A
C94    C99     1.410   .     A
C94    C102    1.398   .     A
C94    H130    1.082   .     S
C95    C100    1.408   .     A
C95    O161    1.371   .     S
C96    C101    1.412   .     A
C96    O162    1.386   .     S
C97    O163    1.371   .     S
C97    C101    1.408   .     A
C98    O165    1.308   .     A
C98    O166    1.301   .     A
C98    C104    1.457   .     S
C99    C100    1.412   .     A
C99    O164    1.386   .     S
C100   C109    1.479   .     S
C101   C115    1.479   .     S
C102   C877    1.463   1_554 S
C103   C876    1.463   .     S
C105   C120    1.395   .     A
C106   O172    1.409   .     S
C106   H145    1.106   .     S
C106   H134    1.113   .     S
C106   H123    1.106   .     S
C107   H150    1.111   .     S
C107   O158    1.406   .     S
C107   H151    1.109   .     S
C107   H149    1.104   .     S
C108   H152    1.106   .     S
C108   H154    1.106   .     S
C108   H153    1.113   .     S
C108   O159    1.409   .     S
C109   O168    1.311   .     A
C109   O171    1.308   .     A
C110   H125    1.111   .     S
C110   H124    1.104   .     S
C110   O160    1.406   .     S
C110   H126    1.109   .     S
C111   H133    1.116   .     S
C111   O161    1.410   .     S
C111   H131    1.104   .     S
C111   H132    1.111   .     S
C112   H136    1.109   .     S
C112   O162    1.405   .     S
C112   H135    1.115   .     S
C112   H137    1.110   .     S
C113   H140    1.116   .     S
C113   H138    1.104   .     S
C113   O163    1.410   .     S
C113   H139    1.111   .     S
C114   H142    1.109   .     S
C114   H143    1.110   .     S
C114   O164    1.405   .     S
C114   H141    1.115   .     S
C115   O169    1.308   .     A
C115   O170    1.311   .     A
C116   O172    1.389   .     S
C116   N156    1.370   .     A
C116   C635    1.446   1_545 S
C117   O158    1.382   .     S
C117   N155    1.383   .     A
C117   C376    1.446   .     S
C118   O159    1.389   .     S
C118   N156    1.370   .     A
C118   C633    1.446   1_545 S
C119   N155    1.383   .     A
C119   O160    1.382   .     S
C119   C374    1.446   .     S
C120   H144    1.075   .     S
Cu121  Cu122   2.718   .     S
Cu121  O166    1.969   .     S
Cu121  O168    1.962   .     S
Cu121  O157    1.969   .     S
Cu121  O170    1.962   .     S
Cu121  N155    2.042   .     S
Cu122  O169    1.962   .     S
Cu122  N156    2.042   .     S
Cu122  O165    1.969   .     S
Cu122  O167    1.969   .     S
Cu122  O171    1.962   .     S
C173   O243    1.301   .     A
C173   O253    1.308   .     A
C173   C191    1.457   .     S
C174   C190    1.403   .     A
C174   H232    1.081   .     S
C174   C4      1.387   1_655 S
C175   C190    1.395   .     A
C175   H233    1.075   .     S
C175   C34     1.379   1_655 S
C176   H234    1.081   .     S
C176   C191    1.403   .     A
C177   C188    1.394   .     A
C177   C181    1.386   .     A
C177   H213    1.084   .     S
C178   H214    1.082   .     S
C178   C189    1.398   .     A
C178   C182    1.410   .     A
C179   C183    1.386   .     A
C179   H215    1.084   .     S
C179   C189    1.394   .     A
C180   C185    1.410   .     A
C180   C188    1.398   .     A
C180   H216    1.082   .     S
C181   C186    1.408   .     A
C181   O247    1.371   .     S
C182   C187    1.412   .     A
C182   O248    1.386   .     S
C183   O249    1.371   .     S
C183   C187    1.408   .     A
C184   O251    1.308   .     A
C184   O252    1.301   .     A
C184   C190    1.457   .     S
C185   C186    1.412   .     A
C185   O250    1.386   .     S
C186   C195    1.479   .     S
C187   C201    1.479   .     S
C188   C963    1.463   1_554 S
C189   C962    1.463   .     S
C191   C206    1.395   .     A
C192   O258    1.409   .     S
C192   H231    1.106   .     S
C192   H220    1.113   .     S
C192   H209    1.106   .     S
C193   H236    1.111   .     S
C193   O244    1.406   .     S
C193   H237    1.109   .     S
C193   H235    1.104   .     S
C194   H238    1.106   .     S
C194   H240    1.106   .     S
C194   H239    1.113   .     S
C194   O245    1.409   .     S
C195   O254    1.311   .     A
C195   O257    1.308   .     A
C196   H211    1.111   .     S
C196   H210    1.104   .     S
C196   O246    1.406   .     S
C196   H212    1.109   .     S
C197   H219    1.116   .     S
C197   O247    1.410   .     S
C197   H217    1.104   .     S
C197   H218    1.111   .     S
C198   H222    1.109   .     S
C198   O248    1.405   .     S
C198   H221    1.115   .     S
C198   H223    1.110   .     S
C199   H226    1.116   .     S
C199   H224    1.104   .     S
C199   O249    1.410   .     S
C199   H225    1.111   .     S
C200   H228    1.109   .     S
C200   H229    1.110   .     S
C200   O250    1.405   .     S
C200   H227    1.115   .     S
C201   O255    1.308   .     A
C201   O256    1.311   .     A
C202   O258    1.389   .     S
C202   N242    1.370   .     A
C202   C721    1.446   1_545 S
C203   O244    1.382   .     S
C203   N241    1.383   .     A
C203   C462    1.446   .     S
C204   O245    1.389   .     S
C204   N242    1.370   .     A
C204   C719    1.446   1_545 S
C205   N241    1.383   .     A
C205   O246    1.382   .     S
C205   C460    1.446   .     S
C206   H230    1.075   .     S
Cu207  Cu208   2.718   .     S
Cu207  O252    1.969   .     S
Cu207  O254    1.962   .     S
Cu207  O243    1.969   .     S
Cu207  O256    1.962   .     S
Cu207  N241    2.042   .     S
Cu208  O255    1.962   .     S
Cu208  N242    2.042   .     S
Cu208  O251    1.969   .     S
Cu208  O253    1.969   .     S
Cu208  O257    1.962   .     S
C259   O329    1.301   .     A
C259   O339    1.308   .     A
C259   C277    1.457   .     S
C260   C276    1.403   .     A
C260   H318    1.081   .     S
C260   C348    1.387   .     S
C261   C276    1.395   .     A
C261   H319    1.075   .     S
C261   C378    1.379   .     S
C262   H320    1.081   .     S
C262   C277    1.403   .     A
C262   C432    1.387   1_455 S
C263   C274    1.394   .     A
C263   C267    1.386   .     A
C263   H299    1.084   .     S
C264   H300    1.082   .     S
C264   C275    1.398   .     A
C264   C268    1.410   .     A
C265   C269    1.386   .     A
C265   H301    1.084   .     S
C265   C275    1.394   .     A
C266   C271    1.410   .     A
C266   C274    1.398   .     A
C266   H302    1.082   .     S
C267   C272    1.408   .     A
C267   O333    1.371   .     S
C268   C273    1.412   .     A
C268   O334    1.386   .     S
C269   O335    1.371   .     S
C269   C273    1.408   .     A
C270   O337    1.308   .     A
C270   O338    1.301   .     A
C270   C276    1.457   .     S
C271   C272    1.412   .     A
C271   O336    1.386   .     S
C272   C281    1.479   .     S
C273   C287    1.479   .     S
C274   C1049   1.463   1_554 S
C275   C1048   1.463   .     S
C277   C292    1.395   .     A
C278   O344    1.409   .     S
C278   H317    1.106   .     S
C278   H306    1.113   .     S
C278   H295    1.106   .     S
C279   H322    1.111   .     S
C279   O330    1.406   .     S
C279   H323    1.109   .     S
C279   H321    1.104   .     S
C280   H324    1.106   .     S
C280   H326    1.106   .     S
C280   H325    1.113   .     S
C280   O331    1.409   .     S
C281   O340    1.311   .     A
C281   O343    1.308   .     A
C282   H297    1.111   .     S
C282   H296    1.104   .     S
C282   O332    1.406   .     S
C282   H298    1.109   .     S
C283   H305    1.116   .     S
C283   O333    1.410   .     S
C283   H303    1.104   .     S
C283   H304    1.111   .     S
C284   H308    1.109   .     S
C284   O334    1.405   .     S
C284   H307    1.115   .     S
C284   H309    1.110   .     S
C285   H312    1.116   .     S
C285   H310    1.104   .     S
C285   O335    1.410   .     S
C285   H311    1.111   .     S
C286   H314    1.109   .     S
C286   H315    1.110   .     S
C286   O336    1.405   .     S
C286   H313    1.115   .     S
C287   O341    1.308   .     A
C287   O342    1.311   .     A
C288   O344    1.389   .     S
C288   N328    1.370   .     A
C289   O330    1.382   .     S
C289   N327    1.383   .     A
C289   C548    1.446   .     S
C290   O331    1.389   .     S
C290   N328    1.370   .     A
C291   N327    1.383   .     A
C291   O332    1.382   .     S
C291   C546    1.446   .     S
C292   H316    1.075   .     S
C292   C433    1.379   1_455 S
Cu293  Cu294   2.718   .     S
Cu293  O338    1.969   .     S
Cu293  O340    1.962   .     S
Cu293  O329    1.969   .     S
Cu293  O342    1.962   .     S
Cu293  N327    2.042   .     S
Cu294  O341    1.962   .     S
Cu294  N328    2.042   .     S
Cu294  O337    1.969   .     S
Cu294  O339    1.969   .     S
Cu294  O343    1.962   .     S
C345   O415    1.301   .     A
C345   O425    1.308   .     A
C345   C363    1.457   .     S
C346   C362    1.403   .     A
C346   H404    1.081   .     S
C346   C434    1.387   .     S
C347   C362    1.395   .     A
C347   H405    1.075   .     S
C347   C464    1.379   .     S
C348   H406    1.081   .     S
C348   C363    1.403   .     A
C349   C360    1.394   .     A
C349   C353    1.386   .     A
C349   H385    1.084   .     S
C350   H386    1.082   .     S
C350   C361    1.398   .     A
C350   C354    1.410   .     A
C351   C355    1.386   .     A
C351   H387    1.084   .     S
C351   C361    1.394   .     A
C352   C357    1.410   .     A
C352   C360    1.398   .     A
C352   H388    1.082   .     S
C353   C358    1.408   .     A
C353   O419    1.371   .     S
C354   C359    1.412   .     A
C354   O420    1.386   .     S
C355   O421    1.371   .     S
C355   C359    1.408   .     A
C356   O423    1.308   .     A
C356   O424    1.301   .     A
C356   C362    1.457   .     S
C357   C358    1.412   .     A
C357   O422    1.386   .     S
C358   C367    1.479   .     S
C359   C373    1.479   .     S
C360   C1135   1.463   1_554 S
C361   C1134   1.463   .     S
C363   C378    1.395   .     A
C364   O430    1.409   .     S
C364   H403    1.106   .     S
C364   H392    1.113   .     S
C364   H381    1.106   .     S
C365   H408    1.111   .     S
C365   O416    1.406   .     S
C365   H409    1.109   .     S
C365   H407    1.104   .     S
C366   H410    1.106   .     S
C366   H412    1.106   .     S
C366   H411    1.113   .     S
C366   O417    1.409   .     S
C367   O426    1.311   .     A
C367   O429    1.308   .     A
C368   H383    1.111   .     S
C368   H382    1.104   .     S
C368   O418    1.406   .     S
C368   H384    1.109   .     S
C369   H391    1.116   .     S
C369   O419    1.410   .     S
C369   H389    1.104   .     S
C369   H390    1.111   .     S
C370   H394    1.109   .     S
C370   O420    1.405   .     S
C370   H393    1.115   .     S
C370   H395    1.110   .     S
C371   H398    1.116   .     S
C371   H396    1.104   .     S
C371   O421    1.410   .     S
C371   H397    1.111   .     S
C372   H400    1.109   .     S
C372   H401    1.110   .     S
C372   O422    1.405   .     S
C372   H399    1.115   .     S
C373   O427    1.308   .     A
C373   O428    1.311   .     A
C374   O430    1.389   .     S
C374   N414    1.370   .     A
C375   O416    1.382   .     S
C375   N413    1.383   .     A
C375   C634    1.446   .     S
C376   O417    1.389   .     S
C376   N414    1.370   .     A
C377   N413    1.383   .     A
C377   O418    1.382   .     S
C377   C632    1.446   .     S
C378   H402    1.075   .     S
Cu379  Cu380   2.718   .     S
Cu379  O424    1.969   .     S
Cu379  O426    1.962   .     S
Cu379  O415    1.969   .     S
Cu379  O428    1.962   .     S
Cu379  N413    2.042   .     S
Cu380  O427    1.962   .     S
Cu380  N414    2.042   .     S
Cu380  O423    1.969   .     S
Cu380  O425    1.969   .     S
Cu380  O429    1.962   .     S
C431   O501    1.301   .     A
C431   O511    1.308   .     A
C431   C449    1.457   .     S
C432   C448    1.403   .     A
C432   H490    1.081   .     S
C432   C262    1.387   1_655 S
C433   C448    1.395   .     A
C433   H491    1.075   .     S
C433   C292    1.379   1_655 S
C434   H492    1.081   .     S
C434   C449    1.403   .     A
C435   C446    1.394   .     A
C435   C439    1.386   .     A
C435   H471    1.084   .     S
C436   H472    1.082   .     S
C436   C447    1.398   .     A
C436   C440    1.410   .     A
C437   C441    1.386   .     A
C437   H473    1.084   .     S
C437   C447    1.394   .     A
C438   C443    1.410   .     A
C438   C446    1.398   .     A
C438   H474    1.082   .     S
C439   C444    1.408   .     A
C439   O505    1.371   .     S
C440   C445    1.412   .     A
C440   O506    1.386   .     S
C441   O507    1.371   .     S
C441   C445    1.408   .     A
C442   O509    1.308   .     A
C442   O510    1.301   .     A
C442   C448    1.457   .     S
C443   C444    1.412   .     A
C443   O508    1.386   .     S
C444   C453    1.479   .     S
C445   C459    1.479   .     S
C446   C1221   1.463   1_554 S
C447   C1220   1.463   .     S
C449   C464    1.395   .     A
C450   O516    1.409   .     S
C450   H489    1.106   .     S
C450   H478    1.113   .     S
C450   H467    1.106   .     S
C451   H494    1.111   .     S
C451   O502    1.406   .     S
C451   H495    1.109   .     S
C451   H493    1.104   .     S
C452   H496    1.106   .     S
C452   H498    1.106   .     S
C452   H497    1.113   .     S
C452   O503    1.409   .     S
C453   O512    1.311   .     A
C453   O515    1.308   .     A
C454   H469    1.111   .     S
C454   H468    1.104   .     S
C454   O504    1.406   .     S
C454   H470    1.109   .     S
C455   H477    1.116   .     S
C455   O505    1.410   .     S
C455   H475    1.104   .     S
C455   H476    1.111   .     S
C456   H480    1.109   .     S
C456   O506    1.405   .     S
C456   H479    1.115   .     S
C456   H481    1.110   .     S
C457   H484    1.116   .     S
C457   H482    1.104   .     S
C457   O507    1.410   .     S
C457   H483    1.111   .     S
C458   H486    1.109   .     S
C458   H487    1.110   .     S
C458   O508    1.405   .     S
C458   H485    1.115   .     S
C459   O513    1.308   .     A
C459   O514    1.311   .     A
C460   O516    1.389   .     S
C460   N500    1.370   .     A
C461   O502    1.382   .     S
C461   N499    1.383   .     A
C461   C720    1.446   .     S
C462   O503    1.389   .     S
C462   N500    1.370   .     A
C463   N499    1.383   .     A
C463   O504    1.382   .     S
C463   C718    1.446   .     S
C464   H488    1.075   .     S
Cu465  Cu466   2.718   .     S
Cu465  O510    1.969   .     S
Cu465  O512    1.962   .     S
Cu465  O501    1.969   .     S
Cu465  O514    1.962   .     S
Cu465  N499    2.042   .     S
Cu466  O513    1.962   .     S
Cu466  N500    2.042   .     S
Cu466  O509    1.969   .     S
Cu466  O511    1.969   .     S
Cu466  O515    1.962   .     S
C517   O587    1.301   .     A
C517   O597    1.308   .     A
C517   C535    1.457   .     S
C518   C534    1.403   .     A
C518   H576    1.081   .     S
C518   C606    1.387   .     S
C519   C534    1.395   .     A
C519   H577    1.075   .     S
C519   C636    1.379   .     S
C520   H578    1.081   .     S
C520   C535    1.403   .     A
C520   C690    1.387   1_455 S
C521   C532    1.394   .     A
C521   C525    1.386   .     A
C521   H557    1.084   .     S
C522   H558    1.082   .     S
C522   C533    1.398   .     A
C522   C526    1.410   .     A
C523   C527    1.386   .     A
C523   H559    1.084   .     S
C523   C533    1.394   .     A
C524   C529    1.410   .     A
C524   C532    1.398   .     A
C524   H560    1.082   .     S
C525   C530    1.408   .     A
C525   O591    1.371   .     S
C526   C531    1.412   .     A
C526   O592    1.386   .     S
C527   O593    1.371   .     S
C527   C531    1.408   .     A
C528   O595    1.308   .     A
C528   O596    1.301   .     A
C528   C534    1.457   .     S
C529   C530    1.412   .     A
C529   O594    1.386   .     S
C530   C539    1.479   .     S
C531   C545    1.479   .     S
C532   C1307   1.463   1_554 S
C533   C1306   1.463   .     S
C535   C550    1.395   .     A
C536   O602    1.409   .     S
C536   H575    1.106   .     S
C536   H564    1.113   .     S
C536   H553    1.106   .     S
C537   H580    1.111   .     S
C537   O588    1.406   .     S
C537   H581    1.109   .     S
C537   H579    1.104   .     S
C538   H582    1.106   .     S
C538   H584    1.106   .     S
C538   H583    1.113   .     S
C538   O589    1.409   .     S
C539   O598    1.311   .     A
C539   O601    1.308   .     A
C540   H555    1.111   .     S
C540   H554    1.104   .     S
C540   O590    1.406   .     S
C540   H556    1.109   .     S
C541   H563    1.116   .     S
C541   O591    1.410   .     S
C541   H561    1.104   .     S
C541   H562    1.111   .     S
C542   H566    1.109   .     S
C542   O592    1.405   .     S
C542   H565    1.115   .     S
C542   H567    1.110   .     S
C543   H570    1.116   .     S
C543   H568    1.104   .     S
C543   O593    1.410   .     S
C543   H569    1.111   .     S
C544   H572    1.109   .     S
C544   H573    1.110   .     S
C544   O594    1.405   .     S
C544   H571    1.115   .     S
C545   O599    1.308   .     A
C545   O600    1.311   .     A
C546   O602    1.389   .     S
C546   N586    1.370   .     A
C547   O588    1.382   .     S
C547   N585    1.383   .     A
C547   C32     1.446   1_565 S
C548   O589    1.389   .     S
C548   N586    1.370   .     A
C549   N585    1.383   .     A
C549   O590    1.382   .     S
C549   C30     1.446   1_565 S
C550   H574    1.075   .     S
C550   C691    1.379   1_455 S
Cu551  Cu552   2.718   .     S
Cu551  O596    1.969   .     S
Cu551  O598    1.962   .     S
Cu551  O587    1.969   .     S
Cu551  O600    1.962   .     S
Cu551  N585    2.042   .     S
Cu552  O599    1.962   .     S
Cu552  N586    2.042   .     S
Cu552  O595    1.969   .     S
Cu552  O597    1.969   .     S
Cu552  O601    1.962   .     S
C603   O673    1.301   .     A
C603   O683    1.308   .     A
C603   C621    1.457   .     S
C604   C620    1.403   .     A
C604   H662    1.081   .     S
C604   C692    1.387   .     S
C605   C620    1.395   .     A
C605   H663    1.075   .     S
C605   C722    1.379   .     S
C606   H664    1.081   .     S
C606   C621    1.403   .     A
C607   C618    1.394   .     A
C607   C611    1.386   .     A
C607   H643    1.084   .     S
C608   H644    1.082   .     S
C608   C619    1.398   .     A
C608   C612    1.410   .     A
C609   C613    1.386   .     A
C609   H645    1.084   .     S
C609   C619    1.394   .     A
C610   C615    1.410   .     A
C610   C618    1.398   .     A
C610   H646    1.082   .     S
C611   C616    1.408   .     A
C611   O677    1.371   .     S
C612   C617    1.412   .     A
C612   O678    1.386   .     S
C613   O679    1.371   .     S
C613   C617    1.408   .     A
C614   O681    1.308   .     A
C614   O682    1.301   .     A
C614   C620    1.457   .     S
C615   C616    1.412   .     A
C615   O680    1.386   .     S
C616   C625    1.479   .     S
C617   C631    1.479   .     S
C618   C1393   1.463   1_554 S
C619   C1392   1.463   .     S
C621   C636    1.395   .     A
C622   O688    1.409   .     S
C622   H661    1.106   .     S
C622   H650    1.113   .     S
C622   H639    1.106   .     S
C623   H666    1.111   .     S
C623   O674    1.406   .     S
C623   H667    1.109   .     S
C623   H665    1.104   .     S
C624   H668    1.106   .     S
C624   H670    1.106   .     S
C624   H669    1.113   .     S
C624   O675    1.409   .     S
C625   O684    1.311   .     A
C625   O687    1.308   .     A
C626   H641    1.111   .     S
C626   H640    1.104   .     S
C626   O676    1.406   .     S
C626   H642    1.109   .     S
C627   H649    1.116   .     S
C627   O677    1.410   .     S
C627   H647    1.104   .     S
C627   H648    1.111   .     S
C628   H652    1.109   .     S
C628   O678    1.405   .     S
C628   H651    1.115   .     S
C628   H653    1.110   .     S
C629   H656    1.116   .     S
C629   H654    1.104   .     S
C629   O679    1.410   .     S
C629   H655    1.111   .     S
C630   H658    1.109   .     S
C630   H659    1.110   .     S
C630   O680    1.405   .     S
C630   H657    1.115   .     S
C631   O685    1.308   .     A
C631   O686    1.311   .     A
C632   O688    1.389   .     S
C632   N672    1.370   .     A
C633   O674    1.382   .     S
C633   N671    1.383   .     A
C633   C118    1.446   1_565 S
C634   O675    1.389   .     S
C634   N672    1.370   .     A
C635   N671    1.383   .     A
C635   O676    1.382   .     S
C635   C116    1.446   1_565 S
C636   H660    1.075   .     S
Cu637  Cu638   2.718   .     S
Cu637  O682    1.969   .     S
Cu637  O684    1.962   .     S
Cu637  O673    1.969   .     S
Cu637  O686    1.962   .     S
Cu637  N671    2.042   .     S
Cu638  O685    1.962   .     S
Cu638  N672    2.042   .     S
Cu638  O681    1.969   .     S
Cu638  O683    1.969   .     S
Cu638  O687    1.962   .     S
C689   O759    1.301   .     A
C689   O769    1.308   .     A
C689   C707    1.457   .     S
C690   C706    1.403   .     A
C690   H748    1.081   .     S
C690   C520    1.387   1_655 S
C691   C706    1.395   .     A
C691   H749    1.075   .     S
C691   C550    1.379   1_655 S
C692   H750    1.081   .     S
C692   C707    1.403   .     A
C693   C704    1.394   .     A
C693   C697    1.386   .     A
C693   H729    1.084   .     S
C694   H730    1.082   .     S
C694   C705    1.398   .     A
C694   C698    1.410   .     A
C695   C699    1.386   .     A
C695   H731    1.084   .     S
C695   C705    1.394   .     A
C696   C701    1.410   .     A
C696   C704    1.398   .     A
C696   H732    1.082   .     S
C697   C702    1.408   .     A
C697   O763    1.371   .     S
C698   C703    1.412   .     A
C698   O764    1.386   .     S
C699   O765    1.371   .     S
C699   C703    1.408   .     A
C700   O767    1.308   .     A
C700   O768    1.301   .     A
C700   C706    1.457   .     S
C701   C702    1.412   .     A
C701   O766    1.386   .     S
C702   C711    1.479   .     S
C703   C717    1.479   .     S
C704   C1479   1.463   1_554 S
C705   C1478   1.463   .     S
C707   C722    1.395   .     A
C708   O774    1.409   .     S
C708   H747    1.106   .     S
C708   H736    1.113   .     S
C708   H725    1.106   .     S
C709   H752    1.111   .     S
C709   O760    1.406   .     S
C709   H753    1.109   .     S
C709   H751    1.104   .     S
C710   H754    1.106   .     S
C710   H756    1.106   .     S
C710   H755    1.113   .     S
C710   O761    1.409   .     S
C711   O770    1.311   .     A
C711   O773    1.308   .     A
C712   H727    1.111   .     S
C712   H726    1.104   .     S
C712   O762    1.406   .     S
C712   H728    1.109   .     S
C713   H735    1.116   .     S
C713   O763    1.410   .     S
C713   H733    1.104   .     S
C713   H734    1.111   .     S
C714   H738    1.109   .     S
C714   O764    1.405   .     S
C714   H737    1.115   .     S
C714   H739    1.110   .     S
C715   H742    1.116   .     S
C715   H740    1.104   .     S
C715   O765    1.410   .     S
C715   H741    1.111   .     S
C716   H744    1.109   .     S
C716   H745    1.110   .     S
C716   O766    1.405   .     S
C716   H743    1.115   .     S
C717   O771    1.308   .     A
C717   O772    1.311   .     A
C718   O774    1.389   .     S
C718   N758    1.370   .     A
C719   O760    1.382   .     S
C719   N757    1.383   .     A
C719   C204    1.446   1_565 S
C720   O761    1.389   .     S
C720   N758    1.370   .     A
C721   N757    1.383   .     A
C721   O762    1.382   .     S
C721   C202    1.446   1_565 S
C722   H746    1.075   .     S
Cu723  Cu724   2.718   .     S
Cu723  O768    1.969   .     S
Cu723  O770    1.962   .     S
Cu723  O759    1.969   .     S
Cu723  O772    1.962   .     S
Cu723  N757    2.042   .     S
Cu724  O771    1.962   .     S
Cu724  N758    2.042   .     S
Cu724  O767    1.969   .     S
Cu724  O769    1.969   .     S
Cu724  O773    1.962   .     S
C775   O845    1.301   .     A
C775   O855    1.308   .     A
C775   C793    1.457   .     S
C776   C792    1.403   .     A
C776   H834    1.081   .     S
C776   C864    1.387   .     S
C777   C792    1.395   .     A
C777   H835    1.075   .     S
C777   C894    1.379   .     S
C778   H836    1.081   .     S
C778   C793    1.403   .     A
C778   C948    1.387   1_455 S
C779   C790    1.394   .     A
C779   C783    1.386   .     A
C779   H815    1.084   .     S
C780   H816    1.082   .     S
C780   C791    1.398   .     A
C780   C784    1.410   .     A
C781   C785    1.386   .     A
C781   H817    1.084   .     S
C781   C791    1.394   .     A
C782   C787    1.410   .     A
C782   C790    1.398   .     A
C782   H818    1.082   .     S
C783   C788    1.408   .     A
C783   O849    1.371   .     S
C784   C789    1.412   .     A
C784   O850    1.386   .     S
C785   O851    1.371   .     S
C785   C789    1.408   .     A
C786   O853    1.308   .     A
C786   O854    1.301   .     A
C786   C792    1.457   .     S
C787   C788    1.412   .     A
C787   O852    1.386   .     S
C788   C797    1.479   .     S
C789   C803    1.479   .     S
C791   C16     1.463   1_556 S
C793   C808    1.395   .     A
C794   O860    1.409   .     S
C794   H833    1.106   .     S
C794   H822    1.113   .     S
C794   H811    1.106   .     S
C795   H838    1.111   .     S
C795   O846    1.406   .     S
C795   H839    1.109   .     S
C795   H837    1.104   .     S
C796   H840    1.106   .     S
C796   H842    1.106   .     S
C796   H841    1.113   .     S
C796   O847    1.409   .     S
C797   O856    1.311   .     A
C797   O859    1.308   .     A
C798   H813    1.111   .     S
C798   H812    1.104   .     S
C798   O848    1.406   .     S
C798   H814    1.109   .     S
C799   H821    1.116   .     S
C799   O849    1.410   .     S
C799   H819    1.104   .     S
C799   H820    1.111   .     S
C800   H824    1.109   .     S
C800   O850    1.405   .     S
C800   H823    1.115   .     S
C800   H825    1.110   .     S
C801   H828    1.116   .     S
C801   H826    1.104   .     S
C801   O851    1.410   .     S
C801   H827    1.111   .     S
C802   H830    1.109   .     S
C802   H831    1.110   .     S
C802   O852    1.405   .     S
C802   H829    1.115   .     S
C803   O857    1.308   .     A
C803   O858    1.311   .     A
C804   O860    1.389   .     S
C804   N844    1.370   .     A
C804   C1323   1.446   1_545 S
C805   O846    1.382   .     S
C805   N843    1.383   .     A
C805   C1064   1.446   .     S
C806   O847    1.389   .     S
C806   N844    1.370   .     A
C806   C1321   1.446   1_545 S
C807   N843    1.383   .     A
C807   O848    1.382   .     S
C807   C1062   1.446   .     S
C808   H832    1.075   .     S
C808   C949    1.379   1_455 S
Cu809  Cu810   2.718   .     S
Cu809  O854    1.969   .     S
Cu809  O856    1.962   .     S
Cu809  O845    1.969   .     S
Cu809  O858    1.962   .     S
Cu809  N843    2.042   .     S
Cu810  O857    1.962   .     S
Cu810  N844    2.042   .     S
Cu810  O853    1.969   .     S
Cu810  O855    1.969   .     S
Cu810  O859    1.962   .     S
C861   O931    1.301   .     A
C861   O941    1.308   .     A
C861   C879    1.457   .     S
C862   C878    1.403   .     A
C862   H920    1.081   .     S
C862   C950    1.387   .     S
C863   C878    1.395   .     A
C863   H921    1.075   .     S
C863   C980    1.379   .     S
C864   H922    1.081   .     S
C864   C879    1.403   .     A
C865   C876    1.394   .     A
C865   C869    1.386   .     A
C865   H901    1.084   .     S
C866   H902    1.082   .     S
C866   C877    1.398   .     A
C866   C870    1.410   .     A
C867   C871    1.386   .     A
C867   H903    1.084   .     S
C867   C877    1.394   .     A
C868   C873    1.410   .     A
C868   C876    1.398   .     A
C868   H904    1.082   .     S
C869   C874    1.408   .     A
C869   O935    1.371   .     S
C870   C875    1.412   .     A
C870   O936    1.386   .     S
C871   O937    1.371   .     S
C871   C875    1.408   .     A
C872   O939    1.308   .     A
C872   O940    1.301   .     A
C872   C878    1.457   .     S
C873   C874    1.412   .     A
C873   O938    1.386   .     S
C874   C883    1.479   .     S
C875   C889    1.479   .     S
C877   C102    1.463   1_556 S
C879   C894    1.395   .     A
C880   O946    1.409   .     S
C880   H919    1.106   .     S
C880   H908    1.113   .     S
C880   H897    1.106   .     S
C881   H924    1.111   .     S
C881   O932    1.406   .     S
C881   H925    1.109   .     S
C881   H923    1.104   .     S
C882   H926    1.106   .     S
C882   H928    1.106   .     S
C882   H927    1.113   .     S
C882   O933    1.409   .     S
C883   O942    1.311   .     A
C883   O945    1.308   .     A
C884   H899    1.111   .     S
C884   H898    1.104   .     S
C884   O934    1.406   .     S
C884   H900    1.109   .     S
C885   H907    1.116   .     S
C885   O935    1.410   .     S
C885   H905    1.104   .     S
C885   H906    1.111   .     S
C886   H910    1.109   .     S
C886   O936    1.405   .     S
C886   H909    1.115   .     S
C886   H911    1.110   .     S
C887   H914    1.116   .     S
C887   H912    1.104   .     S
C887   O937    1.410   .     S
C887   H913    1.111   .     S
C888   H916    1.109   .     S
C888   H917    1.110   .     S
C888   O938    1.405   .     S
C888   H915    1.115   .     S
C889   O943    1.308   .     A
C889   O944    1.311   .     A
C890   O946    1.389   .     S
C890   N930    1.370   .     A
C890   C1409   1.446   1_545 S
C891   O932    1.382   .     S
C891   N929    1.383   .     A
C891   C1150   1.446   .     S
C892   O933    1.389   .     S
C892   N930    1.370   .     A
C892   C1407   1.446   1_545 S
C893   N929    1.383   .     A
C893   O934    1.382   .     S
C893   C1148   1.446   .     S
C894   H918    1.075   .     S
Cu895  Cu896   2.718   .     S
Cu895  O940    1.969   .     S
Cu895  O942    1.962   .     S
Cu895  O931    1.969   .     S
Cu895  O944    1.962   .     S
Cu895  N929    2.042   .     S
Cu896  O943    1.962   .     S
Cu896  N930    2.042   .     S
Cu896  O939    1.969   .     S
Cu896  O941    1.969   .     S
Cu896  O945    1.962   .     S
C947   O1017   1.301   .     A
C947   O1027   1.308   .     A
C947   C965    1.457   .     S
C948   C964    1.403   .     A
C948   H1006   1.081   .     S
C948   C778    1.387   1_655 S
C949   C964    1.395   .     A
C949   H1007   1.075   .     S
C949   C808    1.379   1_655 S
C950   H1008   1.081   .     S
C950   C965    1.403   .     A
C951   C962    1.394   .     A
C951   C955    1.386   .     A
C951   H987    1.084   .     S
C952   H988    1.082   .     S
C952   C963    1.398   .     A
C952   C956    1.410   .     A
C953   C957    1.386   .     A
C953   H989    1.084   .     S
C953   C963    1.394   .     A
C954   C959    1.410   .     A
C954   C962    1.398   .     A
C954   H990    1.082   .     S
C955   C960    1.408   .     A
C955   O1021   1.371   .     S
C956   C961    1.412   .     A
C956   O1022   1.386   .     S
C957   O1023   1.371   .     S
C957   C961    1.408   .     A
C958   O1025   1.308   .     A
C958   O1026   1.301   .     A
C958   C964    1.457   .     S
C959   C960    1.412   .     A
C959   O1024   1.386   .     S
C960   C969    1.479   .     S
C961   C975    1.479   .     S
C963   C188    1.463   1_556 S
C965   C980    1.395   .     A
C966   O1032   1.409   .     S
C966   H1005   1.106   .     S
C966   H994    1.113   .     S
C966   H983    1.106   .     S
C967   H1010   1.111   .     S
C967   O1018   1.406   .     S
C967   H1011   1.109   .     S
C967   H1009   1.104   .     S
C968   H1012   1.106   .     S
C968   H1014   1.106   .     S
C968   H1013   1.113   .     S
C968   O1019   1.409   .     S
C969   O1028   1.311   .     A
C969   O1031   1.308   .     A
C970   H985    1.111   .     S
C970   H984    1.104   .     S
C970   O1020   1.406   .     S
C970   H986    1.109   .     S
C971   H993    1.116   .     S
C971   O1021   1.410   .     S
C971   H991    1.104   .     S
C971   H992    1.111   .     S
C972   H996    1.109   .     S
C972   O1022   1.405   .     S
C972   H995    1.115   .     S
C972   H997    1.110   .     S
C973   H1000   1.116   .     S
C973   H998    1.104   .     S
C973   O1023   1.410   .     S
C973   H999    1.111   .     S
C974   H1002   1.109   .     S
C974   H1003   1.110   .     S
C974   O1024   1.405   .     S
C974   H1001   1.115   .     S
C975   O1029   1.308   .     A
C975   O1030   1.311   .     A
C976   O1032   1.389   .     S
C976   N1016   1.370   .     A
C976   C1495   1.446   1_545 S
C977   O1018   1.382   .     S
C977   N1015   1.383   .     A
C977   C1236   1.446   .     S
C978   O1019   1.389   .     S
C978   N1016   1.370   .     A
C978   C1493   1.446   1_545 S
C979   N1015   1.383   .     A
C979   O1020   1.382   .     S
C979   C1234   1.446   .     S
C980   H1004   1.075   .     S
Cu981  Cu982   2.718   .     S
Cu981  O1026   1.969   .     S
Cu981  O1028   1.962   .     S
Cu981  O1017   1.969   .     S
Cu981  O1030   1.962   .     S
Cu981  N1015   2.042   .     S
Cu982  O1029   1.962   .     S
Cu982  N1016   2.042   .     S
Cu982  O1025   1.969   .     S
Cu982  O1027   1.969   .     S
Cu982  O1031   1.962   .     S
C1033  O1103   1.301   .     A
C1033  O1113   1.308   .     A
C1033  C1051   1.457   .     S
C1034  C1050   1.403   .     A
C1034  H1092   1.081   .     S
C1034  C1122   1.387   .     S
C1035  C1050   1.395   .     A
C1035  H1093   1.075   .     S
C1035  C1152   1.379   .     S
C1036  H1094   1.081   .     S
C1036  C1051   1.403   .     A
C1036  C1206   1.387   1_455 S
C1037  C1048   1.394   .     A
C1037  C1041   1.386   .     A
C1037  H1073   1.084   .     S
C1038  H1074   1.082   .     S
C1038  C1049   1.398   .     A
C1038  C1042   1.410   .     A
C1039  C1043   1.386   .     A
C1039  H1075   1.084   .     S
C1039  C1049   1.394   .     A
C1040  C1045   1.410   .     A
C1040  C1048   1.398   .     A
C1040  H1076   1.082   .     S
C1041  C1046   1.408   .     A
C1041  O1107   1.371   .     S
C1042  C1047   1.412   .     A
C1042  O1108   1.386   .     S
C1043  O1109   1.371   .     S
C1043  C1047   1.408   .     A
C1044  O1111   1.308   .     A
C1044  O1112   1.301   .     A
C1044  C1050   1.457   .     S
C1045  C1046   1.412   .     A
C1045  O1110   1.386   .     S
C1046  C1055   1.479   .     S
C1047  C1061   1.479   .     S
C1049  C274    1.463   1_556 S
C1051  C1066   1.395   .     A
C1052  O1118   1.409   .     S
C1052  H1091   1.106   .     S
C1052  H1080   1.113   .     S
C1052  H1069   1.106   .     S
C1053  H1096   1.111   .     S
C1053  O1104   1.406   .     S
C1053  H1097   1.109   .     S
C1053  H1095   1.104   .     S
C1054  H1098   1.106   .     S
C1054  H1100   1.106   .     S
C1054  H1099   1.113   .     S
C1054  O1105   1.409   .     S
C1055  O1114   1.311   .     A
C1055  O1117   1.308   .     A
C1056  H1071   1.111   .     S
C1056  H1070   1.104   .     S
C1056  O1106   1.406   .     S
C1056  H1072   1.109   .     S
C1057  H1079   1.116   .     S
C1057  O1107   1.410   .     S
C1057  H1077   1.104   .     S
C1057  H1078   1.111   .     S
C1058  H1082   1.109   .     S
C1058  O1108   1.405   .     S
C1058  H1081   1.115   .     S
C1058  H1083   1.110   .     S
C1059  H1086   1.116   .     S
C1059  H1084   1.104   .     S
C1059  O1109   1.410   .     S
C1059  H1085   1.111   .     S
C1060  H1088   1.109   .     S
C1060  H1089   1.110   .     S
C1060  O1110   1.405   .     S
C1060  H1087   1.115   .     S
C1061  O1115   1.308   .     A
C1061  O1116   1.311   .     A
C1062  O1118   1.389   .     S
C1062  N1102   1.370   .     A
C1063  O1104   1.382   .     S
C1063  N1101   1.383   .     A
C1063  C1322   1.446   .     S
C1064  O1105   1.389   .     S
C1064  N1102   1.370   .     A
C1065  N1101   1.383   .     A
C1065  O1106   1.382   .     S
C1065  C1320   1.446   .     S
C1066  H1090   1.075   .     S
C1066  C1207   1.379   1_455 S
Cu1067 Cu1068  2.718   .     S
Cu1067 O1112   1.969   .     S
Cu1067 O1114   1.962   .     S
Cu1067 O1103   1.969   .     S
Cu1067 O1116   1.962   .     S
Cu1067 N1101   2.042   .     S
Cu1068 O1115   1.962   .     S
Cu1068 N1102   2.042   .     S
Cu1068 O1111   1.969   .     S
Cu1068 O1113   1.969   .     S
Cu1068 O1117   1.962   .     S
C1119  O1189   1.301   .     A
C1119  O1199   1.308   .     A
C1119  C1137   1.457   .     S
C1120  C1136   1.403   .     A
C1120  H1178   1.081   .     S
C1120  C1208   1.387   .     S
C1121  C1136   1.395   .     A
C1121  H1179   1.075   .     S
C1121  C1238   1.379   .     S
C1122  H1180   1.081   .     S
C1122  C1137   1.403   .     A
C1123  C1134   1.394   .     A
C1123  C1127   1.386   .     A
C1123  H1159   1.084   .     S
C1124  H1160   1.082   .     S
C1124  C1135   1.398   .     A
C1124  C1128   1.410   .     A
C1125  C1129   1.386   .     A
C1125  H1161   1.084   .     S
C1125  C1135   1.394   .     A
C1126  C1131   1.410   .     A
C1126  C1134   1.398   .     A
C1126  H1162   1.082   .     S
C1127  C1132   1.408   .     A
C1127  O1193   1.371   .     S
C1128  C1133   1.412   .     A
C1128  O1194   1.386   .     S
C1129  O1195   1.371   .     S
C1129  C1133   1.408   .     A
C1130  O1197   1.308   .     A
C1130  O1198   1.301   .     A
C1130  C1136   1.457   .     S
C1131  C1132   1.412   .     A
C1131  O1196   1.386   .     S
C1132  C1141   1.479   .     S
C1133  C1147   1.479   .     S
C1135  C360    1.463   1_556 S
C1137  C1152   1.395   .     A
C1138  O1204   1.409   .     S
C1138  H1177   1.106   .     S
C1138  H1166   1.113   .     S
C1138  H1155   1.106   .     S
C1139  H1182   1.111   .     S
C1139  O1190   1.406   .     S
C1139  H1183   1.109   .     S
C1139  H1181   1.104   .     S
C1140  H1184   1.106   .     S
C1140  H1186   1.106   .     S
C1140  H1185   1.113   .     S
C1140  O1191   1.409   .     S
C1141  O1200   1.311   .     A
C1141  O1203   1.308   .     A
C1142  H1157   1.111   .     S
C1142  H1156   1.104   .     S
C1142  O1192   1.406   .     S
C1142  H1158   1.109   .     S
C1143  H1165   1.116   .     S
C1143  O1193   1.410   .     S
C1143  H1163   1.104   .     S
C1143  H1164   1.111   .     S
C1144  H1168   1.109   .     S
C1144  O1194   1.405   .     S
C1144  H1167   1.115   .     S
C1144  H1169   1.110   .     S
C1145  H1172   1.116   .     S
C1145  H1170   1.104   .     S
C1145  O1195   1.410   .     S
C1145  H1171   1.111   .     S
C1146  H1174   1.109   .     S
C1146  H1175   1.110   .     S
C1146  O1196   1.405   .     S
C1146  H1173   1.115   .     S
C1147  O1201   1.308   .     A
C1147  O1202   1.311   .     A
C1148  O1204   1.389   .     S
C1148  N1188   1.370   .     A
C1149  O1190   1.382   .     S
C1149  N1187   1.383   .     A
C1149  C1408   1.446   .     S
C1150  O1191   1.389   .     S
C1150  N1188   1.370   .     A
C1151  N1187   1.383   .     A
C1151  O1192   1.382   .     S
C1151  C1406   1.446   .     S
C1152  H1176   1.075   .     S
Cu1153 Cu1154  2.718   .     S
Cu1153 O1198   1.969   .     S
Cu1153 O1200   1.962   .     S
Cu1153 O1189   1.969   .     S
Cu1153 O1202   1.962   .     S
Cu1153 N1187   2.042   .     S
Cu1154 O1201   1.962   .     S
Cu1154 N1188   2.042   .     S
Cu1154 O1197   1.969   .     S
Cu1154 O1199   1.969   .     S
Cu1154 O1203   1.962   .     S
C1205  O1275   1.301   .     A
C1205  O1285   1.308   .     A
C1205  C1223   1.457   .     S
C1206  C1222   1.403   .     A
C1206  H1264   1.081   .     S
C1206  C1036   1.387   1_655 S
C1207  C1222   1.395   .     A
C1207  H1265   1.075   .     S
C1207  C1066   1.379   1_655 S
C1208  H1266   1.081   .     S
C1208  C1223   1.403   .     A
C1209  C1220   1.394   .     A
C1209  C1213   1.386   .     A
C1209  H1245   1.084   .     S
C1210  H1246   1.082   .     S
C1210  C1221   1.398   .     A
C1210  C1214   1.410   .     A
C1211  C1215   1.386   .     A
C1211  H1247   1.084   .     S
C1211  C1221   1.394   .     A
C1212  C1217   1.410   .     A
C1212  C1220   1.398   .     A
C1212  H1248   1.082   .     S
C1213  C1218   1.408   .     A
C1213  O1279   1.371   .     S
C1214  C1219   1.412   .     A
C1214  O1280   1.386   .     S
C1215  O1281   1.371   .     S
C1215  C1219   1.408   .     A
C1216  O1283   1.308   .     A
C1216  O1284   1.301   .     A
C1216  C1222   1.457   .     S
C1217  C1218   1.412   .     A
C1217  O1282   1.386   .     S
C1218  C1227   1.479   .     S
C1219  C1233   1.479   .     S
C1221  C446    1.463   1_556 S
C1223  C1238   1.395   .     A
C1224  O1290   1.409   .     S
C1224  H1263   1.106   .     S
C1224  H1252   1.113   .     S
C1224  H1241   1.106   .     S
C1225  H1268   1.111   .     S
C1225  O1276   1.406   .     S
C1225  H1269   1.109   .     S
C1225  H1267   1.104   .     S
C1226  H1270   1.106   .     S
C1226  H1272   1.106   .     S
C1226  H1271   1.113   .     S
C1226  O1277   1.409   .     S
C1227  O1286   1.311   .     A
C1227  O1289   1.308   .     A
C1228  H1243   1.111   .     S
C1228  H1242   1.104   .     S
C1228  O1278   1.406   .     S
C1228  H1244   1.109   .     S
C1229  H1251   1.116   .     S
C1229  O1279   1.410   .     S
C1229  H1249   1.104   .     S
C1229  H1250   1.111   .     S
C1230  H1254   1.109   .     S
C1230  O1280   1.405   .     S
C1230  H1253   1.115   .     S
C1230  H1255   1.110   .     S
C1231  H1258   1.116   .     S
C1231  H1256   1.104   .     S
C1231  O1281   1.410   .     S
C1231  H1257   1.111   .     S
C1232  H1260   1.109   .     S
C1232  H1261   1.110   .     S
C1232  O1282   1.405   .     S
C1232  H1259   1.115   .     S
C1233  O1287   1.308   .     A
C1233  O1288   1.311   .     A
C1234  O1290   1.389   .     S
C1234  N1274   1.370   .     A
C1235  O1276   1.382   .     S
C1235  N1273   1.383   .     A
C1235  C1494   1.446   .     S
C1236  O1277   1.389   .     S
C1236  N1274   1.370   .     A
C1237  N1273   1.383   .     A
C1237  O1278   1.382   .     S
C1237  C1492   1.446   .     S
C1238  H1262   1.075   .     S
Cu1239 Cu1240  2.718   .     S
Cu1239 O1284   1.969   .     S
Cu1239 O1286   1.962   .     S
Cu1239 O1275   1.969   .     S
Cu1239 O1288   1.962   .     S
Cu1239 N1273   2.042   .     S
Cu1240 O1287   1.962   .     S
Cu1240 N1274   2.042   .     S
Cu1240 O1283   1.969   .     S
Cu1240 O1285   1.969   .     S
Cu1240 O1289   1.962   .     S
C1291  O1361   1.301   .     A
C1291  O1371   1.308   .     A
C1291  C1309   1.457   .     S
C1292  C1308   1.403   .     A
C1292  H1350   1.081   .     S
C1292  C1380   1.387   .     S
C1293  C1308   1.395   .     A
C1293  H1351   1.075   .     S
C1293  C1410   1.379   .     S
C1294  H1352   1.081   .     S
C1294  C1309   1.403   .     A
C1294  C1464   1.387   1_455 S
C1295  C1306   1.394   .     A
C1295  C1299   1.386   .     A
C1295  H1331   1.084   .     S
C1296  H1332   1.082   .     S
C1296  C1307   1.398   .     A
C1296  C1300   1.410   .     A
C1297  C1301   1.386   .     A
C1297  H1333   1.084   .     S
C1297  C1307   1.394   .     A
C1298  C1303   1.410   .     A
C1298  C1306   1.398   .     A
C1298  H1334   1.082   .     S
C1299  C1304   1.408   .     A
C1299  O1365   1.371   .     S
C1300  C1305   1.412   .     A
C1300  O1366   1.386   .     S
C1301  O1367   1.371   .     S
C1301  C1305   1.408   .     A
C1302  O1369   1.308   .     A
C1302  O1370   1.301   .     A
C1302  C1308   1.457   .     S
C1303  C1304   1.412   .     A
C1303  O1368   1.386   .     S
C1304  C1313   1.479   .     S
C1305  C1319   1.479   .     S
C1307  C532    1.463   1_556 S
C1309  C1324   1.395   .     A
C1310  O1376   1.409   .     S
C1310  H1349   1.106   .     S
C1310  H1338   1.113   .     S
C1310  H1327   1.106   .     S
C1311  H1354   1.111   .     S
C1311  O1362   1.406   .     S
C1311  H1355   1.109   .     S
C1311  H1353   1.104   .     S
C1312  H1356   1.106   .     S
C1312  H1358   1.106   .     S
C1312  H1357   1.113   .     S
C1312  O1363   1.409   .     S
C1313  O1372   1.311   .     A
C1313  O1375   1.308   .     A
C1314  H1329   1.111   .     S
C1314  H1328   1.104   .     S
C1314  O1364   1.406   .     S
C1314  H1330   1.109   .     S
C1315  H1337   1.116   .     S
C1315  O1365   1.410   .     S
C1315  H1335   1.104   .     S
C1315  H1336   1.111   .     S
C1316  H1340   1.109   .     S
C1316  O1366   1.405   .     S
C1316  H1339   1.115   .     S
C1316  H1341   1.110   .     S
C1317  H1344   1.116   .     S
C1317  H1342   1.104   .     S
C1317  O1367   1.410   .     S
C1317  H1343   1.111   .     S
C1318  H1346   1.109   .     S
C1318  H1347   1.110   .     S
C1318  O1368   1.405   .     S
C1318  H1345   1.115   .     S
C1319  O1373   1.308   .     A
C1319  O1374   1.311   .     A
C1320  O1376   1.389   .     S
C1320  N1360   1.370   .     A
C1321  O1362   1.382   .     S
C1321  N1359   1.383   .     A
C1321  C806    1.446   1_565 S
C1322  O1363   1.389   .     S
C1322  N1360   1.370   .     A
C1323  N1359   1.383   .     A
C1323  O1364   1.382   .     S
C1323  C804    1.446   1_565 S
C1324  H1348   1.075   .     S
C1324  C1465   1.379   1_455 S
Cu1325 Cu1326  2.718   .     S
Cu1325 O1370   1.969   .     S
Cu1325 O1372   1.962   .     S
Cu1325 O1361   1.969   .     S
Cu1325 O1374   1.962   .     S
Cu1325 N1359   2.042   .     S
Cu1326 O1373   1.962   .     S
Cu1326 N1360   2.042   .     S
Cu1326 O1369   1.969   .     S
Cu1326 O1371   1.969   .     S
Cu1326 O1375   1.962   .     S
C1377  O1447   1.301   .     A
C1377  O1457   1.308   .     A
C1377  C1395   1.457   .     S
C1378  C1394   1.403   .     A
C1378  H1436   1.081   .     S
C1378  C1466   1.387   .     S
C1379  C1394   1.395   .     A
C1379  H1437   1.075   .     S
C1379  C1496   1.379   .     S
C1380  H1438   1.081   .     S
C1380  C1395   1.403   .     A
C1381  C1392   1.394   .     A
C1381  C1385   1.386   .     A
C1381  H1417   1.084   .     S
C1382  H1418   1.082   .     S
C1382  C1393   1.398   .     A
C1382  C1386   1.410   .     A
C1383  C1387   1.386   .     A
C1383  H1419   1.084   .     S
C1383  C1393   1.394   .     A
C1384  C1389   1.410   .     A
C1384  C1392   1.398   .     A
C1384  H1420   1.082   .     S
C1385  C1390   1.408   .     A
C1385  O1451   1.371   .     S
C1386  C1391   1.412   .     A
C1386  O1452   1.386   .     S
C1387  O1453   1.371   .     S
C1387  C1391   1.408   .     A
C1388  O1455   1.308   .     A
C1388  O1456   1.301   .     A
C1388  C1394   1.457   .     S
C1389  C1390   1.412   .     A
C1389  O1454   1.386   .     S
C1390  C1399   1.479   .     S
C1391  C1405   1.479   .     S
C1393  C618    1.463   1_556 S
C1395  C1410   1.395   .     A
C1396  O1462   1.409   .     S
C1396  H1435   1.106   .     S
C1396  H1424   1.113   .     S
C1396  H1413   1.106   .     S
C1397  H1440   1.111   .     S
C1397  O1448   1.406   .     S
C1397  H1441   1.109   .     S
C1397  H1439   1.104   .     S
C1398  H1442   1.106   .     S
C1398  H1444   1.106   .     S
C1398  H1443   1.113   .     S
C1398  O1449   1.409   .     S
C1399  O1458   1.311   .     A
C1399  O1461   1.308   .     A
C1400  H1415   1.111   .     S
C1400  H1414   1.104   .     S
C1400  O1450   1.406   .     S
C1400  H1416   1.109   .     S
C1401  H1423   1.116   .     S
C1401  O1451   1.410   .     S
C1401  H1421   1.104   .     S
C1401  H1422   1.111   .     S
C1402  H1426   1.109   .     S
C1402  O1452   1.405   .     S
C1402  H1425   1.115   .     S
C1402  H1427   1.110   .     S
C1403  H1430   1.116   .     S
C1403  H1428   1.104   .     S
C1403  O1453   1.410   .     S
C1403  H1429   1.111   .     S
C1404  H1432   1.109   .     S
C1404  H1433   1.110   .     S
C1404  O1454   1.405   .     S
C1404  H1431   1.115   .     S
C1405  O1459   1.308   .     A
C1405  O1460   1.311   .     A
C1406  O1462   1.389   .     S
C1406  N1446   1.370   .     A
C1407  O1448   1.382   .     S
C1407  N1445   1.383   .     A
C1407  C892    1.446   1_565 S
C1408  O1449   1.389   .     S
C1408  N1446   1.370   .     A
C1409  N1445   1.383   .     A
C1409  O1450   1.382   .     S
C1409  C890    1.446   1_565 S
C1410  H1434   1.075   .     S
Cu1411 Cu1412  2.718   .     S
Cu1411 O1456   1.969   .     S
Cu1411 O1458   1.962   .     S
Cu1411 O1447   1.969   .     S
Cu1411 O1460   1.962   .     S
Cu1411 N1445   2.042   .     S
Cu1412 O1459   1.962   .     S
Cu1412 N1446   2.042   .     S
Cu1412 O1455   1.969   .     S
Cu1412 O1457   1.969   .     S
Cu1412 O1461   1.962   .     S
C1463  O1533   1.301   .     A
C1463  O1543   1.308   .     A
C1463  C1481   1.457   .     S
C1464  C1480   1.403   .     A
C1464  H1522   1.081   .     S
C1464  C1294   1.387   1_655 S
C1465  C1480   1.395   .     A
C1465  H1523   1.075   .     S
C1465  C1324   1.379   1_655 S
C1466  H1524   1.081   .     S
C1466  C1481   1.403   .     A
C1467  C1478   1.394   .     A
C1467  C1471   1.386   .     A
C1467  H1503   1.084   .     S
C1468  H1504   1.082   .     S
C1468  C1479   1.398   .     A
C1468  C1472   1.410   .     A
C1469  C1473   1.386   .     A
C1469  H1505   1.084   .     S
C1469  C1479   1.394   .     A
C1470  C1475   1.410   .     A
C1470  C1478   1.398   .     A
C1470  H1506   1.082   .     S
C1471  C1476   1.408   .     A
C1471  O1537   1.371   .     S
C1472  C1477   1.412   .     A
C1472  O1538   1.386   .     S
C1473  O1539   1.371   .     S
C1473  C1477   1.408   .     A
C1474  O1541   1.308   .     A
C1474  O1542   1.301   .     A
C1474  C1480   1.457   .     S
C1475  C1476   1.412   .     A
C1475  O1540   1.386   .     S
C1476  C1485   1.479   .     S
C1477  C1491   1.479   .     S
C1479  C704    1.463   1_556 S
C1481  C1496   1.395   .     A
C1482  O1548   1.409   .     S
C1482  H1521   1.106   .     S
C1482  H1510   1.113   .     S
C1482  H1499   1.106   .     S
C1483  H1526   1.111   .     S
C1483  O1534   1.406   .     S
C1483  H1527   1.109   .     S
C1483  H1525   1.104   .     S
C1484  H1528   1.106   .     S
C1484  H1530   1.106   .     S
C1484  H1529   1.113   .     S
C1484  O1535   1.409   .     S
C1485  O1544   1.311   .     A
C1485  O1547   1.308   .     A
C1486  H1501   1.111   .     S
C1486  H1500   1.104   .     S
C1486  O1536   1.406   .     S
C1486  H1502   1.109   .     S
C1487  H1509   1.116   .     S
C1487  O1537   1.410   .     S
C1487  H1507   1.104   .     S
C1487  H1508   1.111   .     S
C1488  H1512   1.109   .     S
C1488  O1538   1.405   .     S
C1488  H1511   1.115   .     S
C1488  H1513   1.110   .     S
C1489  H1516   1.116   .     S
C1489  H1514   1.104   .     S
C1489  O1539   1.410   .     S
C1489  H1515   1.111   .     S
C1490  H1518   1.109   .     S
C1490  H1519   1.110   .     S
C1490  O1540   1.405   .     S
C1490  H1517   1.115   .     S
C1491  O1545   1.308   .     A
C1491  O1546   1.311   .     A
C1492  O1548   1.389   .     S
C1492  N1532   1.370   .     A
C1493  O1534   1.382   .     S
C1493  N1531   1.383   .     A
C1493  C978    1.446   1_565 S
C1494  O1535   1.389   .     S
C1494  N1532   1.370   .     A
C1495  N1531   1.383   .     A
C1495  O1536   1.382   .     S
C1495  C976    1.446   1_565 S
C1496  H1520   1.075   .     S
Cu1497 Cu1498  2.718   .     S
Cu1497 O1542   1.969   .     S
Cu1497 O1544   1.962   .     S
Cu1497 O1533   1.969   .     S
Cu1497 O1546   1.962   .     S
Cu1497 N1531   2.042   .     S
Cu1498 O1545   1.962   .     S
Cu1498 N1532   2.042   .     S
Cu1498 O1541   1.969   .     S
Cu1498 O1543   1.969   .     S
Cu1498 O1547   1.962   .     S
