data_str_m2_o1_o1_pcu_sym.77
_audit_creation_date              2020-01-03
_audit_creation_method            'Materials Studio'
_symmetry_space_group_name_H-M    'P1'
_symmetry_Int_Tables_number       1
_symmetry_cell_setting            triclinic
loop_
_symmetry_equiv_pos_as_xyz
  x,y,z
_cell_length_a                    32.9585
_cell_length_b                    29.2286
_cell_length_c                    28.9290
_cell_angle_alpha                 89.9990
_cell_angle_beta                  89.9481
_cell_angle_gamma                 90.0000
loop_
_atom_site_label
_atom_site_type_symbol
_atom_site_fract_x
_atom_site_fract_y
_atom_site_fract_z
_atom_site_U_iso_or_equiv
_atom_site_adp_type
_atom_site_occupancy
O1     O     0.04508   0.20491   0.20625   0.00000  Uiso   1.00
O2     O     0.45491   0.29509   0.12709   0.00000  Uiso   1.00
O3     O     0.45491   0.29509   0.20625   0.00000  Uiso   1.00
O4     O     0.04508   0.20491   0.12709   0.00000  Uiso   1.00
O5     O     0.45491   0.20491   0.12709   0.00000  Uiso   1.00
O6     O     0.04508   0.29509   0.20625   0.00000  Uiso   1.00
O7     O     0.04508   0.29509   0.12709   0.00000  Uiso   1.00
O8     O     0.45491   0.20491   0.20625   0.00000  Uiso   1.00
O9     O     0.29508   0.45491   0.20625   0.00000  Uiso   1.00
O10    O     0.20491   0.04509   0.12709   0.00000  Uiso   1.00
O11    O     0.20491   0.04509   0.20625   0.00000  Uiso   1.00
O12    O     0.29508   0.45491   0.12709   0.00000  Uiso   1.00
O13    O     0.20491   0.45491   0.12709   0.00000  Uiso   1.00
O14    O     0.29508   0.04509   0.20625   0.00000  Uiso   1.00
O15    O     0.29508   0.04509   0.12709   0.00000  Uiso   1.00
O16    O     0.20491   0.45491   0.20625   0.00000  Uiso   1.00
C17    C     0.06003   0.19127   0.16682   0.00000  Uiso   1.00
C18    C     0.43951   0.30801   0.16687   0.00000  Uiso   1.00
C19    C     0.43997   0.19127   0.16652   0.00000  Uiso   1.00
C20    C     0.06048   0.30801   0.16647   0.00000  Uiso   1.00
C21    C     0.30996   0.44111   0.16684   0.00000  Uiso   1.00
C22    C     0.18924   0.05772   0.16697   0.00000  Uiso   1.00
C23    C     0.19004   0.44112   0.16649   0.00000  Uiso   1.00
C24    C     0.31076   0.05772   0.16636   0.00000  Uiso   1.00
N25    N     0.00000   0.25000   0.28402   0.00000  Uiso   1.00
N26    N     0.00000   0.25000   0.04931   0.00000  Uiso   1.00
N27    N     0.25000   0.00000   0.28402   0.00000  Uiso   1.00
N28    N     0.25000  -0.00000   0.04931   0.00000  Uiso   1.00
Cu29   Cu    0.00000   0.25000   0.21355   0.00000  Uiso   1.00
Cu30   Cu   -0.00000   0.25000   0.11978   0.00000  Uiso   1.00
Cu31   Cu    0.25000   0.00000   0.21355   0.00000  Uiso   1.00
Cu32   Cu    0.25000   0.00000   0.11978   0.00000  Uiso   1.00
C33    C     0.00133   0.20971   0.02466   0.00000  Uiso   1.00
C34    C     0.00121   0.29032   0.30866   0.00000  Uiso   1.00
C35    C     0.49877   0.29032   0.02467   0.00000  Uiso   1.00
C36    C     0.49867   0.20971   0.30867   0.00000  Uiso   1.00
C37    C     0.25115   0.45969   0.02467   0.00000  Uiso   1.00
C38    C     0.25096   0.04020   0.30840   0.00000  Uiso   1.00
C39    C     0.24905   0.04020   0.02493   0.00000  Uiso   1.00
C40    C     0.24883   0.45969   0.30866   0.00000  Uiso   1.00
C41    C     0.39468   0.13656   0.12380   0.00000  Uiso   1.00
C42    C     0.11530   0.35229   0.20700   0.00000  Uiso   1.00
C43    C     0.10970   0.35844   0.12354   0.00000  Uiso   1.00
C44    C     0.38568   0.14521   0.20673   0.00000  Uiso   1.00
C45    C     0.10532   0.13656   0.20954   0.00000  Uiso   1.00
C46    C     0.38466   0.35225   0.12634   0.00000  Uiso   1.00
C47    C     0.39029   0.35842   0.20980   0.00000  Uiso   1.00
C48    C     0.11432   0.14522   0.12660   0.00000  Uiso   1.00
C49    C     0.14256   0.38839   0.12360   0.00000  Uiso   1.00
C50    C     0.36474   0.10299   0.20695   0.00000  Uiso   1.00
C51    C     0.36242   0.10567   0.12296   0.00000  Uiso   1.00
C52    C     0.13675   0.39414   0.20705   0.00000  Uiso   1.00
C53    C     0.35743   0.38838   0.20973   0.00000  Uiso   1.00
C54    C     0.13527   0.10299   0.12639   0.00000  Uiso   1.00
C55    C     0.13759   0.10568   0.21038   0.00000  Uiso   1.00
C56    C     0.36322   0.39409   0.12628   0.00000  Uiso   1.00
C57    C     0.09578   0.33935   0.16555   0.00000  Uiso   1.00
C58    C     0.40598   0.15802   0.16561   0.00000  Uiso   1.00
C59    C     0.40421   0.33933   0.16779   0.00000  Uiso   1.00
C60    C     0.09402   0.15802   0.16773   0.00000  Uiso   1.00
C61    C     0.34655   0.08857   0.16518   0.00000  Uiso   1.00
C62    C     0.15601   0.40782   0.16560   0.00000  Uiso   1.00
C63    C     0.15346   0.08857   0.16815   0.00000  Uiso   1.00
C64    C     0.34397   0.40780   0.16773   0.00000  Uiso   1.00
N65    N     0.00408   0.16683   0.04794   0.00000  Uiso   1.00
H66    H     0.49552   0.16540   0.08167   0.00000  Uiso   1.00
C67    C     0.03923   0.13877   0.03897   0.00000  Uiso   1.00
H68    H     0.03023   0.10789   0.01937   0.00000  Uiso   1.00
H69    H     0.05187   0.12668   0.07220   0.00000  Uiso   1.00
H70    H     0.06291   0.15788   0.01985   0.00000  Uiso   1.00
N71    N     0.00392   0.33329   0.28547   0.00000  Uiso   1.00
H72    H     0.49456   0.33534   0.25205   0.00000  Uiso   1.00
C73    C     0.03936   0.36098   0.29417   0.00000  Uiso   1.00
H74    H     0.03074   0.39179   0.31415   0.00000  Uiso   1.00
H75    H     0.05204   0.37306   0.26090   0.00000  Uiso   1.00
H76    H     0.06294   0.34146   0.31305   0.00000  Uiso   1.00
N77    N     0.49604   0.33328   0.04785   0.00000  Uiso   1.00
H78    H     0.00555   0.33543   0.08123   0.00000  Uiso   1.00
C79    C     0.46056   0.36093   0.03922   0.00000  Uiso   1.00
H80    H     0.46914   0.39178   0.01927   0.00000  Uiso   1.00
H81    H     0.44789   0.37295   0.07252   0.00000  Uiso   1.00
H82    H     0.43700   0.34141   0.02033   0.00000  Uiso   1.00
N83    N     0.49592   0.16683   0.28539   0.00000  Uiso   1.00
H84    H     0.00449   0.16540   0.25167   0.00000  Uiso   1.00
C85    C     0.46078   0.13877   0.29437   0.00000  Uiso   1.00
H86    H     0.46977   0.10789   0.31396   0.00000  Uiso   1.00
H87    H     0.44813   0.12668   0.26114   0.00000  Uiso   1.00
H88    H     0.43710   0.15788   0.31349   0.00000  Uiso   1.00
N89    N     0.25367   0.41673   0.04791   0.00000  Uiso   1.00
H90    H     0.24474   0.41494   0.08148   0.00000  Uiso   1.00
C91    C     0.28881   0.38862   0.03897   0.00000  Uiso   1.00
H92    H     0.27984   0.35769   0.01943   0.00000  Uiso   1.00
H93    H     0.30152   0.37654   0.07214   0.00000  Uiso   1.00
H94    H     0.31237   0.40775   0.01967   0.00000  Uiso   1.00
N95    N     0.25294   0.08172   0.28311   0.00000  Uiso   1.00
H96    H     0.22636   0.09938   0.28038   0.00000  Uiso   1.00
C97    C     0.28786   0.11051   0.29012   0.00000  Uiso   1.00
H98    H     0.28044   0.13936   0.31351   0.00000  Uiso   1.00
H99    H     0.29691   0.12528   0.25641   0.00000  Uiso   1.00
H100   H     0.31331   0.09063   0.30484   0.00000  Uiso   1.00
N101   N     0.24707   0.08172   0.05022   0.00000  Uiso   1.00
H102   H     0.27365   0.09939   0.05294   0.00000  Uiso   1.00
C103   C     0.21215   0.11051   0.04321   0.00000  Uiso   1.00
H104   H     0.21956   0.13936   0.01982   0.00000  Uiso   1.00
H105   H     0.20310   0.12527   0.07692   0.00000  Uiso   1.00
H106   H     0.18670   0.09062   0.02849   0.00000  Uiso   1.00
N107   N     0.24630   0.41673   0.28543   0.00000  Uiso   1.00
H108   H     0.25528   0.41492   0.25187   0.00000  Uiso   1.00
C109   C     0.21114   0.38865   0.29434   0.00000  Uiso   1.00
H110   H     0.22008   0.35771   0.31388   0.00000  Uiso   1.00
H111   H     0.19844   0.37659   0.26116   0.00000  Uiso   1.00
H112   H     0.18759   0.40779   0.31363   0.00000  Uiso   1.00
N113   N     0.41536   0.14542   0.08123   0.00000  Uiso   1.00
O114   O     0.40695   0.18248   0.05818   0.00000  Uiso   1.00
O115   O     0.43285   0.11146   0.06008   0.00000  Uiso   1.00
N116   N     0.12030   0.31946   0.24408   0.00000  Uiso   1.00
O117   O     0.13559   0.33148   0.28363   0.00000  Uiso   1.00
O118   O     0.11918   0.27591   0.23474   0.00000  Uiso   1.00
N119   N     0.09101   0.34847   0.08009   0.00000  Uiso   1.00
O120   O     0.09980   0.31060   0.05869   0.00000  Uiso   1.00
O121   O     0.07433   0.38180   0.05722   0.00000  Uiso   1.00
N122   N     0.37948   0.17838   0.24323   0.00000  Uiso   1.00
O123   O     0.36382   0.16646   0.28266   0.00000  Uiso   1.00
O124   O     0.37963   0.22179   0.23320   0.00000  Uiso   1.00
N125   N     0.08465   0.14543   0.25210   0.00000  Uiso   1.00
O126   O     0.09306   0.18249   0.27515   0.00000  Uiso   1.00
O127   O     0.06717   0.11146   0.27326   0.00000  Uiso   1.00
N128   N     0.37966   0.31939   0.08928   0.00000  Uiso   1.00
O129   O     0.36433   0.33139   0.04974   0.00000  Uiso   1.00
O130   O     0.38081   0.27585   0.09864   0.00000  Uiso   1.00
N131   N     0.40898   0.34846   0.25324   0.00000  Uiso   1.00
O132   O     0.40019   0.31058   0.27465   0.00000  Uiso   1.00
O133   O     0.42567   0.38178   0.27611   0.00000  Uiso   1.00
N134   N     0.12053   0.17839   0.09010   0.00000  Uiso   1.00
O135   O     0.13619   0.16646   0.05068   0.00000  Uiso   1.00
O136   O     0.12037   0.22179   0.10013   0.00000  Uiso   1.00
N137   N     0.16124   0.39860   0.08021   0.00000  Uiso   1.00
O138   O     0.15178   0.43620   0.05868   0.00000  Uiso   1.00
O139   O     0.17793   0.36532   0.05723   0.00000  Uiso   1.00
N140   N     0.37039   0.07044   0.24417   0.00000  Uiso   1.00
O141   O     0.38607   0.08280   0.28342   0.00000  Uiso   1.00
O142   O     0.36942   0.02682   0.23516   0.00000  Uiso   1.00
N143   N     0.34766   0.09169   0.07844   0.00000  Uiso   1.00
O144   O     0.35294   0.04976   0.06478   0.00000  Uiso   1.00
O145   O     0.34109   0.12290   0.04727   0.00000  Uiso   1.00
N146   N     0.12950   0.42772   0.24272   0.00000  Uiso   1.00
O147   O     0.11641   0.41598   0.28339   0.00000  Uiso   1.00
O148   O     0.12574   0.47038   0.23078   0.00000  Uiso   1.00
N149   N     0.33875   0.39859   0.25312   0.00000  Uiso   1.00
O150   O     0.34822   0.43618   0.27466   0.00000  Uiso   1.00
O151   O     0.32205   0.36532   0.27610   0.00000  Uiso   1.00
N152   N     0.12961   0.07045   0.08916   0.00000  Uiso   1.00
O153   O     0.11394   0.08281   0.04992   0.00000  Uiso   1.00
O154   O     0.13058   0.02683   0.09817   0.00000  Uiso   1.00
N155   N     0.15235   0.09170   0.25489   0.00000  Uiso   1.00
O156   O     0.14708   0.04978   0.26857   0.00000  Uiso   1.00
O157   O     0.15893   0.12293   0.28606   0.00000  Uiso   1.00
N158   N     0.37046   0.42765   0.09059   0.00000  Uiso   1.00
O159   O     0.38353   0.41589   0.04992   0.00000  Uiso   1.00
O160   O     0.37424   0.47032   0.10251   0.00000  Uiso   1.00
O161   O     0.54508   0.20491   0.20625   0.00000  Uiso   1.00
O162   O     0.95491   0.29509   0.12709   0.00000  Uiso   1.00
O163   O     0.95491   0.29509   0.20625   0.00000  Uiso   1.00
O164   O     0.54508   0.20491   0.12709   0.00000  Uiso   1.00
O165   O     0.95491   0.20491   0.12709   0.00000  Uiso   1.00
O166   O     0.54508   0.29509   0.20625   0.00000  Uiso   1.00
O167   O     0.54508   0.29509   0.12709   0.00000  Uiso   1.00
O168   O     0.95491   0.20491   0.20625   0.00000  Uiso   1.00
O169   O     0.79508   0.45491   0.20625   0.00000  Uiso   1.00
O170   O     0.70491   0.04509   0.12709   0.00000  Uiso   1.00
O171   O     0.70491   0.04509   0.20625   0.00000  Uiso   1.00
O172   O     0.79508   0.45491   0.12709   0.00000  Uiso   1.00
O173   O     0.70491   0.45491   0.12709   0.00000  Uiso   1.00
O174   O     0.79508   0.04509   0.20625   0.00000  Uiso   1.00
O175   O     0.79508   0.04509   0.12709   0.00000  Uiso   1.00
O176   O     0.70491   0.45491   0.20625   0.00000  Uiso   1.00
C177   C     0.56003   0.19127   0.16682   0.00000  Uiso   1.00
C178   C     0.93951   0.30801   0.16687   0.00000  Uiso   1.00
C179   C     0.93997   0.19127   0.16652   0.00000  Uiso   1.00
C180   C     0.56048   0.30801   0.16647   0.00000  Uiso   1.00
C181   C     0.80996   0.44111   0.16684   0.00000  Uiso   1.00
C182   C     0.68924   0.05772   0.16697   0.00000  Uiso   1.00
C183   C     0.69004   0.44112   0.16649   0.00000  Uiso   1.00
C184   C     0.81076   0.05772   0.16636   0.00000  Uiso   1.00
N185   N     0.50000   0.25000   0.28402   0.00000  Uiso   1.00
N186   N     0.50000   0.25000   0.04931   0.00000  Uiso   1.00
N187   N     0.75000   0.00000   0.28402   0.00000  Uiso   1.00
N188   N     0.75000  -0.00000   0.04931   0.00000  Uiso   1.00
Cu189  Cu    0.50000   0.25000   0.21355   0.00000  Uiso   1.00
Cu190  Cu    0.50000   0.25000   0.11978   0.00000  Uiso   1.00
Cu191  Cu    0.75000   0.00000   0.21355   0.00000  Uiso   1.00
Cu192  Cu    0.75000   0.00000   0.11978   0.00000  Uiso   1.00
C193   C     0.50133   0.20971   0.02466   0.00000  Uiso   1.00
C194   C     0.50121   0.29032   0.30866   0.00000  Uiso   1.00
C195   C     0.99877   0.29032   0.02467   0.00000  Uiso   1.00
C196   C     0.99867   0.20971   0.30867   0.00000  Uiso   1.00
C197   C     0.75115   0.45969   0.02467   0.00000  Uiso   1.00
C198   C     0.75096   0.04020   0.30840   0.00000  Uiso   1.00
C199   C     0.74905   0.04020   0.02493   0.00000  Uiso   1.00
C200   C     0.74883   0.45969   0.30866   0.00000  Uiso   1.00
C201   C     0.89468   0.13656   0.12380   0.00000  Uiso   1.00
C202   C     0.61530   0.35229   0.20700   0.00000  Uiso   1.00
C203   C     0.60970   0.35844   0.12354   0.00000  Uiso   1.00
C204   C     0.88568   0.14521   0.20673   0.00000  Uiso   1.00
C205   C     0.60532   0.13656   0.20954   0.00000  Uiso   1.00
C206   C     0.88466   0.35225   0.12634   0.00000  Uiso   1.00
C207   C     0.89029   0.35842   0.20980   0.00000  Uiso   1.00
C208   C     0.61432   0.14522   0.12660   0.00000  Uiso   1.00
C209   C     0.64256   0.38839   0.12360   0.00000  Uiso   1.00
C210   C     0.86474   0.10299   0.20695   0.00000  Uiso   1.00
C211   C     0.86242   0.10567   0.12296   0.00000  Uiso   1.00
C212   C     0.63675   0.39414   0.20705   0.00000  Uiso   1.00
C213   C     0.85743   0.38838   0.20973   0.00000  Uiso   1.00
C214   C     0.63527   0.10299   0.12639   0.00000  Uiso   1.00
C215   C     0.63759   0.10568   0.21038   0.00000  Uiso   1.00
C216   C     0.86322   0.39409   0.12628   0.00000  Uiso   1.00
C217   C     0.59578   0.33935   0.16555   0.00000  Uiso   1.00
C218   C     0.90598   0.15802   0.16561   0.00000  Uiso   1.00
C219   C     0.90421   0.33933   0.16779   0.00000  Uiso   1.00
C220   C     0.59402   0.15802   0.16773   0.00000  Uiso   1.00
C221   C     0.84655   0.08857   0.16518   0.00000  Uiso   1.00
C222   C     0.65601   0.40782   0.16560   0.00000  Uiso   1.00
C223   C     0.65346   0.08857   0.16815   0.00000  Uiso   1.00
C224   C     0.84397   0.40780   0.16773   0.00000  Uiso   1.00
N225   N     0.50408   0.16683   0.04794   0.00000  Uiso   1.00
H226   H     0.99552   0.16540   0.08167   0.00000  Uiso   1.00
C227   C     0.53923   0.13877   0.03897   0.00000  Uiso   1.00
H228   H     0.53023   0.10789   0.01937   0.00000  Uiso   1.00
H229   H     0.55187   0.12668   0.07220   0.00000  Uiso   1.00
H230   H     0.56291   0.15788   0.01985   0.00000  Uiso   1.00
N231   N     0.50392   0.33329   0.28547   0.00000  Uiso   1.00
H232   H     0.99456   0.33534   0.25205   0.00000  Uiso   1.00
C233   C     0.53936   0.36098   0.29417   0.00000  Uiso   1.00
H234   H     0.53074   0.39179   0.31415   0.00000  Uiso   1.00
H235   H     0.55204   0.37306   0.26090   0.00000  Uiso   1.00
H236   H     0.56294   0.34146   0.31305   0.00000  Uiso   1.00
N237   N     0.99604   0.33328   0.04785   0.00000  Uiso   1.00
H238   H     0.50555   0.33543   0.08123   0.00000  Uiso   1.00
C239   C     0.96056   0.36093   0.03922   0.00000  Uiso   1.00
H240   H     0.96914   0.39178   0.01927   0.00000  Uiso   1.00
H241   H     0.94789   0.37295   0.07252   0.00000  Uiso   1.00
H242   H     0.93700   0.34141   0.02033   0.00000  Uiso   1.00
N243   N     0.99592   0.16683   0.28539   0.00000  Uiso   1.00
H244   H     0.50449   0.16540   0.25167   0.00000  Uiso   1.00
C245   C     0.96078   0.13877   0.29437   0.00000  Uiso   1.00
H246   H     0.96977   0.10789   0.31396   0.00000  Uiso   1.00
H247   H     0.94813   0.12668   0.26114   0.00000  Uiso   1.00
H248   H     0.93710   0.15788   0.31349   0.00000  Uiso   1.00
N249   N     0.75367   0.41673   0.04791   0.00000  Uiso   1.00
H250   H     0.74474   0.41494   0.08148   0.00000  Uiso   1.00
C251   C     0.78881   0.38862   0.03897   0.00000  Uiso   1.00
H252   H     0.77984   0.35769   0.01943   0.00000  Uiso   1.00
H253   H     0.80152   0.37654   0.07214   0.00000  Uiso   1.00
H254   H     0.81237   0.40775   0.01967   0.00000  Uiso   1.00
N255   N     0.75294   0.08172   0.28311   0.00000  Uiso   1.00
H256   H     0.72636   0.09938   0.28038   0.00000  Uiso   1.00
C257   C     0.78786   0.11051   0.29012   0.00000  Uiso   1.00
H258   H     0.78044   0.13936   0.31351   0.00000  Uiso   1.00
H259   H     0.79691   0.12528   0.25641   0.00000  Uiso   1.00
H260   H     0.81331   0.09063   0.30484   0.00000  Uiso   1.00
N261   N     0.74707   0.08172   0.05022   0.00000  Uiso   1.00
H262   H     0.77365   0.09939   0.05294   0.00000  Uiso   1.00
C263   C     0.71215   0.11051   0.04321   0.00000  Uiso   1.00
H264   H     0.71956   0.13936   0.01982   0.00000  Uiso   1.00
H265   H     0.70310   0.12527   0.07692   0.00000  Uiso   1.00
H266   H     0.68670   0.09062   0.02849   0.00000  Uiso   1.00
N267   N     0.74630   0.41673   0.28543   0.00000  Uiso   1.00
H268   H     0.75528   0.41492   0.25187   0.00000  Uiso   1.00
C269   C     0.71114   0.38865   0.29434   0.00000  Uiso   1.00
H270   H     0.72008   0.35771   0.31388   0.00000  Uiso   1.00
H271   H     0.69844   0.37659   0.26116   0.00000  Uiso   1.00
H272   H     0.68759   0.40779   0.31363   0.00000  Uiso   1.00
N273   N     0.91536   0.14542   0.08123   0.00000  Uiso   1.00
O274   O     0.90695   0.18248   0.05818   0.00000  Uiso   1.00
O275   O     0.93285   0.11146   0.06008   0.00000  Uiso   1.00
N276   N     0.62030   0.31946   0.24408   0.00000  Uiso   1.00
O277   O     0.63559   0.33148   0.28363   0.00000  Uiso   1.00
O278   O     0.61918   0.27591   0.23474   0.00000  Uiso   1.00
N279   N     0.59101   0.34847   0.08009   0.00000  Uiso   1.00
O280   O     0.59980   0.31060   0.05869   0.00000  Uiso   1.00
O281   O     0.57433   0.38180   0.05722   0.00000  Uiso   1.00
N282   N     0.87948   0.17838   0.24323   0.00000  Uiso   1.00
O283   O     0.86382   0.16646   0.28266   0.00000  Uiso   1.00
O284   O     0.87963   0.22179   0.23320   0.00000  Uiso   1.00
N285   N     0.58465   0.14543   0.25210   0.00000  Uiso   1.00
O286   O     0.59306   0.18249   0.27515   0.00000  Uiso   1.00
O287   O     0.56717   0.11146   0.27326   0.00000  Uiso   1.00
N288   N     0.87966   0.31939   0.08928   0.00000  Uiso   1.00
O289   O     0.86433   0.33139   0.04974   0.00000  Uiso   1.00
O290   O     0.88081   0.27585   0.09864   0.00000  Uiso   1.00
N291   N     0.90898   0.34846   0.25324   0.00000  Uiso   1.00
O292   O     0.90019   0.31058   0.27465   0.00000  Uiso   1.00
O293   O     0.92567   0.38178   0.27611   0.00000  Uiso   1.00
N294   N     0.62053   0.17839   0.09010   0.00000  Uiso   1.00
O295   O     0.63619   0.16646   0.05068   0.00000  Uiso   1.00
O296   O     0.62037   0.22179   0.10013   0.00000  Uiso   1.00
N297   N     0.66124   0.39860   0.08021   0.00000  Uiso   1.00
O298   O     0.65178   0.43620   0.05868   0.00000  Uiso   1.00
O299   O     0.67793   0.36532   0.05723   0.00000  Uiso   1.00
N300   N     0.87039   0.07044   0.24417   0.00000  Uiso   1.00
O301   O     0.88607   0.08280   0.28342   0.00000  Uiso   1.00
O302   O     0.86942   0.02682   0.23516   0.00000  Uiso   1.00
N303   N     0.84766   0.09169   0.07844   0.00000  Uiso   1.00
O304   O     0.85294   0.04976   0.06478   0.00000  Uiso   1.00
O305   O     0.84109   0.12290   0.04727   0.00000  Uiso   1.00
N306   N     0.62950   0.42772   0.24272   0.00000  Uiso   1.00
O307   O     0.61641   0.41598   0.28339   0.00000  Uiso   1.00
O308   O     0.62574   0.47038   0.23078   0.00000  Uiso   1.00
N309   N     0.83875   0.39859   0.25312   0.00000  Uiso   1.00
O310   O     0.84822   0.43618   0.27466   0.00000  Uiso   1.00
O311   O     0.82205   0.36532   0.27610   0.00000  Uiso   1.00
N312   N     0.62961   0.07045   0.08916   0.00000  Uiso   1.00
O313   O     0.61394   0.08281   0.04992   0.00000  Uiso   1.00
O314   O     0.63058   0.02683   0.09817   0.00000  Uiso   1.00
N315   N     0.65235   0.09170   0.25489   0.00000  Uiso   1.00
O316   O     0.64708   0.04978   0.26857   0.00000  Uiso   1.00
O317   O     0.65893   0.12293   0.28606   0.00000  Uiso   1.00
N318   N     0.87046   0.42765   0.09059   0.00000  Uiso   1.00
O319   O     0.88353   0.41589   0.04992   0.00000  Uiso   1.00
O320   O     0.87424   0.47032   0.10251   0.00000  Uiso   1.00
O321   O     0.04508   0.70491   0.20625   0.00000  Uiso   1.00
O322   O     0.45491   0.79509   0.12709   0.00000  Uiso   1.00
O323   O     0.45491   0.79509   0.20625   0.00000  Uiso   1.00
O324   O     0.04508   0.70491   0.12709   0.00000  Uiso   1.00
O325   O     0.45491   0.70491   0.12709   0.00000  Uiso   1.00
O326   O     0.04508   0.79509   0.20625   0.00000  Uiso   1.00
O327   O     0.04508   0.79509   0.12709   0.00000  Uiso   1.00
O328   O     0.45491   0.70491   0.20625   0.00000  Uiso   1.00
O329   O     0.29508   0.95491   0.20625   0.00000  Uiso   1.00
O330   O     0.20491   0.54509   0.12709   0.00000  Uiso   1.00
O331   O     0.20491   0.54509   0.20625   0.00000  Uiso   1.00
O332   O     0.29508   0.95491   0.12709   0.00000  Uiso   1.00
O333   O     0.20491   0.95491   0.12709   0.00000  Uiso   1.00
O334   O     0.29508   0.54509   0.20625   0.00000  Uiso   1.00
O335   O     0.29508   0.54509   0.12709   0.00000  Uiso   1.00
O336   O     0.20491   0.95491   0.20625   0.00000  Uiso   1.00
C337   C     0.06003   0.69127   0.16682   0.00000  Uiso   1.00
C338   C     0.43951   0.80801   0.16687   0.00000  Uiso   1.00
C339   C     0.43997   0.69127   0.16652   0.00000  Uiso   1.00
C340   C     0.06048   0.80801   0.16647   0.00000  Uiso   1.00
C341   C     0.30996   0.94111   0.16684   0.00000  Uiso   1.00
C342   C     0.18924   0.55772   0.16697   0.00000  Uiso   1.00
C343   C     0.19004   0.94112   0.16649   0.00000  Uiso   1.00
C344   C     0.31076   0.55772   0.16636   0.00000  Uiso   1.00
N345   N     0.00000   0.75000   0.28402   0.00000  Uiso   1.00
N346   N     0.00000   0.75000   0.04931   0.00000  Uiso   1.00
N347   N     0.25000   0.50000   0.28402   0.00000  Uiso   1.00
N348   N     0.25000   0.50000   0.04931   0.00000  Uiso   1.00
Cu349  Cu    0.00000   0.75000   0.21355   0.00000  Uiso   1.00
Cu350  Cu   -0.00000   0.75000   0.11978   0.00000  Uiso   1.00
Cu351  Cu    0.25000   0.50000   0.21355   0.00000  Uiso   1.00
Cu352  Cu    0.25000   0.50000   0.11978   0.00000  Uiso   1.00
C353   C     0.00133   0.70971   0.02466   0.00000  Uiso   1.00
C354   C     0.00121   0.79032   0.30866   0.00000  Uiso   1.00
C355   C     0.49877   0.79032   0.02467   0.00000  Uiso   1.00
C356   C     0.49867   0.70971   0.30867   0.00000  Uiso   1.00
C357   C     0.25115   0.95969   0.02467   0.00000  Uiso   1.00
C358   C     0.25096   0.54020   0.30840   0.00000  Uiso   1.00
C359   C     0.24905   0.54020   0.02493   0.00000  Uiso   1.00
C360   C     0.24883   0.95969   0.30866   0.00000  Uiso   1.00
C361   C     0.39468   0.63656   0.12380   0.00000  Uiso   1.00
C362   C     0.11530   0.85229   0.20700   0.00000  Uiso   1.00
C363   C     0.10970   0.85844   0.12354   0.00000  Uiso   1.00
C364   C     0.38568   0.64521   0.20673   0.00000  Uiso   1.00
C365   C     0.10532   0.63656   0.20954   0.00000  Uiso   1.00
C366   C     0.38466   0.85225   0.12634   0.00000  Uiso   1.00
C367   C     0.39029   0.85842   0.20980   0.00000  Uiso   1.00
C368   C     0.11432   0.64522   0.12660   0.00000  Uiso   1.00
C369   C     0.14256   0.88839   0.12360   0.00000  Uiso   1.00
C370   C     0.36474   0.60299   0.20695   0.00000  Uiso   1.00
C371   C     0.36242   0.60567   0.12296   0.00000  Uiso   1.00
C372   C     0.13675   0.89414   0.20705   0.00000  Uiso   1.00
C373   C     0.35743   0.88838   0.20973   0.00000  Uiso   1.00
C374   C     0.13527   0.60299   0.12639   0.00000  Uiso   1.00
C375   C     0.13759   0.60568   0.21038   0.00000  Uiso   1.00
C376   C     0.36322   0.89409   0.12628   0.00000  Uiso   1.00
C377   C     0.09578   0.83935   0.16555   0.00000  Uiso   1.00
C378   C     0.40598   0.65802   0.16561   0.00000  Uiso   1.00
C379   C     0.40421   0.83933   0.16779   0.00000  Uiso   1.00
C380   C     0.09402   0.65802   0.16773   0.00000  Uiso   1.00
C381   C     0.34655   0.58857   0.16518   0.00000  Uiso   1.00
C382   C     0.15601   0.90782   0.16560   0.00000  Uiso   1.00
C383   C     0.15346   0.58857   0.16815   0.00000  Uiso   1.00
C384   C     0.34397   0.90780   0.16773   0.00000  Uiso   1.00
N385   N     0.00408   0.66683   0.04794   0.00000  Uiso   1.00
H386   H     0.49552   0.66540   0.08167   0.00000  Uiso   1.00
C387   C     0.03923   0.63877   0.03897   0.00000  Uiso   1.00
H388   H     0.03023   0.60789   0.01937   0.00000  Uiso   1.00
H389   H     0.05187   0.62668   0.07220   0.00000  Uiso   1.00
H390   H     0.06291   0.65788   0.01985   0.00000  Uiso   1.00
N391   N     0.00392   0.83329   0.28547   0.00000  Uiso   1.00
H392   H     0.49456   0.83534   0.25205   0.00000  Uiso   1.00
C393   C     0.03936   0.86098   0.29417   0.00000  Uiso   1.00
H394   H     0.03074   0.89179   0.31415   0.00000  Uiso   1.00
H395   H     0.05204   0.87306   0.26090   0.00000  Uiso   1.00
H396   H     0.06294   0.84146   0.31305   0.00000  Uiso   1.00
N397   N     0.49604   0.83328   0.04785   0.00000  Uiso   1.00
H398   H     0.00555   0.83543   0.08123   0.00000  Uiso   1.00
C399   C     0.46056   0.86093   0.03922   0.00000  Uiso   1.00
H400   H     0.46914   0.89178   0.01927   0.00000  Uiso   1.00
H401   H     0.44789   0.87295   0.07252   0.00000  Uiso   1.00
H402   H     0.43700   0.84141   0.02033   0.00000  Uiso   1.00
N403   N     0.49592   0.66683   0.28539   0.00000  Uiso   1.00
H404   H     0.00449   0.66540   0.25167   0.00000  Uiso   1.00
C405   C     0.46078   0.63877   0.29437   0.00000  Uiso   1.00
H406   H     0.46977   0.60789   0.31396   0.00000  Uiso   1.00
H407   H     0.44813   0.62668   0.26114   0.00000  Uiso   1.00
H408   H     0.43710   0.65788   0.31349   0.00000  Uiso   1.00
N409   N     0.25367   0.91673   0.04791   0.00000  Uiso   1.00
H410   H     0.24474   0.91494   0.08148   0.00000  Uiso   1.00
C411   C     0.28881   0.88862   0.03897   0.00000  Uiso   1.00
H412   H     0.27984   0.85769   0.01943   0.00000  Uiso   1.00
H413   H     0.30152   0.87654   0.07214   0.00000  Uiso   1.00
H414   H     0.31237   0.90775   0.01967   0.00000  Uiso   1.00
N415   N     0.25294   0.58172   0.28311   0.00000  Uiso   1.00
H416   H     0.22636   0.59938   0.28038   0.00000  Uiso   1.00
C417   C     0.28786   0.61051   0.29012   0.00000  Uiso   1.00
H418   H     0.28044   0.63936   0.31351   0.00000  Uiso   1.00
H419   H     0.29691   0.62528   0.25641   0.00000  Uiso   1.00
H420   H     0.31331   0.59063   0.30484   0.00000  Uiso   1.00
N421   N     0.24707   0.58172   0.05022   0.00000  Uiso   1.00
H422   H     0.27365   0.59939   0.05294   0.00000  Uiso   1.00
C423   C     0.21215   0.61051   0.04321   0.00000  Uiso   1.00
H424   H     0.21956   0.63936   0.01982   0.00000  Uiso   1.00
H425   H     0.20310   0.62527   0.07692   0.00000  Uiso   1.00
H426   H     0.18670   0.59062   0.02849   0.00000  Uiso   1.00
N427   N     0.24630   0.91673   0.28543   0.00000  Uiso   1.00
H428   H     0.25528   0.91492   0.25187   0.00000  Uiso   1.00
C429   C     0.21114   0.88865   0.29434   0.00000  Uiso   1.00
H430   H     0.22008   0.85771   0.31388   0.00000  Uiso   1.00
H431   H     0.19844   0.87659   0.26116   0.00000  Uiso   1.00
H432   H     0.18759   0.90779   0.31363   0.00000  Uiso   1.00
N433   N     0.41536   0.64542   0.08123   0.00000  Uiso   1.00
O434   O     0.40695   0.68248   0.05818   0.00000  Uiso   1.00
O435   O     0.43285   0.61146   0.06008   0.00000  Uiso   1.00
N436   N     0.12030   0.81946   0.24408   0.00000  Uiso   1.00
O437   O     0.13559   0.83148   0.28363   0.00000  Uiso   1.00
O438   O     0.11918   0.77591   0.23474   0.00000  Uiso   1.00
N439   N     0.09101   0.84847   0.08009   0.00000  Uiso   1.00
O440   O     0.09980   0.81060   0.05869   0.00000  Uiso   1.00
O441   O     0.07433   0.88180   0.05722   0.00000  Uiso   1.00
N442   N     0.37948   0.67838   0.24323   0.00000  Uiso   1.00
O443   O     0.36382   0.66646   0.28266   0.00000  Uiso   1.00
O444   O     0.37963   0.72179   0.23320   0.00000  Uiso   1.00
N445   N     0.08465   0.64543   0.25210   0.00000  Uiso   1.00
O446   O     0.09306   0.68249   0.27515   0.00000  Uiso   1.00
O447   O     0.06717   0.61146   0.27326   0.00000  Uiso   1.00
N448   N     0.37966   0.81939   0.08928   0.00000  Uiso   1.00
O449   O     0.36433   0.83139   0.04974   0.00000  Uiso   1.00
O450   O     0.38081   0.77585   0.09864   0.00000  Uiso   1.00
N451   N     0.40898   0.84846   0.25324   0.00000  Uiso   1.00
O452   O     0.40019   0.81058   0.27465   0.00000  Uiso   1.00
O453   O     0.42567   0.88178   0.27611   0.00000  Uiso   1.00
N454   N     0.12053   0.67839   0.09010   0.00000  Uiso   1.00
O455   O     0.13619   0.66646   0.05068   0.00000  Uiso   1.00
O456   O     0.12037   0.72179   0.10013   0.00000  Uiso   1.00
N457   N     0.16124   0.89860   0.08021   0.00000  Uiso   1.00
O458   O     0.15178   0.93620   0.05868   0.00000  Uiso   1.00
O459   O     0.17793   0.86532   0.05723   0.00000  Uiso   1.00
N460   N     0.37039   0.57044   0.24417   0.00000  Uiso   1.00
O461   O     0.38607   0.58280   0.28342   0.00000  Uiso   1.00
O462   O     0.36942   0.52682   0.23516   0.00000  Uiso   1.00
N463   N     0.34766   0.59169   0.07844   0.00000  Uiso   1.00
O464   O     0.35294   0.54976   0.06478   0.00000  Uiso   1.00
O465   O     0.34109   0.62290   0.04727   0.00000  Uiso   1.00
N466   N     0.12950   0.92772   0.24272   0.00000  Uiso   1.00
O467   O     0.11641   0.91598   0.28339   0.00000  Uiso   1.00
O468   O     0.12574   0.97038   0.23078   0.00000  Uiso   1.00
N469   N     0.33875   0.89859   0.25312   0.00000  Uiso   1.00
O470   O     0.34822   0.93618   0.27466   0.00000  Uiso   1.00
O471   O     0.32205   0.86532   0.27610   0.00000  Uiso   1.00
N472   N     0.12961   0.57045   0.08916   0.00000  Uiso   1.00
O473   O     0.11394   0.58281   0.04992   0.00000  Uiso   1.00
O474   O     0.13058   0.52683   0.09817   0.00000  Uiso   1.00
N475   N     0.15235   0.59170   0.25489   0.00000  Uiso   1.00
O476   O     0.14708   0.54978   0.26857   0.00000  Uiso   1.00
O477   O     0.15893   0.62293   0.28606   0.00000  Uiso   1.00
N478   N     0.37046   0.92765   0.09059   0.00000  Uiso   1.00
O479   O     0.38353   0.91589   0.04992   0.00000  Uiso   1.00
O480   O     0.37424   0.97032   0.10251   0.00000  Uiso   1.00
O481   O     0.54508   0.70491   0.20625   0.00000  Uiso   1.00
O482   O     0.95491   0.79509   0.12709   0.00000  Uiso   1.00
O483   O     0.95491   0.79509   0.20625   0.00000  Uiso   1.00
O484   O     0.54508   0.70491   0.12709   0.00000  Uiso   1.00
O485   O     0.95491   0.70491   0.12709   0.00000  Uiso   1.00
O486   O     0.54508   0.79509   0.20625   0.00000  Uiso   1.00
O487   O     0.54508   0.79509   0.12709   0.00000  Uiso   1.00
O488   O     0.95491   0.70491   0.20625   0.00000  Uiso   1.00
O489   O     0.79508   0.95491   0.20625   0.00000  Uiso   1.00
O490   O     0.70491   0.54509   0.12709   0.00000  Uiso   1.00
O491   O     0.70491   0.54509   0.20625   0.00000  Uiso   1.00
O492   O     0.79508   0.95491   0.12709   0.00000  Uiso   1.00
O493   O     0.70491   0.95491   0.12709   0.00000  Uiso   1.00
O494   O     0.79508   0.54509   0.20625   0.00000  Uiso   1.00
O495   O     0.79508   0.54509   0.12709   0.00000  Uiso   1.00
O496   O     0.70491   0.95491   0.20625   0.00000  Uiso   1.00
C497   C     0.56003   0.69127   0.16682   0.00000  Uiso   1.00
C498   C     0.93951   0.80801   0.16687   0.00000  Uiso   1.00
C499   C     0.93997   0.69127   0.16652   0.00000  Uiso   1.00
C500   C     0.56048   0.80801   0.16647   0.00000  Uiso   1.00
C501   C     0.80996   0.94111   0.16684   0.00000  Uiso   1.00
C502   C     0.68924   0.55772   0.16697   0.00000  Uiso   1.00
C503   C     0.69004   0.94112   0.16649   0.00000  Uiso   1.00
C504   C     0.81076   0.55772   0.16636   0.00000  Uiso   1.00
N505   N     0.50000   0.75000   0.28402   0.00000  Uiso   1.00
N506   N     0.50000   0.75000   0.04931   0.00000  Uiso   1.00
N507   N     0.75000   0.50000   0.28402   0.00000  Uiso   1.00
N508   N     0.75000   0.50000   0.04931   0.00000  Uiso   1.00
Cu509  Cu    0.50000   0.75000   0.21355   0.00000  Uiso   1.00
Cu510  Cu    0.50000   0.75000   0.11978   0.00000  Uiso   1.00
Cu511  Cu    0.75000   0.50000   0.21355   0.00000  Uiso   1.00
Cu512  Cu    0.75000   0.50000   0.11978   0.00000  Uiso   1.00
C513   C     0.50133   0.70971   0.02466   0.00000  Uiso   1.00
C514   C     0.50121   0.79032   0.30866   0.00000  Uiso   1.00
C515   C     0.99877   0.79032   0.02467   0.00000  Uiso   1.00
C516   C     0.99867   0.70971   0.30867   0.00000  Uiso   1.00
C517   C     0.75115   0.95969   0.02467   0.00000  Uiso   1.00
C518   C     0.75096   0.54020   0.30840   0.00000  Uiso   1.00
C519   C     0.74905   0.54020   0.02493   0.00000  Uiso   1.00
C520   C     0.74883   0.95969   0.30866   0.00000  Uiso   1.00
C521   C     0.89468   0.63656   0.12380   0.00000  Uiso   1.00
C522   C     0.61530   0.85229   0.20700   0.00000  Uiso   1.00
C523   C     0.60970   0.85844   0.12354   0.00000  Uiso   1.00
C524   C     0.88568   0.64521   0.20673   0.00000  Uiso   1.00
C525   C     0.60532   0.63656   0.20954   0.00000  Uiso   1.00
C526   C     0.88466   0.85225   0.12634   0.00000  Uiso   1.00
C527   C     0.89029   0.85842   0.20980   0.00000  Uiso   1.00
C528   C     0.61432   0.64522   0.12660   0.00000  Uiso   1.00
C529   C     0.64256   0.88839   0.12360   0.00000  Uiso   1.00
C530   C     0.86474   0.60299   0.20695   0.00000  Uiso   1.00
C531   C     0.86242   0.60567   0.12296   0.00000  Uiso   1.00
C532   C     0.63675   0.89414   0.20705   0.00000  Uiso   1.00
C533   C     0.85743   0.88838   0.20973   0.00000  Uiso   1.00
C534   C     0.63527   0.60299   0.12639   0.00000  Uiso   1.00
C535   C     0.63759   0.60568   0.21038   0.00000  Uiso   1.00
C536   C     0.86322   0.89409   0.12628   0.00000  Uiso   1.00
C537   C     0.59578   0.83935   0.16555   0.00000  Uiso   1.00
C538   C     0.90598   0.65802   0.16561   0.00000  Uiso   1.00
C539   C     0.90421   0.83933   0.16779   0.00000  Uiso   1.00
C540   C     0.59402   0.65802   0.16773   0.00000  Uiso   1.00
C541   C     0.84655   0.58857   0.16518   0.00000  Uiso   1.00
C542   C     0.65601   0.90782   0.16560   0.00000  Uiso   1.00
C543   C     0.65346   0.58857   0.16815   0.00000  Uiso   1.00
C544   C     0.84397   0.90780   0.16773   0.00000  Uiso   1.00
N545   N     0.50408   0.66683   0.04794   0.00000  Uiso   1.00
H546   H     0.99552   0.66540   0.08167   0.00000  Uiso   1.00
C547   C     0.53923   0.63877   0.03897   0.00000  Uiso   1.00
H548   H     0.53023   0.60789   0.01937   0.00000  Uiso   1.00
H549   H     0.55187   0.62668   0.07220   0.00000  Uiso   1.00
H550   H     0.56291   0.65788   0.01985   0.00000  Uiso   1.00
N551   N     0.50392   0.83329   0.28547   0.00000  Uiso   1.00
H552   H     0.99456   0.83534   0.25205   0.00000  Uiso   1.00
C553   C     0.53936   0.86098   0.29417   0.00000  Uiso   1.00
H554   H     0.53074   0.89179   0.31415   0.00000  Uiso   1.00
H555   H     0.55204   0.87306   0.26090   0.00000  Uiso   1.00
H556   H     0.56294   0.84146   0.31305   0.00000  Uiso   1.00
N557   N     0.99604   0.83328   0.04785   0.00000  Uiso   1.00
H558   H     0.50555   0.83543   0.08123   0.00000  Uiso   1.00
C559   C     0.96056   0.86093   0.03922   0.00000  Uiso   1.00
H560   H     0.96914   0.89178   0.01927   0.00000  Uiso   1.00
H561   H     0.94789   0.87295   0.07252   0.00000  Uiso   1.00
H562   H     0.93700   0.84141   0.02033   0.00000  Uiso   1.00
N563   N     0.99592   0.66683   0.28539   0.00000  Uiso   1.00
H564   H     0.50449   0.66540   0.25167   0.00000  Uiso   1.00
C565   C     0.96078   0.63877   0.29437   0.00000  Uiso   1.00
H566   H     0.96977   0.60789   0.31396   0.00000  Uiso   1.00
H567   H     0.94813   0.62668   0.26114   0.00000  Uiso   1.00
H568   H     0.93710   0.65788   0.31349   0.00000  Uiso   1.00
N569   N     0.75367   0.91673   0.04791   0.00000  Uiso   1.00
H570   H     0.74474   0.91494   0.08148   0.00000  Uiso   1.00
C571   C     0.78881   0.88862   0.03897   0.00000  Uiso   1.00
H572   H     0.77984   0.85769   0.01943   0.00000  Uiso   1.00
H573   H     0.80152   0.87654   0.07214   0.00000  Uiso   1.00
H574   H     0.81237   0.90775   0.01967   0.00000  Uiso   1.00
N575   N     0.75294   0.58172   0.28311   0.00000  Uiso   1.00
H576   H     0.72636   0.59938   0.28038   0.00000  Uiso   1.00
C577   C     0.78786   0.61051   0.29012   0.00000  Uiso   1.00
H578   H     0.78044   0.63936   0.31351   0.00000  Uiso   1.00
H579   H     0.79691   0.62528   0.25641   0.00000  Uiso   1.00
H580   H     0.81331   0.59063   0.30484   0.00000  Uiso   1.00
N581   N     0.74707   0.58172   0.05022   0.00000  Uiso   1.00
H582   H     0.77365   0.59939   0.05294   0.00000  Uiso   1.00
C583   C     0.71215   0.61051   0.04321   0.00000  Uiso   1.00
H584   H     0.71956   0.63936   0.01982   0.00000  Uiso   1.00
H585   H     0.70310   0.62527   0.07692   0.00000  Uiso   1.00
H586   H     0.68670   0.59062   0.02849   0.00000  Uiso   1.00
N587   N     0.74630   0.91673   0.28543   0.00000  Uiso   1.00
H588   H     0.75528   0.91492   0.25187   0.00000  Uiso   1.00
C589   C     0.71114   0.88865   0.29434   0.00000  Uiso   1.00
H590   H     0.72008   0.85771   0.31388   0.00000  Uiso   1.00
H591   H     0.69844   0.87659   0.26116   0.00000  Uiso   1.00
H592   H     0.68759   0.90779   0.31363   0.00000  Uiso   1.00
N593   N     0.91536   0.64542   0.08123   0.00000  Uiso   1.00
O594   O     0.90695   0.68248   0.05818   0.00000  Uiso   1.00
O595   O     0.93285   0.61146   0.06008   0.00000  Uiso   1.00
N596   N     0.62030   0.81946   0.24408   0.00000  Uiso   1.00
O597   O     0.63559   0.83148   0.28363   0.00000  Uiso   1.00
O598   O     0.61918   0.77591   0.23474   0.00000  Uiso   1.00
N599   N     0.59101   0.84847   0.08009   0.00000  Uiso   1.00
O600   O     0.59980   0.81060   0.05869   0.00000  Uiso   1.00
O601   O     0.57433   0.88180   0.05722   0.00000  Uiso   1.00
N602   N     0.87948   0.67838   0.24323   0.00000  Uiso   1.00
O603   O     0.86382   0.66646   0.28266   0.00000  Uiso   1.00
O604   O     0.87963   0.72179   0.23320   0.00000  Uiso   1.00
N605   N     0.58465   0.64543   0.25210   0.00000  Uiso   1.00
O606   O     0.59306   0.68249   0.27515   0.00000  Uiso   1.00
O607   O     0.56717   0.61146   0.27326   0.00000  Uiso   1.00
N608   N     0.87966   0.81939   0.08928   0.00000  Uiso   1.00
O609   O     0.86433   0.83139   0.04974   0.00000  Uiso   1.00
O610   O     0.88081   0.77585   0.09864   0.00000  Uiso   1.00
N611   N     0.90898   0.84846   0.25324   0.00000  Uiso   1.00
O612   O     0.90019   0.81058   0.27465   0.00000  Uiso   1.00
O613   O     0.92567   0.88178   0.27611   0.00000  Uiso   1.00
N614   N     0.62053   0.67839   0.09010   0.00000  Uiso   1.00
O615   O     0.63619   0.66646   0.05068   0.00000  Uiso   1.00
O616   O     0.62037   0.72179   0.10013   0.00000  Uiso   1.00
N617   N     0.66124   0.89860   0.08021   0.00000  Uiso   1.00
O618   O     0.65178   0.93620   0.05868   0.00000  Uiso   1.00
O619   O     0.67793   0.86532   0.05723   0.00000  Uiso   1.00
N620   N     0.87039   0.57044   0.24417   0.00000  Uiso   1.00
O621   O     0.88607   0.58280   0.28342   0.00000  Uiso   1.00
O622   O     0.86942   0.52682   0.23516   0.00000  Uiso   1.00
N623   N     0.84766   0.59169   0.07844   0.00000  Uiso   1.00
O624   O     0.85294   0.54976   0.06478   0.00000  Uiso   1.00
O625   O     0.84109   0.62290   0.04727   0.00000  Uiso   1.00
N626   N     0.62950   0.92772   0.24272   0.00000  Uiso   1.00
O627   O     0.61641   0.91598   0.28339   0.00000  Uiso   1.00
O628   O     0.62574   0.97038   0.23078   0.00000  Uiso   1.00
N629   N     0.83875   0.89859   0.25312   0.00000  Uiso   1.00
O630   O     0.84822   0.93618   0.27466   0.00000  Uiso   1.00
O631   O     0.82205   0.86532   0.27610   0.00000  Uiso   1.00
N632   N     0.62961   0.57045   0.08916   0.00000  Uiso   1.00
O633   O     0.61394   0.58281   0.04992   0.00000  Uiso   1.00
O634   O     0.63058   0.52683   0.09817   0.00000  Uiso   1.00
N635   N     0.65235   0.59170   0.25489   0.00000  Uiso   1.00
O636   O     0.64708   0.54978   0.26857   0.00000  Uiso   1.00
O637   O     0.65893   0.62293   0.28606   0.00000  Uiso   1.00
N638   N     0.87046   0.92765   0.09059   0.00000  Uiso   1.00
O639   O     0.88353   0.91589   0.04992   0.00000  Uiso   1.00
O640   O     0.87424   0.97032   0.10251   0.00000  Uiso   1.00
O641   O     0.04508   0.20491   0.53958   0.00000  Uiso   1.00
O642   O     0.45491   0.29509   0.46042   0.00000  Uiso   1.00
O643   O     0.45491   0.29509   0.53958   0.00000  Uiso   1.00
O644   O     0.04508   0.20491   0.46042   0.00000  Uiso   1.00
O645   O     0.45491   0.20491   0.46042   0.00000  Uiso   1.00
O646   O     0.04508   0.29509   0.53958   0.00000  Uiso   1.00
O647   O     0.04508   0.29509   0.46042   0.00000  Uiso   1.00
O648   O     0.45491   0.20491   0.53958   0.00000  Uiso   1.00
O649   O     0.29508   0.45491   0.53958   0.00000  Uiso   1.00
O650   O     0.20491   0.04509   0.46042   0.00000  Uiso   1.00
O651   O     0.20491   0.04509   0.53958   0.00000  Uiso   1.00
O652   O     0.29508   0.45491   0.46042   0.00000  Uiso   1.00
O653   O     0.20491   0.45491   0.46042   0.00000  Uiso   1.00
O654   O     0.29508   0.04509   0.53958   0.00000  Uiso   1.00
O655   O     0.29508   0.04509   0.46042   0.00000  Uiso   1.00
O656   O     0.20491   0.45491   0.53958   0.00000  Uiso   1.00
C657   C     0.06003   0.19127   0.50015   0.00000  Uiso   1.00
C658   C     0.43951   0.30801   0.50020   0.00000  Uiso   1.00
C659   C     0.43997   0.19127   0.49985   0.00000  Uiso   1.00
C660   C     0.06048   0.30801   0.49980   0.00000  Uiso   1.00
C661   C     0.30996   0.44111   0.50018   0.00000  Uiso   1.00
C662   C     0.18924   0.05772   0.50031   0.00000  Uiso   1.00
C663   C     0.19004   0.44112   0.49982   0.00000  Uiso   1.00
C664   C     0.31076   0.05772   0.49969   0.00000  Uiso   1.00
N665   N     0.00000   0.25000   0.61736   0.00000  Uiso   1.00
N666   N     0.00000   0.25000   0.38264   0.00000  Uiso   1.00
N667   N     0.25000   0.00000   0.61736   0.00000  Uiso   1.00
N668   N     0.25000  -0.00000   0.38264   0.00000  Uiso   1.00
Cu669  Cu    0.00000   0.25000   0.54689   0.00000  Uiso   1.00
Cu670  Cu   -0.00000   0.25000   0.45311   0.00000  Uiso   1.00
Cu671  Cu    0.25000   0.00000   0.54689   0.00000  Uiso   1.00
Cu672  Cu    0.25000   0.00000   0.45311   0.00000  Uiso   1.00
C673   C     0.00133   0.20971   0.35800   0.00000  Uiso   1.00
C674   C     0.00121   0.29032   0.64200   0.00000  Uiso   1.00
C675   C     0.49877   0.29032   0.35800   0.00000  Uiso   1.00
C676   C     0.49867   0.20971   0.64201   0.00000  Uiso   1.00
C677   C     0.25115   0.45969   0.35800   0.00000  Uiso   1.00
C678   C     0.25096   0.04020   0.64173   0.00000  Uiso   1.00
C679   C     0.24905   0.04020   0.35826   0.00000  Uiso   1.00
C680   C     0.24883   0.45969   0.64200   0.00000  Uiso   1.00
C681   C     0.39468   0.13656   0.45713   0.00000  Uiso   1.00
C682   C     0.11530   0.35229   0.54034   0.00000  Uiso   1.00
C683   C     0.10970   0.35844   0.45687   0.00000  Uiso   1.00
C684   C     0.38568   0.14521   0.54006   0.00000  Uiso   1.00
C685   C     0.10532   0.13656   0.54287   0.00000  Uiso   1.00
C686   C     0.38466   0.35225   0.45968   0.00000  Uiso   1.00
C687   C     0.39029   0.35842   0.54313   0.00000  Uiso   1.00
C688   C     0.11432   0.14522   0.45994   0.00000  Uiso   1.00
C689   C     0.14256   0.38839   0.45694   0.00000  Uiso   1.00
C690   C     0.36474   0.10299   0.54028   0.00000  Uiso   1.00
C691   C     0.36242   0.10567   0.45629   0.00000  Uiso   1.00
C692   C     0.13675   0.39414   0.54038   0.00000  Uiso   1.00
C693   C     0.35743   0.38838   0.54306   0.00000  Uiso   1.00
C694   C     0.13527   0.10299   0.45972   0.00000  Uiso   1.00
C695   C     0.13759   0.10568   0.54371   0.00000  Uiso   1.00
C696   C     0.36322   0.39409   0.45962   0.00000  Uiso   1.00
C697   C     0.09578   0.33935   0.49889   0.00000  Uiso   1.00
C698   C     0.40598   0.15802   0.49894   0.00000  Uiso   1.00
C699   C     0.40421   0.33933   0.50112   0.00000  Uiso   1.00
C700   C     0.09402   0.15802   0.50106   0.00000  Uiso   1.00
C701   C     0.34655   0.08857   0.49851   0.00000  Uiso   1.00
C702   C     0.15601   0.40782   0.49893   0.00000  Uiso   1.00
C703   C     0.15346   0.08857   0.50149   0.00000  Uiso   1.00
C704   C     0.34397   0.40780   0.50107   0.00000  Uiso   1.00
N705   N     0.00408   0.16683   0.38128   0.00000  Uiso   1.00
H706   H     0.49552   0.16540   0.41500   0.00000  Uiso   1.00
C707   C     0.03923   0.13877   0.37231   0.00000  Uiso   1.00
H708   H     0.03023   0.10789   0.35271   0.00000  Uiso   1.00
H709   H     0.05187   0.12668   0.40553   0.00000  Uiso   1.00
H710   H     0.06291   0.15788   0.35318   0.00000  Uiso   1.00
N711   N     0.00392   0.33329   0.61880   0.00000  Uiso   1.00
H712   H     0.49456   0.33534   0.58539   0.00000  Uiso   1.00
C713   C     0.03936   0.36098   0.62750   0.00000  Uiso   1.00
H714   H     0.03074   0.39179   0.64749   0.00000  Uiso   1.00
H715   H     0.05204   0.37306   0.59423   0.00000  Uiso   1.00
H716   H     0.06294   0.34146   0.64638   0.00000  Uiso   1.00
N717   N     0.49604   0.33328   0.38119   0.00000  Uiso   1.00
H718   H     0.00555   0.33543   0.41456   0.00000  Uiso   1.00
C719   C     0.46056   0.36093   0.37255   0.00000  Uiso   1.00
H720   H     0.46914   0.39178   0.35260   0.00000  Uiso   1.00
H721   H     0.44789   0.37295   0.40585   0.00000  Uiso   1.00
H722   H     0.43700   0.34141   0.35366   0.00000  Uiso   1.00
N723   N     0.49592   0.16683   0.61873   0.00000  Uiso   1.00
H724   H     0.00449   0.16540   0.58500   0.00000  Uiso   1.00
C725   C     0.46078   0.13877   0.62770   0.00000  Uiso   1.00
H726   H     0.46977   0.10789   0.64730   0.00000  Uiso   1.00
H727   H     0.44813   0.12668   0.59447   0.00000  Uiso   1.00
H728   H     0.43710   0.15788   0.64682   0.00000  Uiso   1.00
N729   N     0.25367   0.41673   0.38124   0.00000  Uiso   1.00
H730   H     0.24474   0.41494   0.41482   0.00000  Uiso   1.00
C731   C     0.28881   0.38862   0.37230   0.00000  Uiso   1.00
H732   H     0.27984   0.35769   0.35276   0.00000  Uiso   1.00
H733   H     0.30152   0.37654   0.40548   0.00000  Uiso   1.00
H734   H     0.31237   0.40775   0.35301   0.00000  Uiso   1.00
N735   N     0.25294   0.08172   0.61644   0.00000  Uiso   1.00
H736   H     0.22636   0.09938   0.61372   0.00000  Uiso   1.00
C737   C     0.28786   0.11051   0.62345   0.00000  Uiso   1.00
H738   H     0.28044   0.13936   0.64684   0.00000  Uiso   1.00
H739   H     0.29691   0.12528   0.58975   0.00000  Uiso   1.00
H740   H     0.31331   0.09063   0.63818   0.00000  Uiso   1.00
N741   N     0.24707   0.08172   0.38356   0.00000  Uiso   1.00
H742   H     0.27365   0.09939   0.38627   0.00000  Uiso   1.00
C743   C     0.21215   0.11051   0.37655   0.00000  Uiso   1.00
H744   H     0.21956   0.13936   0.35316   0.00000  Uiso   1.00
H745   H     0.20310   0.12527   0.41025   0.00000  Uiso   1.00
H746   H     0.18670   0.09062   0.36182   0.00000  Uiso   1.00
N747   N     0.24630   0.41673   0.61876   0.00000  Uiso   1.00
H748   H     0.25528   0.41492   0.58520   0.00000  Uiso   1.00
C749   C     0.21114   0.38865   0.62768   0.00000  Uiso   1.00
H750   H     0.22008   0.35771   0.64722   0.00000  Uiso   1.00
H751   H     0.19844   0.37659   0.59449   0.00000  Uiso   1.00
H752   H     0.18759   0.40779   0.64697   0.00000  Uiso   1.00
N753   N     0.41536   0.14542   0.41457   0.00000  Uiso   1.00
O754   O     0.40695   0.18248   0.39152   0.00000  Uiso   1.00
O755   O     0.43285   0.11146   0.39341   0.00000  Uiso   1.00
N756   N     0.12030   0.31946   0.57741   0.00000  Uiso   1.00
O757   O     0.13559   0.33148   0.61696   0.00000  Uiso   1.00
O758   O     0.11918   0.27591   0.56807   0.00000  Uiso   1.00
N759   N     0.09101   0.34847   0.41343   0.00000  Uiso   1.00
O760   O     0.09980   0.31060   0.39202   0.00000  Uiso   1.00
O761   O     0.07433   0.38180   0.39055   0.00000  Uiso   1.00
N762   N     0.37948   0.17838   0.57657   0.00000  Uiso   1.00
O763   O     0.36382   0.16646   0.61600   0.00000  Uiso   1.00
O764   O     0.37963   0.22179   0.56654   0.00000  Uiso   1.00
N765   N     0.08465   0.14543   0.58544   0.00000  Uiso   1.00
O766   O     0.09306   0.18249   0.60848   0.00000  Uiso   1.00
O767   O     0.06717   0.11146   0.60660   0.00000  Uiso   1.00
N768   N     0.37966   0.31939   0.42262   0.00000  Uiso   1.00
O769   O     0.36433   0.33139   0.38308   0.00000  Uiso   1.00
O770   O     0.38081   0.27585   0.43197   0.00000  Uiso   1.00
N771   N     0.40898   0.34846   0.58658   0.00000  Uiso   1.00
O772   O     0.40019   0.31058   0.60799   0.00000  Uiso   1.00
O773   O     0.42567   0.38178   0.60944   0.00000  Uiso   1.00
N774   N     0.12053   0.17839   0.42343   0.00000  Uiso   1.00
O775   O     0.13619   0.16646   0.38401   0.00000  Uiso   1.00
O776   O     0.12037   0.22179   0.43346   0.00000  Uiso   1.00
N777   N     0.16124   0.39860   0.41355   0.00000  Uiso   1.00
O778   O     0.15178   0.43620   0.39201   0.00000  Uiso   1.00
O779   O     0.17793   0.36532   0.39057   0.00000  Uiso   1.00
N780   N     0.37039   0.07044   0.57751   0.00000  Uiso   1.00
O781   O     0.38607   0.08280   0.61675   0.00000  Uiso   1.00
O782   O     0.36942   0.02682   0.56850   0.00000  Uiso   1.00
N783   N     0.34766   0.09169   0.41178   0.00000  Uiso   1.00
O784   O     0.35294   0.04976   0.39811   0.00000  Uiso   1.00
O785   O     0.34109   0.12290   0.38060   0.00000  Uiso   1.00
N786   N     0.12950   0.42772   0.57605   0.00000  Uiso   1.00
O787   O     0.11641   0.41598   0.61672   0.00000  Uiso   1.00
O788   O     0.12574   0.47038   0.56411   0.00000  Uiso   1.00
N789   N     0.33875   0.39859   0.58646   0.00000  Uiso   1.00
O790   O     0.34822   0.43618   0.60799   0.00000  Uiso   1.00
O791   O     0.32205   0.36532   0.60943   0.00000  Uiso   1.00
N792   N     0.12961   0.07045   0.42249   0.00000  Uiso   1.00
O793   O     0.11394   0.08281   0.38325   0.00000  Uiso   1.00
O794   O     0.13058   0.02683   0.43151   0.00000  Uiso   1.00
N795   N     0.15235   0.09170   0.58823   0.00000  Uiso   1.00
O796   O     0.14708   0.04978   0.60190   0.00000  Uiso   1.00
O797   O     0.15893   0.12293   0.61939   0.00000  Uiso   1.00
N798   N     0.37046   0.42765   0.42392   0.00000  Uiso   1.00
O799   O     0.38353   0.41589   0.38325   0.00000  Uiso   1.00
O800   O     0.37424   0.47032   0.43584   0.00000  Uiso   1.00
O801   O     0.54508   0.20491   0.53958   0.00000  Uiso   1.00
O802   O     0.95491   0.29509   0.46042   0.00000  Uiso   1.00
O803   O     0.95491   0.29509   0.53958   0.00000  Uiso   1.00
O804   O     0.54508   0.20491   0.46042   0.00000  Uiso   1.00
O805   O     0.95491   0.20491   0.46042   0.00000  Uiso   1.00
O806   O     0.54508   0.29509   0.53958   0.00000  Uiso   1.00
O807   O     0.54508   0.29509   0.46042   0.00000  Uiso   1.00
O808   O     0.95491   0.20491   0.53958   0.00000  Uiso   1.00
O809   O     0.79508   0.45491   0.53958   0.00000  Uiso   1.00
O810   O     0.70491   0.04509   0.46042   0.00000  Uiso   1.00
O811   O     0.70491   0.04509   0.53958   0.00000  Uiso   1.00
O812   O     0.79508   0.45491   0.46042   0.00000  Uiso   1.00
O813   O     0.70491   0.45491   0.46042   0.00000  Uiso   1.00
O814   O     0.79508   0.04509   0.53958   0.00000  Uiso   1.00
O815   O     0.79508   0.04509   0.46042   0.00000  Uiso   1.00
O816   O     0.70491   0.45491   0.53958   0.00000  Uiso   1.00
C817   C     0.56003   0.19127   0.50015   0.00000  Uiso   1.00
C818   C     0.93951   0.30801   0.50020   0.00000  Uiso   1.00
C819   C     0.93997   0.19127   0.49985   0.00000  Uiso   1.00
C820   C     0.56048   0.30801   0.49980   0.00000  Uiso   1.00
C821   C     0.80996   0.44111   0.50018   0.00000  Uiso   1.00
C822   C     0.68924   0.05772   0.50031   0.00000  Uiso   1.00
C823   C     0.69004   0.44112   0.49982   0.00000  Uiso   1.00
C824   C     0.81076   0.05772   0.49969   0.00000  Uiso   1.00
N825   N     0.50000   0.25000   0.61736   0.00000  Uiso   1.00
N826   N     0.50000   0.25000   0.38264   0.00000  Uiso   1.00
N827   N     0.75000   0.00000   0.61736   0.00000  Uiso   1.00
N828   N     0.75000  -0.00000   0.38264   0.00000  Uiso   1.00
Cu829  Cu    0.50000   0.25000   0.54689   0.00000  Uiso   1.00
Cu830  Cu    0.50000   0.25000   0.45311   0.00000  Uiso   1.00
Cu831  Cu    0.75000   0.00000   0.54689   0.00000  Uiso   1.00
Cu832  Cu    0.75000   0.00000   0.45311   0.00000  Uiso   1.00
C833   C     0.50133   0.20971   0.35800   0.00000  Uiso   1.00
C834   C     0.50121   0.29032   0.64200   0.00000  Uiso   1.00
C835   C     0.99877   0.29032   0.35800   0.00000  Uiso   1.00
C836   C     0.99867   0.20971   0.64201   0.00000  Uiso   1.00
C837   C     0.75115   0.45969   0.35800   0.00000  Uiso   1.00
C838   C     0.75096   0.04020   0.64173   0.00000  Uiso   1.00
C839   C     0.74905   0.04020   0.35826   0.00000  Uiso   1.00
C840   C     0.74883   0.45969   0.64200   0.00000  Uiso   1.00
C841   C     0.89468   0.13656   0.45713   0.00000  Uiso   1.00
C842   C     0.61530   0.35229   0.54034   0.00000  Uiso   1.00
C843   C     0.60970   0.35844   0.45687   0.00000  Uiso   1.00
C844   C     0.88568   0.14521   0.54006   0.00000  Uiso   1.00
C845   C     0.60532   0.13656   0.54287   0.00000  Uiso   1.00
C846   C     0.88466   0.35225   0.45968   0.00000  Uiso   1.00
C847   C     0.89029   0.35842   0.54313   0.00000  Uiso   1.00
C848   C     0.61432   0.14522   0.45994   0.00000  Uiso   1.00
C849   C     0.64256   0.38839   0.45694   0.00000  Uiso   1.00
C850   C     0.86474   0.10299   0.54028   0.00000  Uiso   1.00
C851   C     0.86242   0.10567   0.45629   0.00000  Uiso   1.00
C852   C     0.63675   0.39414   0.54038   0.00000  Uiso   1.00
C853   C     0.85743   0.38838   0.54306   0.00000  Uiso   1.00
C854   C     0.63527   0.10299   0.45972   0.00000  Uiso   1.00
C855   C     0.63759   0.10568   0.54371   0.00000  Uiso   1.00
C856   C     0.86322   0.39409   0.45962   0.00000  Uiso   1.00
C857   C     0.59578   0.33935   0.49889   0.00000  Uiso   1.00
C858   C     0.90598   0.15802   0.49894   0.00000  Uiso   1.00
C859   C     0.90421   0.33933   0.50112   0.00000  Uiso   1.00
C860   C     0.59402   0.15802   0.50106   0.00000  Uiso   1.00
C861   C     0.84655   0.08857   0.49851   0.00000  Uiso   1.00
C862   C     0.65601   0.40782   0.49893   0.00000  Uiso   1.00
C863   C     0.65346   0.08857   0.50149   0.00000  Uiso   1.00
C864   C     0.84397   0.40780   0.50107   0.00000  Uiso   1.00
N865   N     0.50408   0.16683   0.38128   0.00000  Uiso   1.00
H866   H     0.99552   0.16540   0.41500   0.00000  Uiso   1.00
C867   C     0.53923   0.13877   0.37231   0.00000  Uiso   1.00
H868   H     0.53023   0.10789   0.35271   0.00000  Uiso   1.00
H869   H     0.55187   0.12668   0.40553   0.00000  Uiso   1.00
H870   H     0.56291   0.15788   0.35318   0.00000  Uiso   1.00
N871   N     0.50392   0.33329   0.61880   0.00000  Uiso   1.00
H872   H     0.99456   0.33534   0.58539   0.00000  Uiso   1.00
C873   C     0.53936   0.36098   0.62750   0.00000  Uiso   1.00
H874   H     0.53074   0.39179   0.64749   0.00000  Uiso   1.00
H875   H     0.55204   0.37306   0.59423   0.00000  Uiso   1.00
H876   H     0.56294   0.34146   0.64638   0.00000  Uiso   1.00
N877   N     0.99604   0.33328   0.38119   0.00000  Uiso   1.00
H878   H     0.50555   0.33543   0.41456   0.00000  Uiso   1.00
C879   C     0.96056   0.36093   0.37255   0.00000  Uiso   1.00
H880   H     0.96914   0.39178   0.35260   0.00000  Uiso   1.00
H881   H     0.94789   0.37295   0.40585   0.00000  Uiso   1.00
H882   H     0.93700   0.34141   0.35366   0.00000  Uiso   1.00
N883   N     0.99592   0.16683   0.61873   0.00000  Uiso   1.00
H884   H     0.50449   0.16540   0.58500   0.00000  Uiso   1.00
C885   C     0.96078   0.13877   0.62770   0.00000  Uiso   1.00
H886   H     0.96977   0.10789   0.64730   0.00000  Uiso   1.00
H887   H     0.94813   0.12668   0.59447   0.00000  Uiso   1.00
H888   H     0.93710   0.15788   0.64682   0.00000  Uiso   1.00
N889   N     0.75367   0.41673   0.38124   0.00000  Uiso   1.00
H890   H     0.74474   0.41494   0.41482   0.00000  Uiso   1.00
C891   C     0.78881   0.38862   0.37230   0.00000  Uiso   1.00
H892   H     0.77984   0.35769   0.35276   0.00000  Uiso   1.00
H893   H     0.80152   0.37654   0.40548   0.00000  Uiso   1.00
H894   H     0.81237   0.40775   0.35301   0.00000  Uiso   1.00
N895   N     0.75294   0.08172   0.61644   0.00000  Uiso   1.00
H896   H     0.72636   0.09938   0.61372   0.00000  Uiso   1.00
C897   C     0.78786   0.11051   0.62345   0.00000  Uiso   1.00
H898   H     0.78044   0.13936   0.64684   0.00000  Uiso   1.00
H899   H     0.79691   0.12528   0.58975   0.00000  Uiso   1.00
H900   H     0.81331   0.09063   0.63818   0.00000  Uiso   1.00
N901   N     0.74707   0.08172   0.38356   0.00000  Uiso   1.00
H902   H     0.77365   0.09939   0.38627   0.00000  Uiso   1.00
C903   C     0.71215   0.11051   0.37655   0.00000  Uiso   1.00
H904   H     0.71956   0.13936   0.35316   0.00000  Uiso   1.00
H905   H     0.70310   0.12527   0.41025   0.00000  Uiso   1.00
H906   H     0.68670   0.09062   0.36182   0.00000  Uiso   1.00
N907   N     0.74630   0.41673   0.61876   0.00000  Uiso   1.00
H908   H     0.75528   0.41492   0.58520   0.00000  Uiso   1.00
C909   C     0.71114   0.38865   0.62768   0.00000  Uiso   1.00
H910   H     0.72008   0.35771   0.64722   0.00000  Uiso   1.00
H911   H     0.69844   0.37659   0.59449   0.00000  Uiso   1.00
H912   H     0.68759   0.40779   0.64697   0.00000  Uiso   1.00
N913   N     0.91536   0.14542   0.41457   0.00000  Uiso   1.00
O914   O     0.90695   0.18248   0.39152   0.00000  Uiso   1.00
O915   O     0.93285   0.11146   0.39341   0.00000  Uiso   1.00
N916   N     0.62030   0.31946   0.57741   0.00000  Uiso   1.00
O917   O     0.63559   0.33148   0.61696   0.00000  Uiso   1.00
O918   O     0.61918   0.27591   0.56807   0.00000  Uiso   1.00
N919   N     0.59101   0.34847   0.41343   0.00000  Uiso   1.00
O920   O     0.59980   0.31060   0.39202   0.00000  Uiso   1.00
O921   O     0.57433   0.38180   0.39055   0.00000  Uiso   1.00
N922   N     0.87948   0.17838   0.57657   0.00000  Uiso   1.00
O923   O     0.86382   0.16646   0.61600   0.00000  Uiso   1.00
O924   O     0.87963   0.22179   0.56654   0.00000  Uiso   1.00
N925   N     0.58465   0.14543   0.58544   0.00000  Uiso   1.00
O926   O     0.59306   0.18249   0.60848   0.00000  Uiso   1.00
O927   O     0.56717   0.11146   0.60660   0.00000  Uiso   1.00
N928   N     0.87966   0.31939   0.42262   0.00000  Uiso   1.00
O929   O     0.86433   0.33139   0.38308   0.00000  Uiso   1.00
O930   O     0.88081   0.27585   0.43197   0.00000  Uiso   1.00
N931   N     0.90898   0.34846   0.58658   0.00000  Uiso   1.00
O932   O     0.90019   0.31058   0.60799   0.00000  Uiso   1.00
O933   O     0.92567   0.38178   0.60944   0.00000  Uiso   1.00
N934   N     0.62053   0.17839   0.42343   0.00000  Uiso   1.00
O935   O     0.63619   0.16646   0.38401   0.00000  Uiso   1.00
O936   O     0.62037   0.22179   0.43346   0.00000  Uiso   1.00
N937   N     0.66124   0.39860   0.41355   0.00000  Uiso   1.00
O938   O     0.65178   0.43620   0.39201   0.00000  Uiso   1.00
O939   O     0.67793   0.36532   0.39057   0.00000  Uiso   1.00
N940   N     0.87039   0.07044   0.57751   0.00000  Uiso   1.00
O941   O     0.88607   0.08280   0.61675   0.00000  Uiso   1.00
O942   O     0.86942   0.02682   0.56850   0.00000  Uiso   1.00
N943   N     0.84766   0.09169   0.41178   0.00000  Uiso   1.00
O944   O     0.85294   0.04976   0.39811   0.00000  Uiso   1.00
O945   O     0.84109   0.12290   0.38060   0.00000  Uiso   1.00
N946   N     0.62950   0.42772   0.57605   0.00000  Uiso   1.00
O947   O     0.61641   0.41598   0.61672   0.00000  Uiso   1.00
O948   O     0.62574   0.47038   0.56411   0.00000  Uiso   1.00
N949   N     0.83875   0.39859   0.58646   0.00000  Uiso   1.00
O950   O     0.84822   0.43618   0.60799   0.00000  Uiso   1.00
O951   O     0.82205   0.36532   0.60943   0.00000  Uiso   1.00
N952   N     0.62961   0.07045   0.42249   0.00000  Uiso   1.00
O953   O     0.61394   0.08281   0.38325   0.00000  Uiso   1.00
O954   O     0.63058   0.02683   0.43151   0.00000  Uiso   1.00
N955   N     0.65235   0.09170   0.58823   0.00000  Uiso   1.00
O956   O     0.64708   0.04978   0.60190   0.00000  Uiso   1.00
O957   O     0.65893   0.12293   0.61939   0.00000  Uiso   1.00
N958   N     0.87046   0.42765   0.42392   0.00000  Uiso   1.00
O959   O     0.88353   0.41589   0.38325   0.00000  Uiso   1.00
O960   O     0.87424   0.47032   0.43584   0.00000  Uiso   1.00
O961   O     0.04508   0.70491   0.53958   0.00000  Uiso   1.00
O962   O     0.45491   0.79509   0.46042   0.00000  Uiso   1.00
O963   O     0.45491   0.79509   0.53958   0.00000  Uiso   1.00
O964   O     0.04508   0.70491   0.46042   0.00000  Uiso   1.00
O965   O     0.45491   0.70491   0.46042   0.00000  Uiso   1.00
O966   O     0.04508   0.79509   0.53958   0.00000  Uiso   1.00
O967   O     0.04508   0.79509   0.46042   0.00000  Uiso   1.00
O968   O     0.45491   0.70491   0.53958   0.00000  Uiso   1.00
O969   O     0.29508   0.95491   0.53958   0.00000  Uiso   1.00
O970   O     0.20491   0.54509   0.46042   0.00000  Uiso   1.00
O971   O     0.20491   0.54509   0.53958   0.00000  Uiso   1.00
O972   O     0.29508   0.95491   0.46042   0.00000  Uiso   1.00
O973   O     0.20491   0.95491   0.46042   0.00000  Uiso   1.00
O974   O     0.29508   0.54509   0.53958   0.00000  Uiso   1.00
O975   O     0.29508   0.54509   0.46042   0.00000  Uiso   1.00
O976   O     0.20491   0.95491   0.53958   0.00000  Uiso   1.00
C977   C     0.06003   0.69127   0.50015   0.00000  Uiso   1.00
C978   C     0.43951   0.80801   0.50020   0.00000  Uiso   1.00
C979   C     0.43997   0.69127   0.49985   0.00000  Uiso   1.00
C980   C     0.06048   0.80801   0.49980   0.00000  Uiso   1.00
C981   C     0.30996   0.94111   0.50018   0.00000  Uiso   1.00
C982   C     0.18924   0.55772   0.50031   0.00000  Uiso   1.00
C983   C     0.19004   0.94112   0.49982   0.00000  Uiso   1.00
C984   C     0.31076   0.55772   0.49969   0.00000  Uiso   1.00
N985   N     0.00000   0.75000   0.61736   0.00000  Uiso   1.00
N986   N     0.00000   0.75000   0.38264   0.00000  Uiso   1.00
N987   N     0.25000   0.50000   0.61736   0.00000  Uiso   1.00
N988   N     0.25000   0.50000   0.38264   0.00000  Uiso   1.00
Cu989  Cu    0.00000   0.75000   0.54689   0.00000  Uiso   1.00
Cu990  Cu   -0.00000   0.75000   0.45311   0.00000  Uiso   1.00
Cu991  Cu    0.25000   0.50000   0.54689   0.00000  Uiso   1.00
Cu992  Cu    0.25000   0.50000   0.45311   0.00000  Uiso   1.00
C993   C     0.00133   0.70971   0.35800   0.00000  Uiso   1.00
C994   C     0.00121   0.79032   0.64200   0.00000  Uiso   1.00
C995   C     0.49877   0.79032   0.35800   0.00000  Uiso   1.00
C996   C     0.49867   0.70971   0.64201   0.00000  Uiso   1.00
C997   C     0.25115   0.95969   0.35800   0.00000  Uiso   1.00
C998   C     0.25096   0.54020   0.64173   0.00000  Uiso   1.00
C999   C     0.24905   0.54020   0.35826   0.00000  Uiso   1.00
C1000  C     0.24883   0.95969   0.64200   0.00000  Uiso   1.00
C1001  C     0.39468   0.63656   0.45713   0.00000  Uiso   1.00
C1002  C     0.11530   0.85229   0.54034   0.00000  Uiso   1.00
C1003  C     0.10970   0.85844   0.45687   0.00000  Uiso   1.00
C1004  C     0.38568   0.64521   0.54006   0.00000  Uiso   1.00
C1005  C     0.10532   0.63656   0.54287   0.00000  Uiso   1.00
C1006  C     0.38466   0.85225   0.45968   0.00000  Uiso   1.00
C1007  C     0.39029   0.85842   0.54313   0.00000  Uiso   1.00
C1008  C     0.11432   0.64522   0.45994   0.00000  Uiso   1.00
C1009  C     0.14256   0.88839   0.45694   0.00000  Uiso   1.00
C1010  C     0.36474   0.60299   0.54028   0.00000  Uiso   1.00
C1011  C     0.36242   0.60567   0.45629   0.00000  Uiso   1.00
C1012  C     0.13675   0.89414   0.54038   0.00000  Uiso   1.00
C1013  C     0.35743   0.88838   0.54306   0.00000  Uiso   1.00
C1014  C     0.13527   0.60299   0.45972   0.00000  Uiso   1.00
C1015  C     0.13759   0.60568   0.54371   0.00000  Uiso   1.00
C1016  C     0.36322   0.89409   0.45962   0.00000  Uiso   1.00
C1017  C     0.09578   0.83935   0.49889   0.00000  Uiso   1.00
C1018  C     0.40598   0.65802   0.49894   0.00000  Uiso   1.00
C1019  C     0.40421   0.83933   0.50112   0.00000  Uiso   1.00
C1020  C     0.09402   0.65802   0.50106   0.00000  Uiso   1.00
C1021  C     0.34655   0.58857   0.49851   0.00000  Uiso   1.00
C1022  C     0.15601   0.90782   0.49893   0.00000  Uiso   1.00
C1023  C     0.15346   0.58857   0.50149   0.00000  Uiso   1.00
C1024  C     0.34397   0.90780   0.50107   0.00000  Uiso   1.00
N1025  N     0.00408   0.66683   0.38128   0.00000  Uiso   1.00
H1026  H     0.49552   0.66540   0.41500   0.00000  Uiso   1.00
C1027  C     0.03923   0.63877   0.37231   0.00000  Uiso   1.00
H1028  H     0.03023   0.60789   0.35271   0.00000  Uiso   1.00
H1029  H     0.05187   0.62668   0.40553   0.00000  Uiso   1.00
H1030  H     0.06291   0.65788   0.35318   0.00000  Uiso   1.00
N1031  N     0.00392   0.83329   0.61880   0.00000  Uiso   1.00
H1032  H     0.49456   0.83534   0.58539   0.00000  Uiso   1.00
C1033  C     0.03936   0.86098   0.62750   0.00000  Uiso   1.00
H1034  H     0.03074   0.89179   0.64749   0.00000  Uiso   1.00
H1035  H     0.05204   0.87306   0.59423   0.00000  Uiso   1.00
H1036  H     0.06294   0.84146   0.64638   0.00000  Uiso   1.00
N1037  N     0.49604   0.83328   0.38119   0.00000  Uiso   1.00
H1038  H     0.00555   0.83543   0.41456   0.00000  Uiso   1.00
C1039  C     0.46056   0.86093   0.37255   0.00000  Uiso   1.00
H1040  H     0.46914   0.89178   0.35260   0.00000  Uiso   1.00
H1041  H     0.44789   0.87295   0.40585   0.00000  Uiso   1.00
H1042  H     0.43700   0.84141   0.35366   0.00000  Uiso   1.00
N1043  N     0.49592   0.66683   0.61873   0.00000  Uiso   1.00
H1044  H     0.00449   0.66540   0.58500   0.00000  Uiso   1.00
C1045  C     0.46078   0.63877   0.62770   0.00000  Uiso   1.00
H1046  H     0.46977   0.60789   0.64730   0.00000  Uiso   1.00
H1047  H     0.44813   0.62668   0.59447   0.00000  Uiso   1.00
H1048  H     0.43710   0.65788   0.64682   0.00000  Uiso   1.00
N1049  N     0.25367   0.91673   0.38124   0.00000  Uiso   1.00
H1050  H     0.24474   0.91494   0.41482   0.00000  Uiso   1.00
C1051  C     0.28881   0.88862   0.37230   0.00000  Uiso   1.00
H1052  H     0.27984   0.85769   0.35276   0.00000  Uiso   1.00
H1053  H     0.30152   0.87654   0.40548   0.00000  Uiso   1.00
H1054  H     0.31237   0.90775   0.35301   0.00000  Uiso   1.00
N1055  N     0.25294   0.58172   0.61644   0.00000  Uiso   1.00
H1056  H     0.22636   0.59938   0.61372   0.00000  Uiso   1.00
C1057  C     0.28786   0.61051   0.62345   0.00000  Uiso   1.00
H1058  H     0.28044   0.63936   0.64684   0.00000  Uiso   1.00
H1059  H     0.29691   0.62528   0.58975   0.00000  Uiso   1.00
H1060  H     0.31331   0.59063   0.63818   0.00000  Uiso   1.00
N1061  N     0.24707   0.58172   0.38356   0.00000  Uiso   1.00
H1062  H     0.27365   0.59939   0.38627   0.00000  Uiso   1.00
C1063  C     0.21215   0.61051   0.37655   0.00000  Uiso   1.00
H1064  H     0.21956   0.63936   0.35316   0.00000  Uiso   1.00
H1065  H     0.20310   0.62527   0.41025   0.00000  Uiso   1.00
H1066  H     0.18670   0.59062   0.36182   0.00000  Uiso   1.00
N1067  N     0.24630   0.91673   0.61876   0.00000  Uiso   1.00
H1068  H     0.25528   0.91492   0.58520   0.00000  Uiso   1.00
C1069  C     0.21114   0.88865   0.62768   0.00000  Uiso   1.00
H1070  H     0.22008   0.85771   0.64722   0.00000  Uiso   1.00
H1071  H     0.19844   0.87659   0.59449   0.00000  Uiso   1.00
H1072  H     0.18759   0.90779   0.64697   0.00000  Uiso   1.00
N1073  N     0.41536   0.64542   0.41457   0.00000  Uiso   1.00
O1074  O     0.40695   0.68248   0.39152   0.00000  Uiso   1.00
O1075  O     0.43285   0.61146   0.39341   0.00000  Uiso   1.00
N1076  N     0.12030   0.81946   0.57741   0.00000  Uiso   1.00
O1077  O     0.13559   0.83148   0.61696   0.00000  Uiso   1.00
O1078  O     0.11918   0.77591   0.56807   0.00000  Uiso   1.00
N1079  N     0.09101   0.84847   0.41343   0.00000  Uiso   1.00
O1080  O     0.09980   0.81060   0.39202   0.00000  Uiso   1.00
O1081  O     0.07433   0.88180   0.39055   0.00000  Uiso   1.00
N1082  N     0.37948   0.67838   0.57657   0.00000  Uiso   1.00
O1083  O     0.36382   0.66646   0.61600   0.00000  Uiso   1.00
O1084  O     0.37963   0.72179   0.56654   0.00000  Uiso   1.00
N1085  N     0.08465   0.64543   0.58544   0.00000  Uiso   1.00
O1086  O     0.09306   0.68249   0.60848   0.00000  Uiso   1.00
O1087  O     0.06717   0.61146   0.60660   0.00000  Uiso   1.00
N1088  N     0.37966   0.81939   0.42262   0.00000  Uiso   1.00
O1089  O     0.36433   0.83139   0.38308   0.00000  Uiso   1.00
O1090  O     0.38081   0.77585   0.43197   0.00000  Uiso   1.00
N1091  N     0.40898   0.84846   0.58658   0.00000  Uiso   1.00
O1092  O     0.40019   0.81058   0.60799   0.00000  Uiso   1.00
O1093  O     0.42567   0.88178   0.60944   0.00000  Uiso   1.00
N1094  N     0.12053   0.67839   0.42343   0.00000  Uiso   1.00
O1095  O     0.13619   0.66646   0.38401   0.00000  Uiso   1.00
O1096  O     0.12037   0.72179   0.43346   0.00000  Uiso   1.00
N1097  N     0.16124   0.89860   0.41355   0.00000  Uiso   1.00
O1098  O     0.15178   0.93620   0.39201   0.00000  Uiso   1.00
O1099  O     0.17793   0.86532   0.39057   0.00000  Uiso   1.00
N1100  N     0.37039   0.57044   0.57751   0.00000  Uiso   1.00
O1101  O     0.38607   0.58280   0.61675   0.00000  Uiso   1.00
O1102  O     0.36942   0.52682   0.56850   0.00000  Uiso   1.00
N1103  N     0.34766   0.59169   0.41178   0.00000  Uiso   1.00
O1104  O     0.35294   0.54976   0.39811   0.00000  Uiso   1.00
O1105  O     0.34109   0.62290   0.38060   0.00000  Uiso   1.00
N1106  N     0.12950   0.92772   0.57605   0.00000  Uiso   1.00
O1107  O     0.11641   0.91598   0.61672   0.00000  Uiso   1.00
O1108  O     0.12574   0.97038   0.56411   0.00000  Uiso   1.00
N1109  N     0.33875   0.89859   0.58646   0.00000  Uiso   1.00
O1110  O     0.34822   0.93618   0.60799   0.00000  Uiso   1.00
O1111  O     0.32205   0.86532   0.60943   0.00000  Uiso   1.00
N1112  N     0.12961   0.57045   0.42249   0.00000  Uiso   1.00
O1113  O     0.11394   0.58281   0.38325   0.00000  Uiso   1.00
O1114  O     0.13058   0.52683   0.43151   0.00000  Uiso   1.00
N1115  N     0.15235   0.59170   0.58823   0.00000  Uiso   1.00
O1116  O     0.14708   0.54978   0.60190   0.00000  Uiso   1.00
O1117  O     0.15893   0.62293   0.61939   0.00000  Uiso   1.00
N1118  N     0.37046   0.92765   0.42392   0.00000  Uiso   1.00
O1119  O     0.38353   0.91589   0.38325   0.00000  Uiso   1.00
O1120  O     0.37424   0.97032   0.43584   0.00000  Uiso   1.00
O1121  O     0.54508   0.70491   0.53958   0.00000  Uiso   1.00
O1122  O     0.95491   0.79509   0.46042   0.00000  Uiso   1.00
O1123  O     0.95491   0.79509   0.53958   0.00000  Uiso   1.00
O1124  O     0.54508   0.70491   0.46042   0.00000  Uiso   1.00
O1125  O     0.95491   0.70491   0.46042   0.00000  Uiso   1.00
O1126  O     0.54508   0.79509   0.53958   0.00000  Uiso   1.00
O1127  O     0.54508   0.79509   0.46042   0.00000  Uiso   1.00
O1128  O     0.95491   0.70491   0.53958   0.00000  Uiso   1.00
O1129  O     0.79508   0.95491   0.53958   0.00000  Uiso   1.00
O1130  O     0.70491   0.54509   0.46042   0.00000  Uiso   1.00
O1131  O     0.70491   0.54509   0.53958   0.00000  Uiso   1.00
O1132  O     0.79508   0.95491   0.46042   0.00000  Uiso   1.00
O1133  O     0.70491   0.95491   0.46042   0.00000  Uiso   1.00
O1134  O     0.79508   0.54509   0.53958   0.00000  Uiso   1.00
O1135  O     0.79508   0.54509   0.46042   0.00000  Uiso   1.00
O1136  O     0.70491   0.95491   0.53958   0.00000  Uiso   1.00
C1137  C     0.56003   0.69127   0.50015   0.00000  Uiso   1.00
C1138  C     0.93951   0.80801   0.50020   0.00000  Uiso   1.00
C1139  C     0.93997   0.69127   0.49985   0.00000  Uiso   1.00
C1140  C     0.56048   0.80801   0.49980   0.00000  Uiso   1.00
C1141  C     0.80996   0.94111   0.50018   0.00000  Uiso   1.00
C1142  C     0.68924   0.55772   0.50031   0.00000  Uiso   1.00
C1143  C     0.69004   0.94112   0.49982   0.00000  Uiso   1.00
C1144  C     0.81076   0.55772   0.49969   0.00000  Uiso   1.00
N1145  N     0.50000   0.75000   0.61736   0.00000  Uiso   1.00
N1146  N     0.50000   0.75000   0.38264   0.00000  Uiso   1.00
N1147  N     0.75000   0.50000   0.61736   0.00000  Uiso   1.00
N1148  N     0.75000   0.50000   0.38264   0.00000  Uiso   1.00
Cu1149 Cu    0.50000   0.75000   0.54689   0.00000  Uiso   1.00
Cu1150 Cu    0.50000   0.75000   0.45311   0.00000  Uiso   1.00
Cu1151 Cu    0.75000   0.50000   0.54689   0.00000  Uiso   1.00
Cu1152 Cu    0.75000   0.50000   0.45311   0.00000  Uiso   1.00
C1153  C     0.50133   0.70971   0.35800   0.00000  Uiso   1.00
C1154  C     0.50121   0.79032   0.64200   0.00000  Uiso   1.00
C1155  C     0.99877   0.79032   0.35800   0.00000  Uiso   1.00
C1156  C     0.99867   0.70971   0.64201   0.00000  Uiso   1.00
C1157  C     0.75115   0.95969   0.35800   0.00000  Uiso   1.00
C1158  C     0.75096   0.54020   0.64173   0.00000  Uiso   1.00
C1159  C     0.74905   0.54020   0.35826   0.00000  Uiso   1.00
C1160  C     0.74883   0.95969   0.64200   0.00000  Uiso   1.00
C1161  C     0.89468   0.63656   0.45713   0.00000  Uiso   1.00
C1162  C     0.61530   0.85229   0.54034   0.00000  Uiso   1.00
C1163  C     0.60970   0.85844   0.45687   0.00000  Uiso   1.00
C1164  C     0.88568   0.64521   0.54006   0.00000  Uiso   1.00
C1165  C     0.60532   0.63656   0.54287   0.00000  Uiso   1.00
C1166  C     0.88466   0.85225   0.45968   0.00000  Uiso   1.00
C1167  C     0.89029   0.85842   0.54313   0.00000  Uiso   1.00
C1168  C     0.61432   0.64522   0.45994   0.00000  Uiso   1.00
C1169  C     0.64256   0.88839   0.45694   0.00000  Uiso   1.00
C1170  C     0.86474   0.60299   0.54028   0.00000  Uiso   1.00
C1171  C     0.86242   0.60567   0.45629   0.00000  Uiso   1.00
C1172  C     0.63675   0.89414   0.54038   0.00000  Uiso   1.00
C1173  C     0.85743   0.88838   0.54306   0.00000  Uiso   1.00
C1174  C     0.63527   0.60299   0.45972   0.00000  Uiso   1.00
C1175  C     0.63759   0.60568   0.54371   0.00000  Uiso   1.00
C1176  C     0.86322   0.89409   0.45962   0.00000  Uiso   1.00
C1177  C     0.59578   0.83935   0.49889   0.00000  Uiso   1.00
C1178  C     0.90598   0.65802   0.49894   0.00000  Uiso   1.00
C1179  C     0.90421   0.83933   0.50112   0.00000  Uiso   1.00
C1180  C     0.59402   0.65802   0.50106   0.00000  Uiso   1.00
C1181  C     0.84655   0.58857   0.49851   0.00000  Uiso   1.00
C1182  C     0.65601   0.90782   0.49893   0.00000  Uiso   1.00
C1183  C     0.65346   0.58857   0.50149   0.00000  Uiso   1.00
C1184  C     0.84397   0.90780   0.50107   0.00000  Uiso   1.00
N1185  N     0.50408   0.66683   0.38128   0.00000  Uiso   1.00
H1186  H     0.99552   0.66540   0.41500   0.00000  Uiso   1.00
C1187  C     0.53923   0.63877   0.37231   0.00000  Uiso   1.00
H1188  H     0.53023   0.60789   0.35271   0.00000  Uiso   1.00
H1189  H     0.55187   0.62668   0.40553   0.00000  Uiso   1.00
H1190  H     0.56291   0.65788   0.35318   0.00000  Uiso   1.00
N1191  N     0.50392   0.83329   0.61880   0.00000  Uiso   1.00
H1192  H     0.99456   0.83534   0.58539   0.00000  Uiso   1.00
C1193  C     0.53936   0.86098   0.62750   0.00000  Uiso   1.00
H1194  H     0.53074   0.89179   0.64749   0.00000  Uiso   1.00
H1195  H     0.55204   0.87306   0.59423   0.00000  Uiso   1.00
H1196  H     0.56294   0.84146   0.64638   0.00000  Uiso   1.00
N1197  N     0.99604   0.83328   0.38119   0.00000  Uiso   1.00
H1198  H     0.50555   0.83543   0.41456   0.00000  Uiso   1.00
C1199  C     0.96056   0.86093   0.37255   0.00000  Uiso   1.00
H1200  H     0.96914   0.89178   0.35260   0.00000  Uiso   1.00
H1201  H     0.94789   0.87295   0.40585   0.00000  Uiso   1.00
H1202  H     0.93700   0.84141   0.35366   0.00000  Uiso   1.00
N1203  N     0.99592   0.66683   0.61873   0.00000  Uiso   1.00
H1204  H     0.50449   0.66540   0.58500   0.00000  Uiso   1.00
C1205  C     0.96078   0.63877   0.62770   0.00000  Uiso   1.00
H1206  H     0.96977   0.60789   0.64730   0.00000  Uiso   1.00
H1207  H     0.94813   0.62668   0.59447   0.00000  Uiso   1.00
H1208  H     0.93710   0.65788   0.64682   0.00000  Uiso   1.00
N1209  N     0.75367   0.91673   0.38124   0.00000  Uiso   1.00
H1210  H     0.74474   0.91494   0.41482   0.00000  Uiso   1.00
C1211  C     0.78881   0.88862   0.37230   0.00000  Uiso   1.00
H1212  H     0.77984   0.85769   0.35276   0.00000  Uiso   1.00
H1213  H     0.80152   0.87654   0.40548   0.00000  Uiso   1.00
H1214  H     0.81237   0.90775   0.35301   0.00000  Uiso   1.00
N1215  N     0.75294   0.58172   0.61644   0.00000  Uiso   1.00
H1216  H     0.72636   0.59938   0.61372   0.00000  Uiso   1.00
C1217  C     0.78786   0.61051   0.62345   0.00000  Uiso   1.00
H1218  H     0.78044   0.63936   0.64684   0.00000  Uiso   1.00
H1219  H     0.79691   0.62528   0.58975   0.00000  Uiso   1.00
H1220  H     0.81331   0.59063   0.63818   0.00000  Uiso   1.00
N1221  N     0.74707   0.58172   0.38356   0.00000  Uiso   1.00
H1222  H     0.77365   0.59939   0.38627   0.00000  Uiso   1.00
C1223  C     0.71215   0.61051   0.37655   0.00000  Uiso   1.00
H1224  H     0.71956   0.63936   0.35316   0.00000  Uiso   1.00
H1225  H     0.70310   0.62527   0.41025   0.00000  Uiso   1.00
H1226  H     0.68670   0.59062   0.36182   0.00000  Uiso   1.00
N1227  N     0.74630   0.91673   0.61876   0.00000  Uiso   1.00
H1228  H     0.75528   0.91492   0.58520   0.00000  Uiso   1.00
C1229  C     0.71114   0.88865   0.62768   0.00000  Uiso   1.00
H1230  H     0.72008   0.85771   0.64722   0.00000  Uiso   1.00
H1231  H     0.69844   0.87659   0.59449   0.00000  Uiso   1.00
H1232  H     0.68759   0.90779   0.64697   0.00000  Uiso   1.00
N1233  N     0.91536   0.64542   0.41457   0.00000  Uiso   1.00
O1234  O     0.90695   0.68248   0.39152   0.00000  Uiso   1.00
O1235  O     0.93285   0.61146   0.39341   0.00000  Uiso   1.00
N1236  N     0.62030   0.81946   0.57741   0.00000  Uiso   1.00
O1237  O     0.63559   0.83148   0.61696   0.00000  Uiso   1.00
O1238  O     0.61918   0.77591   0.56807   0.00000  Uiso   1.00
N1239  N     0.59101   0.84847   0.41343   0.00000  Uiso   1.00
O1240  O     0.59980   0.81060   0.39202   0.00000  Uiso   1.00
O1241  O     0.57433   0.88180   0.39055   0.00000  Uiso   1.00
N1242  N     0.87948   0.67838   0.57657   0.00000  Uiso   1.00
O1243  O     0.86382   0.66646   0.61600   0.00000  Uiso   1.00
O1244  O     0.87963   0.72179   0.56654   0.00000  Uiso   1.00
N1245  N     0.58465   0.64543   0.58544   0.00000  Uiso   1.00
O1246  O     0.59306   0.68249   0.60848   0.00000  Uiso   1.00
O1247  O     0.56717   0.61146   0.60660   0.00000  Uiso   1.00
N1248  N     0.87966   0.81939   0.42262   0.00000  Uiso   1.00
O1249  O     0.86433   0.83139   0.38308   0.00000  Uiso   1.00
O1250  O     0.88081   0.77585   0.43197   0.00000  Uiso   1.00
N1251  N     0.90898   0.84846   0.58658   0.00000  Uiso   1.00
O1252  O     0.90019   0.81058   0.60799   0.00000  Uiso   1.00
O1253  O     0.92567   0.88178   0.60944   0.00000  Uiso   1.00
N1254  N     0.62053   0.67839   0.42343   0.00000  Uiso   1.00
O1255  O     0.63619   0.66646   0.38401   0.00000  Uiso   1.00
O1256  O     0.62037   0.72179   0.43346   0.00000  Uiso   1.00
N1257  N     0.66124   0.89860   0.41355   0.00000  Uiso   1.00
O1258  O     0.65178   0.93620   0.39201   0.00000  Uiso   1.00
O1259  O     0.67793   0.86532   0.39057   0.00000  Uiso   1.00
N1260  N     0.87039   0.57044   0.57751   0.00000  Uiso   1.00
O1261  O     0.88607   0.58280   0.61675   0.00000  Uiso   1.00
O1262  O     0.86942   0.52682   0.56850   0.00000  Uiso   1.00
N1263  N     0.84766   0.59169   0.41178   0.00000  Uiso   1.00
O1264  O     0.85294   0.54976   0.39811   0.00000  Uiso   1.00
O1265  O     0.84109   0.62290   0.38060   0.00000  Uiso   1.00
N1266  N     0.62950   0.92772   0.57605   0.00000  Uiso   1.00
O1267  O     0.61641   0.91598   0.61672   0.00000  Uiso   1.00
O1268  O     0.62574   0.97038   0.56411   0.00000  Uiso   1.00
N1269  N     0.83875   0.89859   0.58646   0.00000  Uiso   1.00
O1270  O     0.84822   0.93618   0.60799   0.00000  Uiso   1.00
O1271  O     0.82205   0.86532   0.60943   0.00000  Uiso   1.00
N1272  N     0.62961   0.57045   0.42249   0.00000  Uiso   1.00
O1273  O     0.61394   0.58281   0.38325   0.00000  Uiso   1.00
O1274  O     0.63058   0.52683   0.43151   0.00000  Uiso   1.00
N1275  N     0.65235   0.59170   0.58823   0.00000  Uiso   1.00
O1276  O     0.64708   0.54978   0.60190   0.00000  Uiso   1.00
O1277  O     0.65893   0.62293   0.61939   0.00000  Uiso   1.00
N1278  N     0.87046   0.92765   0.42392   0.00000  Uiso   1.00
O1279  O     0.88353   0.91589   0.38325   0.00000  Uiso   1.00
O1280  O     0.87424   0.97032   0.43584   0.00000  Uiso   1.00
O1281  O     0.04508   0.20491   0.87291   0.00000  Uiso   1.00
O1282  O     0.45491   0.29509   0.79375   0.00000  Uiso   1.00
O1283  O     0.45491   0.29509   0.87291   0.00000  Uiso   1.00
O1284  O     0.04508   0.20491   0.79375   0.00000  Uiso   1.00
O1285  O     0.45491   0.20491   0.79375   0.00000  Uiso   1.00
O1286  O     0.04508   0.29509   0.87291   0.00000  Uiso   1.00
O1287  O     0.04508   0.29509   0.79375   0.00000  Uiso   1.00
O1288  O     0.45491   0.20491   0.87291   0.00000  Uiso   1.00
O1289  O     0.29508   0.45491   0.87291   0.00000  Uiso   1.00
O1290  O     0.20491   0.04509   0.79375   0.00000  Uiso   1.00
O1291  O     0.20491   0.04509   0.87291   0.00000  Uiso   1.00
O1292  O     0.29508   0.45491   0.79375   0.00000  Uiso   1.00
O1293  O     0.20491   0.45491   0.79375   0.00000  Uiso   1.00
O1294  O     0.29508   0.04509   0.87291   0.00000  Uiso   1.00
O1295  O     0.29508   0.04509   0.79375   0.00000  Uiso   1.00
O1296  O     0.20491   0.45491   0.87291   0.00000  Uiso   1.00
C1297  C     0.06003   0.19127   0.83348   0.00000  Uiso   1.00
C1298  C     0.43951   0.30801   0.83354   0.00000  Uiso   1.00
C1299  C     0.43997   0.19127   0.83319   0.00000  Uiso   1.00
C1300  C     0.06048   0.30801   0.83313   0.00000  Uiso   1.00
C1301  C     0.30996   0.44111   0.83351   0.00000  Uiso   1.00
C1302  C     0.18924   0.05772   0.83364   0.00000  Uiso   1.00
C1303  C     0.19004   0.44112   0.83316   0.00000  Uiso   1.00
C1304  C     0.31076   0.05772   0.83303   0.00000  Uiso   1.00
N1305  N     0.00000   0.25000   0.95069   0.00000  Uiso   1.00
N1306  N     0.00000   0.25000   0.71598   0.00000  Uiso   1.00
N1307  N     0.25000   0.00000   0.95069   0.00000  Uiso   1.00
N1308  N     0.25000  -0.00000   0.71598   0.00000  Uiso   1.00
Cu1309 Cu    0.00000   0.25000   0.88022   0.00000  Uiso   1.00
Cu1310 Cu   -0.00000   0.25000   0.78645   0.00000  Uiso   1.00
Cu1311 Cu    0.25000   0.00000   0.88022   0.00000  Uiso   1.00
Cu1312 Cu    0.25000   0.00000   0.78645   0.00000  Uiso   1.00
C1313  C     0.00133   0.20971   0.69133   0.00000  Uiso   1.00
C1314  C     0.00121   0.29032   0.97533   0.00000  Uiso   1.00
C1315  C     0.49877   0.29032   0.69134   0.00000  Uiso   1.00
C1316  C     0.49867   0.20971   0.97534   0.00000  Uiso   1.00
C1317  C     0.25115   0.45969   0.69134   0.00000  Uiso   1.00
C1318  C     0.25096   0.04020   0.97507   0.00000  Uiso   1.00
C1319  C     0.24905   0.04020   0.69160   0.00000  Uiso   1.00
C1320  C     0.24883   0.45969   0.97533   0.00000  Uiso   1.00
C1321  C     0.39468   0.13656   0.79046   0.00000  Uiso   1.00
C1322  C     0.11530   0.35229   0.87367   0.00000  Uiso   1.00
C1323  C     0.10970   0.35844   0.79021   0.00000  Uiso   1.00
C1324  C     0.38568   0.14521   0.87340   0.00000  Uiso   1.00
C1325  C     0.10532   0.13656   0.87620   0.00000  Uiso   1.00
C1326  C     0.38466   0.35225   0.79301   0.00000  Uiso   1.00
C1327  C     0.39029   0.35842   0.87646   0.00000  Uiso   1.00
C1328  C     0.11432   0.14522   0.79327   0.00000  Uiso   1.00
C1329  C     0.14256   0.38839   0.79027   0.00000  Uiso   1.00
C1330  C     0.36474   0.10299   0.87361   0.00000  Uiso   1.00
C1331  C     0.36242   0.10567   0.78962   0.00000  Uiso   1.00
C1332  C     0.13675   0.39414   0.87371   0.00000  Uiso   1.00
C1333  C     0.35743   0.38838   0.87640   0.00000  Uiso   1.00
C1334  C     0.13527   0.10299   0.79305   0.00000  Uiso   1.00
C1335  C     0.13759   0.10568   0.87705   0.00000  Uiso   1.00
C1336  C     0.36322   0.39409   0.79295   0.00000  Uiso   1.00
C1337  C     0.09578   0.33935   0.83222   0.00000  Uiso   1.00
C1338  C     0.40598   0.15802   0.83227   0.00000  Uiso   1.00
C1339  C     0.40421   0.33933   0.83445   0.00000  Uiso   1.00
C1340  C     0.09402   0.15802   0.83439   0.00000  Uiso   1.00
C1341  C     0.34655   0.08857   0.83185   0.00000  Uiso   1.00
C1342  C     0.15601   0.40782   0.83227   0.00000  Uiso   1.00
C1343  C     0.15346   0.08857   0.83482   0.00000  Uiso   1.00
C1344  C     0.34397   0.40780   0.83440   0.00000  Uiso   1.00
N1345  N     0.00408   0.16683   0.71461   0.00000  Uiso   1.00
H1346  H     0.49552   0.16540   0.74833   0.00000  Uiso   1.00
C1347  C     0.03923   0.13877   0.70564   0.00000  Uiso   1.00
H1348  H     0.03023   0.10789   0.68604   0.00000  Uiso   1.00
H1349  H     0.05187   0.12668   0.73887   0.00000  Uiso   1.00
H1350  H     0.06291   0.15788   0.68651   0.00000  Uiso   1.00
N1351  N     0.00392   0.33329   0.95214   0.00000  Uiso   1.00
H1352  H     0.49456   0.33534   0.91872   0.00000  Uiso   1.00
C1353  C     0.03936   0.36098   0.96083   0.00000  Uiso   1.00
H1354  H     0.03074   0.39179   0.98082   0.00000  Uiso   1.00
H1355  H     0.05204   0.37306   0.92756   0.00000  Uiso   1.00
H1356  H     0.06294   0.34146   0.97971   0.00000  Uiso   1.00
N1357  N     0.49604   0.33328   0.71452   0.00000  Uiso   1.00
H1358  H     0.00555   0.33543   0.74789   0.00000  Uiso   1.00
C1359  C     0.46056   0.36093   0.70588   0.00000  Uiso   1.00
H1360  H     0.46914   0.39178   0.68593   0.00000  Uiso   1.00
H1361  H     0.44789   0.37295   0.73918   0.00000  Uiso   1.00
H1362  H     0.43700   0.34141   0.68699   0.00000  Uiso   1.00
N1363  N     0.49592   0.16683   0.95206   0.00000  Uiso   1.00
H1364  H     0.00449   0.16540   0.91834   0.00000  Uiso   1.00
C1365  C     0.46078   0.13877   0.96103   0.00000  Uiso   1.00
H1366  H     0.46977   0.10789   0.98063   0.00000  Uiso   1.00
H1367  H     0.44813   0.12668   0.92781   0.00000  Uiso   1.00
H1368  H     0.43710   0.15788   0.98016   0.00000  Uiso   1.00
N1369  N     0.25367   0.41673   0.71457   0.00000  Uiso   1.00
H1370  H     0.24474   0.41494   0.74815   0.00000  Uiso   1.00
C1371  C     0.28881   0.38862   0.70563   0.00000  Uiso   1.00
H1372  H     0.27984   0.35769   0.68610   0.00000  Uiso   1.00
H1373  H     0.30152   0.37654   0.73881   0.00000  Uiso   1.00
H1374  H     0.31237   0.40775   0.68634   0.00000  Uiso   1.00
N1375  N     0.25294   0.08172   0.94977   0.00000  Uiso   1.00
H1376  H     0.22636   0.09938   0.94705   0.00000  Uiso   1.00
C1377  C     0.28786   0.11051   0.95679   0.00000  Uiso   1.00
H1378  H     0.28044   0.13936   0.98017   0.00000  Uiso   1.00
H1379  H     0.29691   0.12528   0.92308   0.00000  Uiso   1.00
H1380  H     0.31331   0.09063   0.97151   0.00000  Uiso   1.00
N1381  N     0.24707   0.08172   0.71689   0.00000  Uiso   1.00
H1382  H     0.27365   0.09939   0.71960   0.00000  Uiso   1.00
C1383  C     0.21215   0.11051   0.70988   0.00000  Uiso   1.00
H1384  H     0.21956   0.13936   0.68649   0.00000  Uiso   1.00
H1385  H     0.20310   0.12527   0.74359   0.00000  Uiso   1.00
H1386  H     0.18670   0.09062   0.69515   0.00000  Uiso   1.00
N1387  N     0.24630   0.41673   0.95210   0.00000  Uiso   1.00
H1388  H     0.25528   0.41492   0.91854   0.00000  Uiso   1.00
C1389  C     0.21114   0.38865   0.96101   0.00000  Uiso   1.00
H1390  H     0.22008   0.35771   0.98055   0.00000  Uiso   1.00
H1391  H     0.19844   0.37659   0.92783   0.00000  Uiso   1.00
H1392  H     0.18759   0.40779   0.98030   0.00000  Uiso   1.00
N1393  N     0.41536   0.14542   0.74790   0.00000  Uiso   1.00
O1394  O     0.40695   0.18248   0.72485   0.00000  Uiso   1.00
O1395  O     0.43285   0.11146   0.72675   0.00000  Uiso   1.00
N1396  N     0.12030   0.31946   0.91075   0.00000  Uiso   1.00
O1397  O     0.13559   0.33148   0.95030   0.00000  Uiso   1.00
O1398  O     0.11918   0.27591   0.90141   0.00000  Uiso   1.00
N1399  N     0.09101   0.34847   0.74676   0.00000  Uiso   1.00
O1400  O     0.09980   0.31060   0.72535   0.00000  Uiso   1.00
O1401  O     0.07433   0.38180   0.72389   0.00000  Uiso   1.00
N1402  N     0.37948   0.17838   0.90990   0.00000  Uiso   1.00
O1403  O     0.36382   0.16646   0.94933   0.00000  Uiso   1.00
O1404  O     0.37963   0.22179   0.89987   0.00000  Uiso   1.00
N1405  N     0.08465   0.14543   0.91877   0.00000  Uiso   1.00
O1406  O     0.09306   0.18249   0.94181   0.00000  Uiso   1.00
O1407  O     0.06717   0.11146   0.93993   0.00000  Uiso   1.00
N1408  N     0.37966   0.31939   0.75595   0.00000  Uiso   1.00
O1409  O     0.36433   0.33139   0.71641   0.00000  Uiso   1.00
O1410  O     0.38081   0.27585   0.76531   0.00000  Uiso   1.00
N1411  N     0.40898   0.34846   0.91991   0.00000  Uiso   1.00
O1412  O     0.40019   0.31058   0.94132   0.00000  Uiso   1.00
O1413  O     0.42567   0.38178   0.94278   0.00000  Uiso   1.00
N1414  N     0.12053   0.17839   0.75677   0.00000  Uiso   1.00
O1415  O     0.13619   0.16646   0.71734   0.00000  Uiso   1.00
O1416  O     0.12037   0.22179   0.76679   0.00000  Uiso   1.00
N1417  N     0.16124   0.39860   0.74688   0.00000  Uiso   1.00
O1418  O     0.15178   0.43620   0.72534   0.00000  Uiso   1.00
O1419  O     0.17793   0.36532   0.72390   0.00000  Uiso   1.00
N1420  N     0.37039   0.07044   0.91084   0.00000  Uiso   1.00
O1421  O     0.38607   0.08280   0.95008   0.00000  Uiso   1.00
O1422  O     0.36942   0.02682   0.90183   0.00000  Uiso   1.00
N1423  N     0.34766   0.09169   0.74511   0.00000  Uiso   1.00
O1424  O     0.35294   0.04976   0.73145   0.00000  Uiso   1.00
O1425  O     0.34109   0.12290   0.71393   0.00000  Uiso   1.00
N1426  N     0.12950   0.42772   0.90938   0.00000  Uiso   1.00
O1427  O     0.11641   0.41598   0.95006   0.00000  Uiso   1.00
O1428  O     0.12574   0.47038   0.89744   0.00000  Uiso   1.00
N1429  N     0.33875   0.39859   0.91979   0.00000  Uiso   1.00
O1430  O     0.34822   0.43618   0.94133   0.00000  Uiso   1.00
O1431  O     0.32205   0.36532   0.94276   0.00000  Uiso   1.00
N1432  N     0.12961   0.07045   0.75583   0.00000  Uiso   1.00
O1433  O     0.11394   0.08281   0.71658   0.00000  Uiso   1.00
O1434  O     0.13058   0.02683   0.76484   0.00000  Uiso   1.00
N1435  N     0.15235   0.09170   0.92156   0.00000  Uiso   1.00
O1436  O     0.14708   0.04978   0.93524   0.00000  Uiso   1.00
O1437  O     0.15893   0.12293   0.95272   0.00000  Uiso   1.00
N1438  N     0.37046   0.42765   0.75726   0.00000  Uiso   1.00
O1439  O     0.38353   0.41589   0.71658   0.00000  Uiso   1.00
O1440  O     0.37424   0.47032   0.76918   0.00000  Uiso   1.00
O1441  O     0.54508   0.20491   0.87291   0.00000  Uiso   1.00
O1442  O     0.95491   0.29509   0.79375   0.00000  Uiso   1.00
O1443  O     0.95491   0.29509   0.87291   0.00000  Uiso   1.00
O1444  O     0.54508   0.20491   0.79375   0.00000  Uiso   1.00
O1445  O     0.95491   0.20491   0.79375   0.00000  Uiso   1.00
O1446  O     0.54508   0.29509   0.87291   0.00000  Uiso   1.00
O1447  O     0.54508   0.29509   0.79375   0.00000  Uiso   1.00
O1448  O     0.95491   0.20491   0.87291   0.00000  Uiso   1.00
O1449  O     0.79508   0.45491   0.87291   0.00000  Uiso   1.00
O1450  O     0.70491   0.04509   0.79375   0.00000  Uiso   1.00
O1451  O     0.70491   0.04509   0.87291   0.00000  Uiso   1.00
O1452  O     0.79508   0.45491   0.79375   0.00000  Uiso   1.00
O1453  O     0.70491   0.45491   0.79375   0.00000  Uiso   1.00
O1454  O     0.79508   0.04509   0.87291   0.00000  Uiso   1.00
O1455  O     0.79508   0.04509   0.79375   0.00000  Uiso   1.00
O1456  O     0.70491   0.45491   0.87291   0.00000  Uiso   1.00
C1457  C     0.56003   0.19127   0.83348   0.00000  Uiso   1.00
C1458  C     0.93951   0.30801   0.83354   0.00000  Uiso   1.00
C1459  C     0.93997   0.19127   0.83319   0.00000  Uiso   1.00
C1460  C     0.56048   0.30801   0.83313   0.00000  Uiso   1.00
C1461  C     0.80996   0.44111   0.83351   0.00000  Uiso   1.00
C1462  C     0.68924   0.05772   0.83364   0.00000  Uiso   1.00
C1463  C     0.69004   0.44112   0.83316   0.00000  Uiso   1.00
C1464  C     0.81076   0.05772   0.83303   0.00000  Uiso   1.00
N1465  N     0.50000   0.25000   0.95069   0.00000  Uiso   1.00
N1466  N     0.50000   0.25000   0.71598   0.00000  Uiso   1.00
N1467  N     0.75000   0.00000   0.95069   0.00000  Uiso   1.00
N1468  N     0.75000  -0.00000   0.71598   0.00000  Uiso   1.00
Cu1469 Cu    0.50000   0.25000   0.88022   0.00000  Uiso   1.00
Cu1470 Cu    0.50000   0.25000   0.78645   0.00000  Uiso   1.00
Cu1471 Cu    0.75000   0.00000   0.88022   0.00000  Uiso   1.00
Cu1472 Cu    0.75000   0.00000   0.78645   0.00000  Uiso   1.00
C1473  C     0.50133   0.20971   0.69133   0.00000  Uiso   1.00
C1474  C     0.50121   0.29032   0.97533   0.00000  Uiso   1.00
C1475  C     0.99877   0.29032   0.69134   0.00000  Uiso   1.00
C1476  C     0.99867   0.20971   0.97534   0.00000  Uiso   1.00
C1477  C     0.75115   0.45969   0.69134   0.00000  Uiso   1.00
C1478  C     0.75096   0.04020   0.97507   0.00000  Uiso   1.00
C1479  C     0.74905   0.04020   0.69160   0.00000  Uiso   1.00
C1480  C     0.74883   0.45969   0.97533   0.00000  Uiso   1.00
C1481  C     0.89468   0.13656   0.79046   0.00000  Uiso   1.00
C1482  C     0.61530   0.35229   0.87367   0.00000  Uiso   1.00
C1483  C     0.60970   0.35844   0.79021   0.00000  Uiso   1.00
C1484  C     0.88568   0.14521   0.87340   0.00000  Uiso   1.00
C1485  C     0.60532   0.13656   0.87620   0.00000  Uiso   1.00
C1486  C     0.88466   0.35225   0.79301   0.00000  Uiso   1.00
C1487  C     0.89029   0.35842   0.87646   0.00000  Uiso   1.00
C1488  C     0.61432   0.14522   0.79327   0.00000  Uiso   1.00
C1489  C     0.64256   0.38839   0.79027   0.00000  Uiso   1.00
C1490  C     0.86474   0.10299   0.87361   0.00000  Uiso   1.00
C1491  C     0.86242   0.10567   0.78962   0.00000  Uiso   1.00
C1492  C     0.63675   0.39414   0.87371   0.00000  Uiso   1.00
C1493  C     0.85743   0.38838   0.87640   0.00000  Uiso   1.00
C1494  C     0.63527   0.10299   0.79305   0.00000  Uiso   1.00
C1495  C     0.63759   0.10568   0.87705   0.00000  Uiso   1.00
C1496  C     0.86322   0.39409   0.79295   0.00000  Uiso   1.00
C1497  C     0.59578   0.33935   0.83222   0.00000  Uiso   1.00
C1498  C     0.90598   0.15802   0.83227   0.00000  Uiso   1.00
C1499  C     0.90421   0.33933   0.83445   0.00000  Uiso   1.00
C1500  C     0.59402   0.15802   0.83439   0.00000  Uiso   1.00
C1501  C     0.84655   0.08857   0.83185   0.00000  Uiso   1.00
C1502  C     0.65601   0.40782   0.83227   0.00000  Uiso   1.00
C1503  C     0.65346   0.08857   0.83482   0.00000  Uiso   1.00
C1504  C     0.84397   0.40780   0.83440   0.00000  Uiso   1.00
N1505  N     0.50408   0.16683   0.71461   0.00000  Uiso   1.00
H1506  H     0.99552   0.16540   0.74833   0.00000  Uiso   1.00
C1507  C     0.53923   0.13877   0.70564   0.00000  Uiso   1.00
H1508  H     0.53023   0.10789   0.68604   0.00000  Uiso   1.00
H1509  H     0.55187   0.12668   0.73887   0.00000  Uiso   1.00
H1510  H     0.56291   0.15788   0.68651   0.00000  Uiso   1.00
N1511  N     0.50392   0.33329   0.95214   0.00000  Uiso   1.00
H1512  H     0.99456   0.33534   0.91872   0.00000  Uiso   1.00
C1513  C     0.53936   0.36098   0.96083   0.00000  Uiso   1.00
H1514  H     0.53074   0.39179   0.98082   0.00000  Uiso   1.00
H1515  H     0.55204   0.37306   0.92756   0.00000  Uiso   1.00
H1516  H     0.56294   0.34146   0.97971   0.00000  Uiso   1.00
N1517  N     0.99604   0.33328   0.71452   0.00000  Uiso   1.00
H1518  H     0.50555   0.33543   0.74789   0.00000  Uiso   1.00
C1519  C     0.96056   0.36093   0.70588   0.00000  Uiso   1.00
H1520  H     0.96914   0.39178   0.68593   0.00000  Uiso   1.00
H1521  H     0.94789   0.37295   0.73918   0.00000  Uiso   1.00
H1522  H     0.93700   0.34141   0.68699   0.00000  Uiso   1.00
N1523  N     0.99592   0.16683   0.95206   0.00000  Uiso   1.00
H1524  H     0.50449   0.16540   0.91834   0.00000  Uiso   1.00
C1525  C     0.96078   0.13877   0.96103   0.00000  Uiso   1.00
H1526  H     0.96977   0.10789   0.98063   0.00000  Uiso   1.00
H1527  H     0.94813   0.12668   0.92781   0.00000  Uiso   1.00
H1528  H     0.93710   0.15788   0.98016   0.00000  Uiso   1.00
N1529  N     0.75367   0.41673   0.71457   0.00000  Uiso   1.00
H1530  H     0.74474   0.41494   0.74815   0.00000  Uiso   1.00
C1531  C     0.78881   0.38862   0.70563   0.00000  Uiso   1.00
H1532  H     0.77984   0.35769   0.68610   0.00000  Uiso   1.00
H1533  H     0.80152   0.37654   0.73881   0.00000  Uiso   1.00
H1534  H     0.81237   0.40775   0.68634   0.00000  Uiso   1.00
N1535  N     0.75294   0.08172   0.94977   0.00000  Uiso   1.00
H1536  H     0.72636   0.09938   0.94705   0.00000  Uiso   1.00
C1537  C     0.78786   0.11051   0.95679   0.00000  Uiso   1.00
H1538  H     0.78044   0.13936   0.98017   0.00000  Uiso   1.00
H1539  H     0.79691   0.12528   0.92308   0.00000  Uiso   1.00
H1540  H     0.81331   0.09063   0.97151   0.00000  Uiso   1.00
N1541  N     0.74707   0.08172   0.71689   0.00000  Uiso   1.00
H1542  H     0.77365   0.09939   0.71960   0.00000  Uiso   1.00
C1543  C     0.71215   0.11051   0.70988   0.00000  Uiso   1.00
H1544  H     0.71956   0.13936   0.68649   0.00000  Uiso   1.00
H1545  H     0.70310   0.12527   0.74359   0.00000  Uiso   1.00
H1546  H     0.68670   0.09062   0.69515   0.00000  Uiso   1.00
N1547  N     0.74630   0.41673   0.95210   0.00000  Uiso   1.00
H1548  H     0.75528   0.41492   0.91854   0.00000  Uiso   1.00
C1549  C     0.71114   0.38865   0.96101   0.00000  Uiso   1.00
H1550  H     0.72008   0.35771   0.98055   0.00000  Uiso   1.00
H1551  H     0.69844   0.37659   0.92783   0.00000  Uiso   1.00
H1552  H     0.68759   0.40779   0.98030   0.00000  Uiso   1.00
N1553  N     0.91536   0.14542   0.74790   0.00000  Uiso   1.00
O1554  O     0.90695   0.18248   0.72485   0.00000  Uiso   1.00
O1555  O     0.93285   0.11146   0.72675   0.00000  Uiso   1.00
N1556  N     0.62030   0.31946   0.91075   0.00000  Uiso   1.00
O1557  O     0.63559   0.33148   0.95030   0.00000  Uiso   1.00
O1558  O     0.61918   0.27591   0.90141   0.00000  Uiso   1.00
N1559  N     0.59101   0.34847   0.74676   0.00000  Uiso   1.00
O1560  O     0.59980   0.31060   0.72535   0.00000  Uiso   1.00
O1561  O     0.57433   0.38180   0.72389   0.00000  Uiso   1.00
N1562  N     0.87948   0.17838   0.90990   0.00000  Uiso   1.00
O1563  O     0.86382   0.16646   0.94933   0.00000  Uiso   1.00
O1564  O     0.87963   0.22179   0.89987   0.00000  Uiso   1.00
N1565  N     0.58465   0.14543   0.91877   0.00000  Uiso   1.00
O1566  O     0.59306   0.18249   0.94181   0.00000  Uiso   1.00
O1567  O     0.56717   0.11146   0.93993   0.00000  Uiso   1.00
N1568  N     0.87966   0.31939   0.75595   0.00000  Uiso   1.00
O1569  O     0.86433   0.33139   0.71641   0.00000  Uiso   1.00
O1570  O     0.88081   0.27585   0.76531   0.00000  Uiso   1.00
N1571  N     0.90898   0.34846   0.91991   0.00000  Uiso   1.00
O1572  O     0.90019   0.31058   0.94132   0.00000  Uiso   1.00
O1573  O     0.92567   0.38178   0.94278   0.00000  Uiso   1.00
N1574  N     0.62053   0.17839   0.75677   0.00000  Uiso   1.00
O1575  O     0.63619   0.16646   0.71734   0.00000  Uiso   1.00
O1576  O     0.62037   0.22179   0.76679   0.00000  Uiso   1.00
N1577  N     0.66124   0.39860   0.74688   0.00000  Uiso   1.00
O1578  O     0.65178   0.43620   0.72534   0.00000  Uiso   1.00
O1579  O     0.67793   0.36532   0.72390   0.00000  Uiso   1.00
N1580  N     0.87039   0.07044   0.91084   0.00000  Uiso   1.00
O1581  O     0.88607   0.08280   0.95008   0.00000  Uiso   1.00
O1582  O     0.86942   0.02682   0.90183   0.00000  Uiso   1.00
N1583  N     0.84766   0.09169   0.74511   0.00000  Uiso   1.00
O1584  O     0.85294   0.04976   0.73145   0.00000  Uiso   1.00
O1585  O     0.84109   0.12290   0.71393   0.00000  Uiso   1.00
N1586  N     0.62950   0.42772   0.90938   0.00000  Uiso   1.00
O1587  O     0.61641   0.41598   0.95006   0.00000  Uiso   1.00
O1588  O     0.62574   0.47038   0.89744   0.00000  Uiso   1.00
N1589  N     0.83875   0.39859   0.91979   0.00000  Uiso   1.00
O1590  O     0.84822   0.43618   0.94133   0.00000  Uiso   1.00
O1591  O     0.82205   0.36532   0.94276   0.00000  Uiso   1.00
N1592  N     0.62961   0.07045   0.75583   0.00000  Uiso   1.00
O1593  O     0.61394   0.08281   0.71658   0.00000  Uiso   1.00
O1594  O     0.63058   0.02683   0.76484   0.00000  Uiso   1.00
N1595  N     0.65235   0.09170   0.92156   0.00000  Uiso   1.00
O1596  O     0.64708   0.04978   0.93524   0.00000  Uiso   1.00
O1597  O     0.65893   0.12293   0.95272   0.00000  Uiso   1.00
N1598  N     0.87046   0.42765   0.75726   0.00000  Uiso   1.00
O1599  O     0.88353   0.41589   0.71658   0.00000  Uiso   1.00
O1600  O     0.87424   0.47032   0.76918   0.00000  Uiso   1.00
O1601  O     0.04508   0.70491   0.87291   0.00000  Uiso   1.00
O1602  O     0.45491   0.79509   0.79375   0.00000  Uiso   1.00
O1603  O     0.45491   0.79509   0.87291   0.00000  Uiso   1.00
O1604  O     0.04508   0.70491   0.79375   0.00000  Uiso   1.00
O1605  O     0.45491   0.70491   0.79375   0.00000  Uiso   1.00
O1606  O     0.04508   0.79509   0.87291   0.00000  Uiso   1.00
O1607  O     0.04508   0.79509   0.79375   0.00000  Uiso   1.00
O1608  O     0.45491   0.70491   0.87291   0.00000  Uiso   1.00
O1609  O     0.29508   0.95491   0.87291   0.00000  Uiso   1.00
O1610  O     0.20491   0.54509   0.79375   0.00000  Uiso   1.00
O1611  O     0.20491   0.54509   0.87291   0.00000  Uiso   1.00
O1612  O     0.29508   0.95491   0.79375   0.00000  Uiso   1.00
O1613  O     0.20491   0.95491   0.79375   0.00000  Uiso   1.00
O1614  O     0.29508   0.54509   0.87291   0.00000  Uiso   1.00
O1615  O     0.29508   0.54509   0.79375   0.00000  Uiso   1.00
O1616  O     0.20491   0.95491   0.87291   0.00000  Uiso   1.00
C1617  C     0.06003   0.69127   0.83348   0.00000  Uiso   1.00
C1618  C     0.43951   0.80801   0.83354   0.00000  Uiso   1.00
C1619  C     0.43997   0.69127   0.83319   0.00000  Uiso   1.00
C1620  C     0.06048   0.80801   0.83313   0.00000  Uiso   1.00
C1621  C     0.30996   0.94111   0.83351   0.00000  Uiso   1.00
C1622  C     0.18924   0.55772   0.83364   0.00000  Uiso   1.00
C1623  C     0.19004   0.94112   0.83316   0.00000  Uiso   1.00
C1624  C     0.31076   0.55772   0.83303   0.00000  Uiso   1.00
N1625  N     0.00000   0.75000   0.95069   0.00000  Uiso   1.00
N1626  N     0.00000   0.75000   0.71598   0.00000  Uiso   1.00
N1627  N     0.25000   0.50000   0.95069   0.00000  Uiso   1.00
N1628  N     0.25000   0.50000   0.71598   0.00000  Uiso   1.00
Cu1629 Cu    0.00000   0.75000   0.88022   0.00000  Uiso   1.00
Cu1630 Cu   -0.00000   0.75000   0.78645   0.00000  Uiso   1.00
Cu1631 Cu    0.25000   0.50000   0.88022   0.00000  Uiso   1.00
Cu1632 Cu    0.25000   0.50000   0.78645   0.00000  Uiso   1.00
C1633  C     0.00133   0.70971   0.69133   0.00000  Uiso   1.00
C1634  C     0.00121   0.79032   0.97533   0.00000  Uiso   1.00
C1635  C     0.49877   0.79032   0.69134   0.00000  Uiso   1.00
C1636  C     0.49867   0.70971   0.97534   0.00000  Uiso   1.00
C1637  C     0.25115   0.95969   0.69134   0.00000  Uiso   1.00
C1638  C     0.25096   0.54020   0.97507   0.00000  Uiso   1.00
C1639  C     0.24905   0.54020   0.69160   0.00000  Uiso   1.00
C1640  C     0.24883   0.95969   0.97533   0.00000  Uiso   1.00
C1641  C     0.39468   0.63656   0.79046   0.00000  Uiso   1.00
C1642  C     0.11530   0.85229   0.87367   0.00000  Uiso   1.00
C1643  C     0.10970   0.85844   0.79021   0.00000  Uiso   1.00
C1644  C     0.38568   0.64521   0.87340   0.00000  Uiso   1.00
C1645  C     0.10532   0.63656   0.87620   0.00000  Uiso   1.00
C1646  C     0.38466   0.85225   0.79301   0.00000  Uiso   1.00
C1647  C     0.39029   0.85842   0.87646   0.00000  Uiso   1.00
C1648  C     0.11432   0.64522   0.79327   0.00000  Uiso   1.00
C1649  C     0.14256   0.88839   0.79027   0.00000  Uiso   1.00
C1650  C     0.36474   0.60299   0.87361   0.00000  Uiso   1.00
C1651  C     0.36242   0.60567   0.78962   0.00000  Uiso   1.00
C1652  C     0.13675   0.89414   0.87371   0.00000  Uiso   1.00
C1653  C     0.35743   0.88838   0.87640   0.00000  Uiso   1.00
C1654  C     0.13527   0.60299   0.79305   0.00000  Uiso   1.00
C1655  C     0.13759   0.60568   0.87705   0.00000  Uiso   1.00
C1656  C     0.36322   0.89409   0.79295   0.00000  Uiso   1.00
C1657  C     0.09578   0.83935   0.83222   0.00000  Uiso   1.00
C1658  C     0.40598   0.65802   0.83227   0.00000  Uiso   1.00
C1659  C     0.40421   0.83933   0.83445   0.00000  Uiso   1.00
C1660  C     0.09402   0.65802   0.83439   0.00000  Uiso   1.00
C1661  C     0.34655   0.58857   0.83185   0.00000  Uiso   1.00
C1662  C     0.15601   0.90782   0.83227   0.00000  Uiso   1.00
C1663  C     0.15346   0.58857   0.83482   0.00000  Uiso   1.00
C1664  C     0.34397   0.90780   0.83440   0.00000  Uiso   1.00
N1665  N     0.00408   0.66683   0.71461   0.00000  Uiso   1.00
H1666  H     0.49552   0.66540   0.74833   0.00000  Uiso   1.00
C1667  C     0.03923   0.63877   0.70564   0.00000  Uiso   1.00
H1668  H     0.03023   0.60789   0.68604   0.00000  Uiso   1.00
H1669  H     0.05187   0.62668   0.73887   0.00000  Uiso   1.00
H1670  H     0.06291   0.65788   0.68651   0.00000  Uiso   1.00
N1671  N     0.00392   0.83329   0.95214   0.00000  Uiso   1.00
H1672  H     0.49456   0.83534   0.91872   0.00000  Uiso   1.00
C1673  C     0.03936   0.86098   0.96083   0.00000  Uiso   1.00
H1674  H     0.03074   0.89179   0.98082   0.00000  Uiso   1.00
H1675  H     0.05204   0.87306   0.92756   0.00000  Uiso   1.00
H1676  H     0.06294   0.84146   0.97971   0.00000  Uiso   1.00
N1677  N     0.49604   0.83328   0.71452   0.00000  Uiso   1.00
H1678  H     0.00555   0.83543   0.74789   0.00000  Uiso   1.00
C1679  C     0.46056   0.86093   0.70588   0.00000  Uiso   1.00
H1680  H     0.46914   0.89178   0.68593   0.00000  Uiso   1.00
H1681  H     0.44789   0.87295   0.73918   0.00000  Uiso   1.00
H1682  H     0.43700   0.84141   0.68699   0.00000  Uiso   1.00
N1683  N     0.49592   0.66683   0.95206   0.00000  Uiso   1.00
H1684  H     0.00449   0.66540   0.91834   0.00000  Uiso   1.00
C1685  C     0.46078   0.63877   0.96103   0.00000  Uiso   1.00
H1686  H     0.46977   0.60789   0.98063   0.00000  Uiso   1.00
H1687  H     0.44813   0.62668   0.92781   0.00000  Uiso   1.00
H1688  H     0.43710   0.65788   0.98016   0.00000  Uiso   1.00
N1689  N     0.25367   0.91673   0.71457   0.00000  Uiso   1.00
H1690  H     0.24474   0.91494   0.74815   0.00000  Uiso   1.00
C1691  C     0.28881   0.88862   0.70563   0.00000  Uiso   1.00
H1692  H     0.27984   0.85769   0.68610   0.00000  Uiso   1.00
H1693  H     0.30152   0.87654   0.73881   0.00000  Uiso   1.00
H1694  H     0.31237   0.90775   0.68634   0.00000  Uiso   1.00
N1695  N     0.25294   0.58172   0.94977   0.00000  Uiso   1.00
H1696  H     0.22636   0.59938   0.94705   0.00000  Uiso   1.00
C1697  C     0.28786   0.61051   0.95679   0.00000  Uiso   1.00
H1698  H     0.28044   0.63936   0.98017   0.00000  Uiso   1.00
H1699  H     0.29691   0.62528   0.92308   0.00000  Uiso   1.00
H1700  H     0.31331   0.59063   0.97151   0.00000  Uiso   1.00
N1701  N     0.24707   0.58172   0.71689   0.00000  Uiso   1.00
H1702  H     0.27365   0.59939   0.71960   0.00000  Uiso   1.00
C1703  C     0.21215   0.61051   0.70988   0.00000  Uiso   1.00
H1704  H     0.21956   0.63936   0.68649   0.00000  Uiso   1.00
H1705  H     0.20310   0.62527   0.74359   0.00000  Uiso   1.00
H1706  H     0.18670   0.59062   0.69515   0.00000  Uiso   1.00
N1707  N     0.24630   0.91673   0.95210   0.00000  Uiso   1.00
H1708  H     0.25528   0.91492   0.91854   0.00000  Uiso   1.00
C1709  C     0.21114   0.88865   0.96101   0.00000  Uiso   1.00
H1710  H     0.22008   0.85771   0.98055   0.00000  Uiso   1.00
H1711  H     0.19844   0.87659   0.92783   0.00000  Uiso   1.00
H1712  H     0.18759   0.90779   0.98030   0.00000  Uiso   1.00
N1713  N     0.41536   0.64542   0.74790   0.00000  Uiso   1.00
O1714  O     0.40695   0.68248   0.72485   0.00000  Uiso   1.00
O1715  O     0.43285   0.61146   0.72675   0.00000  Uiso   1.00
N1716  N     0.12030   0.81946   0.91075   0.00000  Uiso   1.00
O1717  O     0.13559   0.83148   0.95030   0.00000  Uiso   1.00
O1718  O     0.11918   0.77591   0.90141   0.00000  Uiso   1.00
N1719  N     0.09101   0.84847   0.74676   0.00000  Uiso   1.00
O1720  O     0.09980   0.81060   0.72535   0.00000  Uiso   1.00
O1721  O     0.07433   0.88180   0.72389   0.00000  Uiso   1.00
N1722  N     0.37948   0.67838   0.90990   0.00000  Uiso   1.00
O1723  O     0.36382   0.66646   0.94933   0.00000  Uiso   1.00
O1724  O     0.37963   0.72179   0.89987   0.00000  Uiso   1.00
N1725  N     0.08465   0.64543   0.91877   0.00000  Uiso   1.00
O1726  O     0.09306   0.68249   0.94181   0.00000  Uiso   1.00
O1727  O     0.06717   0.61146   0.93993   0.00000  Uiso   1.00
N1728  N     0.37966   0.81939   0.75595   0.00000  Uiso   1.00
O1729  O     0.36433   0.83139   0.71641   0.00000  Uiso   1.00
O1730  O     0.38081   0.77585   0.76531   0.00000  Uiso   1.00
N1731  N     0.40898   0.84846   0.91991   0.00000  Uiso   1.00
O1732  O     0.40019   0.81058   0.94132   0.00000  Uiso   1.00
O1733  O     0.42567   0.88178   0.94278   0.00000  Uiso   1.00
N1734  N     0.12053   0.67839   0.75677   0.00000  Uiso   1.00
O1735  O     0.13619   0.66646   0.71734   0.00000  Uiso   1.00
O1736  O     0.12037   0.72179   0.76679   0.00000  Uiso   1.00
N1737  N     0.16124   0.89860   0.74688   0.00000  Uiso   1.00
O1738  O     0.15178   0.93620   0.72534   0.00000  Uiso   1.00
O1739  O     0.17793   0.86532   0.72390   0.00000  Uiso   1.00
N1740  N     0.37039   0.57044   0.91084   0.00000  Uiso   1.00
O1741  O     0.38607   0.58280   0.95008   0.00000  Uiso   1.00
O1742  O     0.36942   0.52682   0.90183   0.00000  Uiso   1.00
N1743  N     0.34766   0.59169   0.74511   0.00000  Uiso   1.00
O1744  O     0.35294   0.54976   0.73145   0.00000  Uiso   1.00
O1745  O     0.34109   0.62290   0.71393   0.00000  Uiso   1.00
N1746  N     0.12950   0.92772   0.90938   0.00000  Uiso   1.00
O1747  O     0.11641   0.91598   0.95006   0.00000  Uiso   1.00
O1748  O     0.12574   0.97038   0.89744   0.00000  Uiso   1.00
N1749  N     0.33875   0.89859   0.91979   0.00000  Uiso   1.00
O1750  O     0.34822   0.93618   0.94133   0.00000  Uiso   1.00
O1751  O     0.32205   0.86532   0.94276   0.00000  Uiso   1.00
N1752  N     0.12961   0.57045   0.75583   0.00000  Uiso   1.00
O1753  O     0.11394   0.58281   0.71658   0.00000  Uiso   1.00
O1754  O     0.13058   0.52683   0.76484   0.00000  Uiso   1.00
N1755  N     0.15235   0.59170   0.92156   0.00000  Uiso   1.00
O1756  O     0.14708   0.54978   0.93524   0.00000  Uiso   1.00
O1757  O     0.15893   0.62293   0.95272   0.00000  Uiso   1.00
N1758  N     0.37046   0.92765   0.75726   0.00000  Uiso   1.00
O1759  O     0.38353   0.91589   0.71658   0.00000  Uiso   1.00
O1760  O     0.37424   0.97032   0.76918   0.00000  Uiso   1.00
O1761  O     0.54508   0.70491   0.87291   0.00000  Uiso   1.00
O1762  O     0.95491   0.79509   0.79375   0.00000  Uiso   1.00
O1763  O     0.95491   0.79509   0.87291   0.00000  Uiso   1.00
O1764  O     0.54508   0.70491   0.79375   0.00000  Uiso   1.00
O1765  O     0.95491   0.70491   0.79375   0.00000  Uiso   1.00
O1766  O     0.54508   0.79509   0.87291   0.00000  Uiso   1.00
O1767  O     0.54508   0.79509   0.79375   0.00000  Uiso   1.00
O1768  O     0.95491   0.70491   0.87291   0.00000  Uiso   1.00
O1769  O     0.79508   0.95491   0.87291   0.00000  Uiso   1.00
O1770  O     0.70491   0.54509   0.79375   0.00000  Uiso   1.00
O1771  O     0.70491   0.54509   0.87291   0.00000  Uiso   1.00
O1772  O     0.79508   0.95491   0.79375   0.00000  Uiso   1.00
O1773  O     0.70491   0.95491   0.79375   0.00000  Uiso   1.00
O1774  O     0.79508   0.54509   0.87291   0.00000  Uiso   1.00
O1775  O     0.79508   0.54509   0.79375   0.00000  Uiso   1.00
O1776  O     0.70491   0.95491   0.87291   0.00000  Uiso   1.00
C1777  C     0.56003   0.69127   0.83348   0.00000  Uiso   1.00
C1778  C     0.93951   0.80801   0.83354   0.00000  Uiso   1.00
C1779  C     0.93997   0.69127   0.83319   0.00000  Uiso   1.00
C1780  C     0.56048   0.80801   0.83313   0.00000  Uiso   1.00
C1781  C     0.80996   0.94111   0.83351   0.00000  Uiso   1.00
C1782  C     0.68924   0.55772   0.83364   0.00000  Uiso   1.00
C1783  C     0.69004   0.94112   0.83316   0.00000  Uiso   1.00
C1784  C     0.81076   0.55772   0.83303   0.00000  Uiso   1.00
N1785  N     0.50000   0.75000   0.95069   0.00000  Uiso   1.00
N1786  N     0.50000   0.75000   0.71598   0.00000  Uiso   1.00
N1787  N     0.75000   0.50000   0.95069   0.00000  Uiso   1.00
N1788  N     0.75000   0.50000   0.71598   0.00000  Uiso   1.00
Cu1789 Cu    0.50000   0.75000   0.88022   0.00000  Uiso   1.00
Cu1790 Cu    0.50000   0.75000   0.78645   0.00000  Uiso   1.00
Cu1791 Cu    0.75000   0.50000   0.88022   0.00000  Uiso   1.00
Cu1792 Cu    0.75000   0.50000   0.78645   0.00000  Uiso   1.00
C1793  C     0.50133   0.70971   0.69133   0.00000  Uiso   1.00
C1794  C     0.50121   0.79032   0.97533   0.00000  Uiso   1.00
C1795  C     0.99877   0.79032   0.69134   0.00000  Uiso   1.00
C1796  C     0.99867   0.70971   0.97534   0.00000  Uiso   1.00
C1797  C     0.75115   0.95969   0.69134   0.00000  Uiso   1.00
C1798  C     0.75096   0.54020   0.97507   0.00000  Uiso   1.00
C1799  C     0.74905   0.54020   0.69160   0.00000  Uiso   1.00
C1800  C     0.74883   0.95969   0.97533   0.00000  Uiso   1.00
C1801  C     0.89468   0.63656   0.79046   0.00000  Uiso   1.00
C1802  C     0.61530   0.85229   0.87367   0.00000  Uiso   1.00
C1803  C     0.60970   0.85844   0.79021   0.00000  Uiso   1.00
C1804  C     0.88568   0.64521   0.87340   0.00000  Uiso   1.00
C1805  C     0.60532   0.63656   0.87620   0.00000  Uiso   1.00
C1806  C     0.88466   0.85225   0.79301   0.00000  Uiso   1.00
C1807  C     0.89029   0.85842   0.87646   0.00000  Uiso   1.00
C1808  C     0.61432   0.64522   0.79327   0.00000  Uiso   1.00
C1809  C     0.64256   0.88839   0.79027   0.00000  Uiso   1.00
C1810  C     0.86474   0.60299   0.87361   0.00000  Uiso   1.00
C1811  C     0.86242   0.60567   0.78962   0.00000  Uiso   1.00
C1812  C     0.63675   0.89414   0.87371   0.00000  Uiso   1.00
C1813  C     0.85743   0.88838   0.87640   0.00000  Uiso   1.00
C1814  C     0.63527   0.60299   0.79305   0.00000  Uiso   1.00
C1815  C     0.63759   0.60568   0.87705   0.00000  Uiso   1.00
C1816  C     0.86322   0.89409   0.79295   0.00000  Uiso   1.00
C1817  C     0.59578   0.83935   0.83222   0.00000  Uiso   1.00
C1818  C     0.90598   0.65802   0.83227   0.00000  Uiso   1.00
C1819  C     0.90421   0.83933   0.83445   0.00000  Uiso   1.00
C1820  C     0.59402   0.65802   0.83439   0.00000  Uiso   1.00
C1821  C     0.84655   0.58857   0.83185   0.00000  Uiso   1.00
C1822  C     0.65601   0.90782   0.83227   0.00000  Uiso   1.00
C1823  C     0.65346   0.58857   0.83482   0.00000  Uiso   1.00
C1824  C     0.84397   0.90780   0.83440   0.00000  Uiso   1.00
N1825  N     0.50408   0.66683   0.71461   0.00000  Uiso   1.00
H1826  H     0.99552   0.66540   0.74833   0.00000  Uiso   1.00
C1827  C     0.53923   0.63877   0.70564   0.00000  Uiso   1.00
H1828  H     0.53023   0.60789   0.68604   0.00000  Uiso   1.00
H1829  H     0.55187   0.62668   0.73887   0.00000  Uiso   1.00
H1830  H     0.56291   0.65788   0.68651   0.00000  Uiso   1.00
N1831  N     0.50392   0.83329   0.95214   0.00000  Uiso   1.00
H1832  H     0.99456   0.83534   0.91872   0.00000  Uiso   1.00
C1833  C     0.53936   0.86098   0.96083   0.00000  Uiso   1.00
H1834  H     0.53074   0.89179   0.98082   0.00000  Uiso   1.00
H1835  H     0.55204   0.87306   0.92756   0.00000  Uiso   1.00
H1836  H     0.56294   0.84146   0.97971   0.00000  Uiso   1.00
N1837  N     0.99604   0.83328   0.71452   0.00000  Uiso   1.00
H1838  H     0.50555   0.83543   0.74789   0.00000  Uiso   1.00
C1839  C     0.96056   0.86093   0.70588   0.00000  Uiso   1.00
H1840  H     0.96914   0.89178   0.68593   0.00000  Uiso   1.00
H1841  H     0.94789   0.87295   0.73918   0.00000  Uiso   1.00
H1842  H     0.93700   0.84141   0.68699   0.00000  Uiso   1.00
N1843  N     0.99592   0.66683   0.95206   0.00000  Uiso   1.00
H1844  H     0.50449   0.66540   0.91834   0.00000  Uiso   1.00
C1845  C     0.96078   0.63877   0.96103   0.00000  Uiso   1.00
H1846  H     0.96977   0.60789   0.98063   0.00000  Uiso   1.00
H1847  H     0.94813   0.62668   0.92781   0.00000  Uiso   1.00
H1848  H     0.93710   0.65788   0.98016   0.00000  Uiso   1.00
N1849  N     0.75367   0.91673   0.71457   0.00000  Uiso   1.00
H1850  H     0.74474   0.91494   0.74815   0.00000  Uiso   1.00
C1851  C     0.78881   0.88862   0.70563   0.00000  Uiso   1.00
H1852  H     0.77984   0.85769   0.68610   0.00000  Uiso   1.00
H1853  H     0.80152   0.87654   0.73881   0.00000  Uiso   1.00
H1854  H     0.81237   0.90775   0.68634   0.00000  Uiso   1.00
N1855  N     0.75294   0.58172   0.94977   0.00000  Uiso   1.00
H1856  H     0.72636   0.59938   0.94705   0.00000  Uiso   1.00
C1857  C     0.78786   0.61051   0.95679   0.00000  Uiso   1.00
H1858  H     0.78044   0.63936   0.98017   0.00000  Uiso   1.00
H1859  H     0.79691   0.62528   0.92308   0.00000  Uiso   1.00
H1860  H     0.81331   0.59063   0.97151   0.00000  Uiso   1.00
N1861  N     0.74707   0.58172   0.71689   0.00000  Uiso   1.00
H1862  H     0.77365   0.59939   0.71960   0.00000  Uiso   1.00
C1863  C     0.71215   0.61051   0.70988   0.00000  Uiso   1.00
H1864  H     0.71956   0.63936   0.68649   0.00000  Uiso   1.00
H1865  H     0.70310   0.62527   0.74359   0.00000  Uiso   1.00
H1866  H     0.68670   0.59062   0.69515   0.00000  Uiso   1.00
N1867  N     0.74630   0.91673   0.95210   0.00000  Uiso   1.00
H1868  H     0.75528   0.91492   0.91854   0.00000  Uiso   1.00
C1869  C     0.71114   0.88865   0.96101   0.00000  Uiso   1.00
H1870  H     0.72008   0.85771   0.98055   0.00000  Uiso   1.00
H1871  H     0.69844   0.87659   0.92783   0.00000  Uiso   1.00
H1872  H     0.68759   0.90779   0.98030   0.00000  Uiso   1.00
N1873  N     0.91536   0.64542   0.74790   0.00000  Uiso   1.00
O1874  O     0.90695   0.68248   0.72485   0.00000  Uiso   1.00
O1875  O     0.93285   0.61146   0.72675   0.00000  Uiso   1.00
N1876  N     0.62030   0.81946   0.91075   0.00000  Uiso   1.00
O1877  O     0.63559   0.83148   0.95030   0.00000  Uiso   1.00
O1878  O     0.61918   0.77591   0.90141   0.00000  Uiso   1.00
N1879  N     0.59101   0.84847   0.74676   0.00000  Uiso   1.00
O1880  O     0.59980   0.81060   0.72535   0.00000  Uiso   1.00
O1881  O     0.57433   0.88180   0.72389   0.00000  Uiso   1.00
N1882  N     0.87948   0.67838   0.90990   0.00000  Uiso   1.00
O1883  O     0.86382   0.66646   0.94933   0.00000  Uiso   1.00
O1884  O     0.87963   0.72179   0.89987   0.00000  Uiso   1.00
N1885  N     0.58465   0.64543   0.91877   0.00000  Uiso   1.00
O1886  O     0.59306   0.68249   0.94181   0.00000  Uiso   1.00
O1887  O     0.56717   0.61146   0.93993   0.00000  Uiso   1.00
N1888  N     0.87966   0.81939   0.75595   0.00000  Uiso   1.00
O1889  O     0.86433   0.83139   0.71641   0.00000  Uiso   1.00
O1890  O     0.88081   0.77585   0.76531   0.00000  Uiso   1.00
N1891  N     0.90898   0.84846   0.91991   0.00000  Uiso   1.00
O1892  O     0.90019   0.81058   0.94132   0.00000  Uiso   1.00
O1893  O     0.92567   0.88178   0.94278   0.00000  Uiso   1.00
N1894  N     0.62053   0.67839   0.75677   0.00000  Uiso   1.00
O1895  O     0.63619   0.66646   0.71734   0.00000  Uiso   1.00
O1896  O     0.62037   0.72179   0.76679   0.00000  Uiso   1.00
N1897  N     0.66124   0.89860   0.74688   0.00000  Uiso   1.00
O1898  O     0.65178   0.93620   0.72534   0.00000  Uiso   1.00
O1899  O     0.67793   0.86532   0.72390   0.00000  Uiso   1.00
N1900  N     0.87039   0.57044   0.91084   0.00000  Uiso   1.00
O1901  O     0.88607   0.58280   0.95008   0.00000  Uiso   1.00
O1902  O     0.86942   0.52682   0.90183   0.00000  Uiso   1.00
N1903  N     0.84766   0.59169   0.74511   0.00000  Uiso   1.00
O1904  O     0.85294   0.54976   0.73145   0.00000  Uiso   1.00
O1905  O     0.84109   0.62290   0.71393   0.00000  Uiso   1.00
N1906  N     0.62950   0.92772   0.90938   0.00000  Uiso   1.00
O1907  O     0.61641   0.91598   0.95006   0.00000  Uiso   1.00
O1908  O     0.62574   0.97038   0.89744   0.00000  Uiso   1.00
N1909  N     0.83875   0.89859   0.91979   0.00000  Uiso   1.00
O1910  O     0.84822   0.93618   0.94133   0.00000  Uiso   1.00
O1911  O     0.82205   0.86532   0.94276   0.00000  Uiso   1.00
N1912  N     0.62961   0.57045   0.75583   0.00000  Uiso   1.00
O1913  O     0.61394   0.58281   0.71658   0.00000  Uiso   1.00
O1914  O     0.63058   0.52683   0.76484   0.00000  Uiso   1.00
N1915  N     0.65235   0.59170   0.92156   0.00000  Uiso   1.00
O1916  O     0.64708   0.54978   0.93524   0.00000  Uiso   1.00
O1917  O     0.65893   0.62293   0.95272   0.00000  Uiso   1.00
N1918  N     0.87046   0.92765   0.75726   0.00000  Uiso   1.00
O1919  O     0.88353   0.91589   0.71658   0.00000  Uiso   1.00
O1920  O     0.87424   0.97032   0.76918   0.00000  Uiso   1.00
loop_
_geom_bond_atom_site_label_1
_geom_bond_atom_site_label_2
_geom_bond_distance
_geom_bond_site_symmetry_2
_ccdc_geom_bond_type
O1     Cu29    1.997   .     S
O1     C17     1.305   .     A
O2     C18     1.313   .     A
O2     Cu190   1.997   .     S
O3     C18     1.303   .     A
O3     Cu189   1.998   .     S
O4     C17     1.313   .     A
O4     Cu30    1.998   .     S
O5     C19     1.305   .     A
O5     Cu190   1.997   .     S
O6     C20     1.313   .     A
O6     Cu29    1.997   .     S
O7     C20     1.303   .     A
O7     Cu30    1.998   .     S
O8     C19     1.313   .     A
O8     Cu189   1.998   .     S
O9     C21     1.304   .     A
O9     Cu351   1.997   .     S
O10    C22     1.317   .     A
O10    Cu32    1.997   .     S
O11    Cu31    1.998   .     S
O11    C22     1.302   .     A
O12    C21     1.314   .     A
O12    Cu352   1.998   .     S
O13    C23     1.304   .     A
O13    Cu352   1.997   .     S
O14    Cu31    1.997   .     S
O14    C24     1.317   .     A
O15    Cu32    1.998   .     S
O15    C24     1.302   .     A
O16    C23     1.314   .     A
O16    Cu351   1.998   .     S
C17    C60     1.483   .     S
C18    C59     1.481   .     S
C19    C58     1.483   .     S
C20    C57     1.481   .     S
C21    C64     1.485   .     S
C22    C63     1.485   .     S
C23    C62     1.485   .     S
C24    C61     1.485   .     S
N25    C34     1.378   .     A
N25    Cu29    2.039   .     S
N25    C196    1.377   1_455 S
N26    C33     1.377   .     A
N26    Cu30    2.039   .     S
N26    C195    1.378   1_455 S
N27    Cu31    2.039   .     S
N27    C38     1.371   .     A
N27    C360    1.378   1_545 S
N28    C357    1.378   1_545 A
N28    Cu32    2.039   .     S
N28    C39     1.371   .     S
Cu29   O168    1.998   1_455 S
Cu29   O163    1.998   1_455 S
Cu29   Cu30    2.713   .     S
Cu30   O162    1.997   1_455 S
Cu30   O165    1.997   1_455 S
Cu31   Cu32    2.713   .     S
Cu31   O336    1.998   1_545 S
Cu31   O329    1.997   1_545 S
Cu32   O333    1.997   1_545 S
Cu32   O332    1.998   1_545 S
C33    N65     1.426   .     S
C33    C1476   1.430   1_454 S
C34    N71     1.427   .     S
C34    C835    1.430   1_455 S
C35    N77     1.427   .     S
C35    N186    1.378   .     S
C35    C1474   1.430   1_554 S
C36    N83     1.426   .     S
C36    C833    1.430   .     S
C36    N185    1.377   .     S
C37    N89     1.427   .     S
C37    N348    1.378   .     A
C37    C1320   1.429   1_554 S
C38    N95     1.419   .     S
C38    C679    1.444   .     S
C39    N101    1.419   .     S
C39    C1318   1.444   1_554 S
C40    N107    1.427   .     S
C40    C677    1.429   .     S
C40    N347    1.378   .     S
C41    C58     1.413   .     A
C41    N113    1.430   .     S
C41    C51     1.395   .     A
C42    C57     1.413   .     A
C42    N116    1.449   .     S
C42    C52     1.413   .     A
C43    N119    1.430   .     S
C43    C49     1.393   .     A
C43    C57     1.413   .     A
C44    C58     1.415   .     A
C44    C50     1.414   .     A
C44    N122    1.448   .     S
C45    C60     1.413   .     A
C45    N125    1.430   .     S
C45    C55     1.395   .     A
C46    C59     1.413   .     A
C46    N128    1.449   .     S
C46    C56     1.413   .     A
C47    C53     1.393   .     A
C47    N131    1.430   .     S
C47    C59     1.413   .     A
C48    C60     1.415   .     A
C48    C54     1.414   .     A
C48    N134    1.448   .     S
C49    N137    1.429   .     S
C49    C62     1.413   .     A
C50    N140    1.449   .     S
C50    C61     1.414   .     A
C51    C61     1.419   .     A
C51    N143    1.436   .     S
C52    N146    1.444   .     S
C52    C62     1.414   .     A
C53    C64     1.413   .     A
C53    N149    1.429   .     S
C54    C63     1.414   .     A
C54    N152    1.449   .     S
C55    N155    1.436   .     S
C55    C63     1.419   .     A
C56    N158    1.444   .     S
C56    C64     1.414   .     A
N65    C67     1.443   .     S
N65    H226    1.016   1_455 S
H66    N225    1.016   .     S
C67    H68     1.106   .     S
C67    H69     1.106   .     S
C67    H70     1.107   .     S
N71    C73     1.444   .     S
N71    H232    1.017   1_455 S
H72    N231    1.017   .     S
C73    H74     1.107   .     S
C73    H75     1.107   .     S
C73    H76     1.108   .     S
N77    C79     1.443   .     S
N77    H238    1.017   .     S
H78    N237    1.017   1_455 S
C79    H81     1.107   .     S
C79    H82     1.108   .     S
C79    H80     1.107   .     S
N83    C85     1.443   .     S
N83    H244    1.016   .     S
H84    N243    1.016   1_455 S
C85    H87     1.106   .     S
C85    H86     1.106   .     S
C85    H88     1.107   .     S
N89    C91     1.443   .     S
N89    H90     1.016   .     S
C91    H92     1.106   .     S
C91    H93     1.105   .     S
C91    H94     1.107   .     S
N95    H96     1.020   .     S
N95    C97     1.440   .     S
C97    H98     1.108   .     S
C97    H99     1.107   .     S
C97    H100    1.106   .     S
N101   H102    1.020   .     S
N101   C103    1.440   .     S
C103   H105    1.107   .     S
C103   H106    1.106   .     S
C103   H104    1.108   .     S
N107   C109    1.443   .     S
N107   H108    1.016   .     S
C109   H111    1.105   .     S
C109   H112    1.107   .     S
C109   H110    1.106   .     S
N113   O114    1.302   .     A
N113   O115    1.301   .     A
N116   O117    1.299   .     A
N116   O118    1.302   .     A
N119   O121    1.300   .     A
N119   O120    1.301   .     A
N122   O124    1.301   .     A
N122   O123    1.299   .     A
N125   O126    1.302   .     A
N125   O127    1.301   .     A
N128   O129    1.299   .     A
N128   O130    1.302   .     A
N131   O132    1.301   .     A
N131   O133    1.300   .     A
N134   O136    1.301   .     A
N134   O135    1.299   .     A
N137   O139    1.300   .     A
N137   O138    1.301   .     A
N140   O142    1.302   .     A
N140   O141    1.299   .     A
N143   O144    1.299   .     A
N143   O145    1.301   .     A
N146   O148    1.300   .     A
N146   O147    1.299   .     A
N149   O151    1.300   .     A
N149   O150    1.301   .     A
N152   O154    1.302   .     A
N152   O153    1.299   .     A
N155   O157    1.301   .     A
N155   O156    1.299   .     A
N158   O160    1.300   .     A
N158   O159    1.299   .     A
O161   Cu189   1.997   .     S
O161   C177    1.305   .     A
O162   C178    1.313   .     A
O162   Cu30    1.997   1_655 S
O163   C178    1.303   .     A
O163   Cu29    1.998   1_655 S
O164   C177    1.313   .     A
O164   Cu190   1.998   .     S
O165   C179    1.305   .     A
O165   Cu30    1.997   1_655 S
O166   C180    1.313   .     A
O166   Cu189   1.997   .     S
O167   C180    1.303   .     A
O167   Cu190   1.998   .     S
O168   C179    1.313   .     A
O168   Cu29    1.998   1_655 S
O169   C181    1.304   .     A
O169   Cu511   1.997   .     S
O170   C182    1.317   .     A
O170   Cu192   1.997   .     S
O171   Cu191   1.998   .     S
O171   C182    1.302   .     A
O172   C181    1.314   .     A
O172   Cu512   1.998   .     S
O173   C183    1.304   .     A
O173   Cu512   1.997   .     S
O174   Cu191   1.997   .     S
O174   C184    1.317   .     A
O175   Cu192   1.998   .     S
O175   C184    1.302   .     A
O176   C183    1.314   .     A
O176   Cu511   1.998   .     S
C177   C220    1.483   .     S
C178   C219    1.481   .     S
C179   C218    1.483   .     S
C180   C217    1.481   .     S
C181   C224    1.485   .     S
C182   C223    1.485   .     S
C183   C222    1.485   .     S
C184   C221    1.485   .     S
N185   C194    1.378   .     A
N185   Cu189   2.039   .     S
N186   C193    1.377   .     A
N186   Cu190   2.039   .     S
N187   Cu191   2.039   .     S
N187   C198    1.371   .     A
N187   C520    1.378   1_545 S
N188   C517    1.378   1_545 A
N188   Cu192   2.039   .     S
N188   C199    1.371   .     S
Cu189  Cu190   2.713   .     S
Cu191  Cu192   2.713   .     S
Cu191  O496    1.998   1_545 S
Cu191  O489    1.997   1_545 S
Cu192  O493    1.997   1_545 S
Cu192  O492    1.998   1_545 S
C193   N225    1.426   .     S
C193   C1316   1.430   1_554 S
C194   N231    1.427   .     S
C194   C675    1.430   .     S
C195   N237    1.427   .     S
C195   N26     1.378   1_655 S
C195   C1314   1.430   1_654 S
C196   N243    1.426   .     S
C196   C673    1.430   1_655 S
C196   N25     1.377   1_655 S
C197   N249    1.427   .     S
C197   N508    1.378   .     A
C197   C1480   1.429   1_554 S
C198   N255    1.419   .     S
C198   C839    1.444   .     S
C199   N261    1.419   .     S
C199   C1478   1.444   1_554 S
C200   N267    1.427   .     S
C200   C837    1.429   .     S
C200   N507    1.378   .     S
C201   C218    1.413   .     A
C201   N273    1.430   .     S
C201   C211    1.395   .     A
C202   C217    1.413   .     A
C202   N276    1.449   .     S
C202   C212    1.413   .     A
C203   N279    1.430   .     S
C203   C209    1.393   .     A
C203   C217    1.413   .     A
C204   C218    1.415   .     A
C204   C210    1.414   .     A
C204   N282    1.448   .     S
C205   C220    1.413   .     A
C205   N285    1.430   .     S
C205   C215    1.395   .     A
C206   C219    1.413   .     A
C206   N288    1.449   .     S
C206   C216    1.413   .     A
C207   C213    1.393   .     A
C207   N291    1.430   .     S
C207   C219    1.413   .     A
C208   C220    1.415   .     A
C208   C214    1.414   .     A
C208   N294    1.448   .     S
C209   N297    1.429   .     S
C209   C222    1.413   .     A
C210   N300    1.449   .     S
C210   C221    1.414   .     A
C211   C221    1.419   .     A
C211   N303    1.436   .     S
C212   N306    1.444   .     S
C212   C222    1.414   .     A
C213   C224    1.413   .     A
C213   N309    1.429   .     S
C214   C223    1.414   .     A
C214   N312    1.449   .     S
C215   N315    1.436   .     S
C215   C223    1.419   .     A
C216   N318    1.444   .     S
C216   C224    1.414   .     A
N225   C227    1.443   .     S
H226   N65     1.016   1_655 S
C227   H228    1.106   .     S
C227   H229    1.106   .     S
C227   H230    1.107   .     S
N231   C233    1.444   .     S
H232   N71     1.017   1_655 S
C233   H234    1.107   .     S
C233   H235    1.107   .     S
C233   H236    1.108   .     S
N237   C239    1.443   .     S
N237   H78     1.017   1_655 S
C239   H241    1.107   .     S
C239   H242    1.108   .     S
C239   H240    1.107   .     S
N243   C245    1.443   .     S
N243   H84     1.016   1_655 S
C245   H247    1.106   .     S
C245   H246    1.106   .     S
C245   H248    1.107   .     S
N249   C251    1.443   .     S
N249   H250    1.016   .     S
C251   H252    1.106   .     S
C251   H253    1.105   .     S
C251   H254    1.107   .     S
N255   H256    1.020   .     S
N255   C257    1.440   .     S
C257   H258    1.108   .     S
C257   H259    1.107   .     S
C257   H260    1.106   .     S
N261   H262    1.020   .     S
N261   C263    1.440   .     S
C263   H265    1.107   .     S
C263   H266    1.106   .     S
C263   H264    1.108   .     S
N267   C269    1.443   .     S
N267   H268    1.016   .     S
C269   H271    1.105   .     S
C269   H272    1.107   .     S
C269   H270    1.106   .     S
N273   O274    1.302   .     A
N273   O275    1.301   .     A
N276   O277    1.299   .     A
N276   O278    1.302   .     A
N279   O281    1.300   .     A
N279   O280    1.301   .     A
N282   O284    1.301   .     A
N282   O283    1.299   .     A
N285   O286    1.302   .     A
N285   O287    1.301   .     A
N288   O289    1.299   .     A
N288   O290    1.302   .     A
N291   O292    1.301   .     A
N291   O293    1.300   .     A
N294   O296    1.301   .     A
N294   O295    1.299   .     A
N297   O299    1.300   .     A
N297   O298    1.301   .     A
N300   O302    1.302   .     A
N300   O301    1.299   .     A
N303   O304    1.299   .     A
N303   O305    1.301   .     A
N306   O308    1.300   .     A
N306   O307    1.299   .     A
N309   O311    1.300   .     A
N309   O310    1.301   .     A
N312   O314    1.302   .     A
N312   O313    1.299   .     A
N315   O317    1.301   .     A
N315   O316    1.299   .     A
N318   O320    1.300   .     A
N318   O319    1.299   .     A
O321   Cu349   1.997   .     S
O321   C337    1.305   .     A
O322   C338    1.313   .     A
O322   Cu510   1.997   .     S
O323   C338    1.303   .     A
O323   Cu509   1.998   .     S
O324   C337    1.313   .     A
O324   Cu350   1.998   .     S
O325   C339    1.305   .     A
O325   Cu510   1.997   .     S
O326   C340    1.313   .     A
O326   Cu349   1.997   .     S
O327   C340    1.303   .     A
O327   Cu350   1.998   .     S
O328   C339    1.313   .     A
O328   Cu509   1.998   .     S
O329   C341    1.304   .     A
O329   Cu31    1.997   1_565 S
O330   C342    1.317   .     A
O330   Cu352   1.997   .     S
O331   Cu351   1.998   .     S
O331   C342    1.302   .     A
O332   C341    1.314   .     A
O332   Cu32    1.998   1_565 S
O333   C343    1.304   .     A
O333   Cu32    1.997   1_565 S
O334   Cu351   1.997   .     S
O334   C344    1.317   .     A
O335   Cu352   1.998   .     S
O335   C344    1.302   .     A
O336   C343    1.314   .     A
O336   Cu31    1.998   1_565 S
C337   C380    1.483   .     S
C338   C379    1.481   .     S
C339   C378    1.483   .     S
C340   C377    1.481   .     S
C341   C384    1.485   .     S
C342   C383    1.485   .     S
C343   C382    1.485   .     S
C344   C381    1.485   .     S
N345   C354    1.378   .     A
N345   Cu349   2.039   .     S
N345   C516    1.377   1_455 S
N346   C353    1.377   .     A
N346   Cu350   2.039   .     S
N346   C515    1.378   1_455 S
N347   Cu351   2.039   .     S
N347   C358    1.371   .     A
N348   Cu352   2.039   .     S
N348   C359    1.371   .     S
Cu349  O488    1.998   1_455 S
Cu349  O483    1.998   1_455 S
Cu349  Cu350   2.713   .     S
Cu350  O482    1.997   1_455 S
Cu350  O485    1.997   1_455 S
Cu351  Cu352   2.713   .     S
C353   N385    1.426   .     S
C353   C1796   1.430   1_454 S
C354   N391    1.427   .     S
C354   C1155   1.430   1_455 S
C355   N397    1.427   .     S
C355   N506    1.378   .     S
C355   C1794   1.430   1_554 S
C356   N403    1.426   .     S
C356   C1153   1.430   .     S
C356   N505    1.377   .     S
C357   N409    1.427   .     S
C357   N28     1.378   1_565 A
C357   C1640   1.429   1_554 S
C358   N415    1.419   .     S
C358   C999    1.444   .     S
C359   N421    1.419   .     S
C359   C1638   1.444   1_554 S
C360   N427    1.427   .     S
C360   C997    1.429   .     S
C360   N27     1.378   1_565 S
C361   C378    1.413   .     A
C361   N433    1.430   .     S
C361   C371    1.395   .     A
C362   C377    1.413   .     A
C362   N436    1.449   .     S
C362   C372    1.413   .     A
C363   N439    1.430   .     S
C363   C369    1.393   .     A
C363   C377    1.413   .     A
C364   C378    1.415   .     A
C364   C370    1.414   .     A
C364   N442    1.448   .     S
C365   C380    1.413   .     A
C365   N445    1.430   .     S
C365   C375    1.395   .     A
C366   C379    1.413   .     A
C366   N448    1.449   .     S
C366   C376    1.413   .     A
C367   C373    1.393   .     A
C367   N451    1.430   .     S
C367   C379    1.413   .     A
C368   C380    1.415   .     A
C368   C374    1.414   .     A
C368   N454    1.448   .     S
C369   N457    1.429   .     S
C369   C382    1.413   .     A
C370   N460    1.449   .     S
C370   C381    1.414   .     A
C371   C381    1.419   .     A
C371   N463    1.436   .     S
C372   N466    1.444   .     S
C372   C382    1.414   .     A
C373   C384    1.413   .     A
C373   N469    1.429   .     S
C374   C383    1.414   .     A
C374   N472    1.449   .     S
C375   N475    1.436   .     S
C375   C383    1.419   .     A
C376   N478    1.444   .     S
C376   C384    1.414   .     A
N385   C387    1.443   .     S
N385   H546    1.016   1_455 S
H386   N545    1.016   .     S
C387   H388    1.106   .     S
C387   H389    1.106   .     S
C387   H390    1.107   .     S
N391   C393    1.444   .     S
N391   H552    1.017   1_455 S
H392   N551    1.017   .     S
C393   H394    1.107   .     S
C393   H395    1.107   .     S
C393   H396    1.108   .     S
N397   C399    1.443   .     S
N397   H558    1.017   .     S
H398   N557    1.017   1_455 S
C399   H401    1.107   .     S
C399   H402    1.108   .     S
C399   H400    1.107   .     S
N403   C405    1.443   .     S
N403   H564    1.016   .     S
H404   N563    1.016   1_455 S
C405   H407    1.106   .     S
C405   H406    1.106   .     S
C405   H408    1.107   .     S
N409   C411    1.443   .     S
N409   H410    1.016   .     S
C411   H412    1.106   .     S
C411   H413    1.105   .     S
C411   H414    1.107   .     S
N415   H416    1.020   .     S
N415   C417    1.440   .     S
C417   H418    1.108   .     S
C417   H419    1.107   .     S
C417   H420    1.106   .     S
N421   H422    1.020   .     S
N421   C423    1.440   .     S
C423   H425    1.107   .     S
C423   H426    1.106   .     S
C423   H424    1.108   .     S
N427   C429    1.443   .     S
N427   H428    1.016   .     S
C429   H431    1.105   .     S
C429   H432    1.107   .     S
C429   H430    1.106   .     S
N433   O434    1.302   .     A
N433   O435    1.301   .     A
N436   O437    1.299   .     A
N436   O438    1.302   .     A
N439   O441    1.300   .     A
N439   O440    1.301   .     A
N442   O444    1.301   .     A
N442   O443    1.299   .     A
N445   O446    1.302   .     A
N445   O447    1.301   .     A
N448   O449    1.299   .     A
N448   O450    1.302   .     A
N451   O452    1.301   .     A
N451   O453    1.300   .     A
N454   O456    1.301   .     A
N454   O455    1.299   .     A
N457   O459    1.300   .     A
N457   O458    1.301   .     A
N460   O462    1.302   .     A
N460   O461    1.299   .     A
N463   O464    1.299   .     A
N463   O465    1.301   .     A
N466   O468    1.300   .     A
N466   O467    1.299   .     A
N469   O471    1.300   .     A
N469   O470    1.301   .     A
N472   O474    1.302   .     A
N472   O473    1.299   .     A
N475   O477    1.301   .     A
N475   O476    1.299   .     A
N478   O480    1.300   .     A
N478   O479    1.299   .     A
O481   Cu509   1.997   .     S
O481   C497    1.305   .     A
O482   C498    1.313   .     A
O482   Cu350   1.997   1_655 S
O483   C498    1.303   .     A
O483   Cu349   1.998   1_655 S
O484   C497    1.313   .     A
O484   Cu510   1.998   .     S
O485   C499    1.305   .     A
O485   Cu350   1.997   1_655 S
O486   C500    1.313   .     A
O486   Cu509   1.997   .     S
O487   C500    1.303   .     A
O487   Cu510   1.998   .     S
O488   C499    1.313   .     A
O488   Cu349   1.998   1_655 S
O489   C501    1.304   .     A
O489   Cu191   1.997   1_565 S
O490   C502    1.317   .     A
O490   Cu512   1.997   .     S
O491   Cu511   1.998   .     S
O491   C502    1.302   .     A
O492   C501    1.314   .     A
O492   Cu192   1.998   1_565 S
O493   C503    1.304   .     A
O493   Cu192   1.997   1_565 S
O494   Cu511   1.997   .     S
O494   C504    1.317   .     A
O495   Cu512   1.998   .     S
O495   C504    1.302   .     A
O496   C503    1.314   .     A
O496   Cu191   1.998   1_565 S
C497   C540    1.483   .     S
C498   C539    1.481   .     S
C499   C538    1.483   .     S
C500   C537    1.481   .     S
C501   C544    1.485   .     S
C502   C543    1.485   .     S
C503   C542    1.485   .     S
C504   C541    1.485   .     S
N505   C514    1.378   .     A
N505   Cu509   2.039   .     S
N506   C513    1.377   .     A
N506   Cu510   2.039   .     S
N507   Cu511   2.039   .     S
N507   C518    1.371   .     A
N508   Cu512   2.039   .     S
N508   C519    1.371   .     S
Cu509  Cu510   2.713   .     S
Cu511  Cu512   2.713   .     S
C513   N545    1.426   .     S
C513   C1636   1.430   1_554 S
C514   N551    1.427   .     S
C514   C995    1.430   .     S
C515   N557    1.427   .     S
C515   N346    1.378   1_655 S
C515   C1634   1.430   1_654 S
C516   N563    1.426   .     S
C516   C993    1.430   1_655 S
C516   N345    1.377   1_655 S
C517   N569    1.427   .     S
C517   N188    1.378   1_565 A
C517   C1800   1.429   1_554 S
C518   N575    1.419   .     S
C518   C1159   1.444   .     S
C519   N581    1.419   .     S
C519   C1798   1.444   1_554 S
C520   N587    1.427   .     S
C520   C1157   1.429   .     S
C520   N187    1.378   1_565 S
C521   C538    1.413   .     A
C521   N593    1.430   .     S
C521   C531    1.395   .     A
C522   C537    1.413   .     A
C522   N596    1.449   .     S
C522   C532    1.413   .     A
C523   N599    1.430   .     S
C523   C529    1.393   .     A
C523   C537    1.413   .     A
C524   C538    1.415   .     A
C524   C530    1.414   .     A
C524   N602    1.448   .     S
C525   C540    1.413   .     A
C525   N605    1.430   .     S
C525   C535    1.395   .     A
C526   C539    1.413   .     A
C526   N608    1.449   .     S
C526   C536    1.413   .     A
C527   C533    1.393   .     A
C527   N611    1.430   .     S
C527   C539    1.413   .     A
C528   C540    1.415   .     A
C528   C534    1.414   .     A
C528   N614    1.448   .     S
C529   N617    1.429   .     S
C529   C542    1.413   .     A
C530   N620    1.449   .     S
C530   C541    1.414   .     A
C531   C541    1.419   .     A
C531   N623    1.436   .     S
C532   N626    1.444   .     S
C532   C542    1.414   .     A
C533   C544    1.413   .     A
C533   N629    1.429   .     S
C534   C543    1.414   .     A
C534   N632    1.449   .     S
C535   N635    1.436   .     S
C535   C543    1.419   .     A
C536   N638    1.444   .     S
C536   C544    1.414   .     A
N545   C547    1.443   .     S
H546   N385    1.016   1_655 S
C547   H548    1.106   .     S
C547   H549    1.106   .     S
C547   H550    1.107   .     S
N551   C553    1.444   .     S
H552   N391    1.017   1_655 S
C553   H554    1.107   .     S
C553   H555    1.107   .     S
C553   H556    1.108   .     S
N557   C559    1.443   .     S
N557   H398    1.017   1_655 S
C559   H561    1.107   .     S
C559   H562    1.108   .     S
C559   H560    1.107   .     S
N563   C565    1.443   .     S
N563   H404    1.016   1_655 S
C565   H567    1.106   .     S
C565   H566    1.106   .     S
C565   H568    1.107   .     S
N569   C571    1.443   .     S
N569   H570    1.016   .     S
C571   H572    1.106   .     S
C571   H573    1.105   .     S
C571   H574    1.107   .     S
N575   H576    1.020   .     S
N575   C577    1.440   .     S
C577   H578    1.108   .     S
C577   H579    1.107   .     S
C577   H580    1.106   .     S
N581   H582    1.020   .     S
N581   C583    1.440   .     S
C583   H585    1.107   .     S
C583   H586    1.106   .     S
C583   H584    1.108   .     S
N587   C589    1.443   .     S
N587   H588    1.016   .     S
C589   H591    1.105   .     S
C589   H592    1.107   .     S
C589   H590    1.106   .     S
N593   O594    1.302   .     A
N593   O595    1.301   .     A
N596   O597    1.299   .     A
N596   O598    1.302   .     A
N599   O601    1.300   .     A
N599   O600    1.301   .     A
N602   O604    1.301   .     A
N602   O603    1.299   .     A
N605   O606    1.302   .     A
N605   O607    1.301   .     A
N608   O609    1.299   .     A
N608   O610    1.302   .     A
N611   O612    1.301   .     A
N611   O613    1.300   .     A
N614   O616    1.301   .     A
N614   O615    1.299   .     A
N617   O619    1.300   .     A
N617   O618    1.301   .     A
N620   O622    1.302   .     A
N620   O621    1.299   .     A
N623   O624    1.299   .     A
N623   O625    1.301   .     A
N626   O628    1.300   .     A
N626   O627    1.299   .     A
N629   O631    1.300   .     A
N629   O630    1.301   .     A
N632   O634    1.302   .     A
N632   O633    1.299   .     A
N635   O637    1.301   .     A
N635   O636    1.299   .     A
N638   O640    1.300   .     A
N638   O639    1.299   .     A
O641   Cu669   1.997   .     S
O641   C657    1.305   .     A
O642   C658    1.313   .     A
O642   Cu830   1.997   .     S
O643   C658    1.303   .     A
O643   Cu829   1.998   .     S
O644   C657    1.313   .     A
O644   Cu670   1.998   .     S
O645   C659    1.305   .     A
O645   Cu830   1.997   .     S
O646   C660    1.313   .     A
O646   Cu669   1.997   .     S
O647   C660    1.303   .     A
O647   Cu670   1.998   .     S
O648   C659    1.313   .     A
O648   Cu829   1.998   .     S
O649   C661    1.304   .     A
O649   Cu991   1.997   .     S
O650   C662    1.317   .     A
O650   Cu672   1.997   .     S
O651   Cu671   1.998   .     S
O651   C662    1.302   .     A
O652   C661    1.314   .     A
O652   Cu992   1.998   .     S
O653   C663    1.304   .     A
O653   Cu992   1.997   .     S
O654   Cu671   1.997   .     S
O654   C664    1.317   .     A
O655   Cu672   1.998   .     S
O655   C664    1.302   .     A
O656   C663    1.314   .     A
O656   Cu991   1.998   .     S
C657   C700    1.483   .     S
C658   C699    1.481   .     S
C659   C698    1.483   .     S
C660   C697    1.481   .     S
C661   C704    1.485   .     S
C662   C703    1.485   .     S
C663   C702    1.485   .     S
C664   C701    1.485   .     S
N665   C674    1.378   .     A
N665   Cu669   2.039   .     S
N665   C836    1.377   1_455 S
N666   C673    1.377   .     A
N666   Cu670   2.039   .     S
N666   C835    1.378   1_455 S
N667   Cu671   2.039   .     S
N667   C678    1.371   .     A
N667   C1000   1.378   1_545 S
N668   C997    1.378   1_545 A
N668   Cu672   2.039   .     S
N668   C679    1.371   .     S
Cu669  O808    1.998   1_455 S
Cu669  O803    1.998   1_455 S
Cu669  Cu670   2.713   .     S
Cu670  O802    1.997   1_455 S
Cu670  O805    1.997   1_455 S
Cu671  Cu672   2.713   .     S
Cu671  O976    1.998   1_545 S
Cu671  O969    1.997   1_545 S
Cu672  O973    1.997   1_545 S
Cu672  O972    1.998   1_545 S
C673   N705    1.426   .     S
C673   C196    1.430   1_455 S
C674   N711    1.427   .     S
C674   C1475   1.430   1_455 S
C675   N717    1.427   .     S
C675   N826    1.378   .     S
C676   N723    1.426   .     S
C676   C1473   1.430   .     S
C676   N825    1.377   .     S
C677   N729    1.427   .     S
C677   N988    1.378   .     A
C678   N735    1.419   .     S
C678   C1319   1.444   .     S
C679   N741    1.419   .     S
C680   N747    1.427   .     S
C680   C1317   1.429   .     S
C680   N987    1.378   .     S
C681   C698    1.413   .     A
C681   N753    1.430   .     S
C681   C691    1.395   .     A
C682   C697    1.413   .     A
C682   N756    1.449   .     S
C682   C692    1.413   .     A
C683   N759    1.430   .     S
C683   C689    1.393   .     A
C683   C697    1.413   .     A
C684   C698    1.415   .     A
C684   C690    1.414   .     A
C684   N762    1.448   .     S
C685   C700    1.413   .     A
C685   N765    1.430   .     S
C685   C695    1.395   .     A
C686   C699    1.413   .     A
C686   N768    1.449   .     S
C686   C696    1.413   .     A
C687   C693    1.393   .     A
C687   N771    1.430   .     S
C687   C699    1.413   .     A
C688   C700    1.415   .     A
C688   C694    1.414   .     A
C688   N774    1.448   .     S
C689   N777    1.429   .     S
C689   C702    1.413   .     A
C690   N780    1.449   .     S
C690   C701    1.414   .     A
C691   C701    1.419   .     A
C691   N783    1.436   .     S
C692   N786    1.444   .     S
C692   C702    1.414   .     A
C693   C704    1.413   .     A
C693   N789    1.429   .     S
C694   C703    1.414   .     A
C694   N792    1.449   .     S
C695   N795    1.436   .     S
C695   C703    1.419   .     A
C696   N798    1.444   .     S
C696   C704    1.414   .     A
N705   C707    1.443   .     S
N705   H866    1.016   1_455 S
H706   N865    1.016   .     S
C707   H708    1.106   .     S
C707   H709    1.106   .     S
C707   H710    1.107   .     S
N711   C713    1.444   .     S
N711   H872    1.017   1_455 S
H712   N871    1.017   .     S
C713   H714    1.107   .     S
C713   H715    1.107   .     S
C713   H716    1.108   .     S
N717   C719    1.443   .     S
N717   H878    1.017   .     S
H718   N877    1.017   1_455 S
C719   H721    1.107   .     S
C719   H722    1.108   .     S
C719   H720    1.107   .     S
N723   C725    1.443   .     S
N723   H884    1.016   .     S
H724   N883    1.016   1_455 S
C725   H727    1.106   .     S
C725   H726    1.106   .     S
C725   H728    1.107   .     S
N729   C731    1.443   .     S
N729   H730    1.016   .     S
C731   H732    1.106   .     S
C731   H733    1.105   .     S
C731   H734    1.107   .     S
N735   H736    1.020   .     S
N735   C737    1.440   .     S
C737   H738    1.108   .     S
C737   H739    1.107   .     S
C737   H740    1.106   .     S
N741   H742    1.020   .     S
N741   C743    1.440   .     S
C743   H745    1.107   .     S
C743   H746    1.106   .     S
C743   H744    1.108   .     S
N747   C749    1.443   .     S
N747   H748    1.016   .     S
C749   H751    1.105   .     S
C749   H752    1.107   .     S
C749   H750    1.106   .     S
N753   O754    1.302   .     A
N753   O755    1.301   .     A
N756   O757    1.299   .     A
N756   O758    1.302   .     A
N759   O761    1.300   .     A
N759   O760    1.301   .     A
N762   O764    1.301   .     A
N762   O763    1.299   .     A
N765   O766    1.302   .     A
N765   O767    1.301   .     A
N768   O769    1.299   .     A
N768   O770    1.302   .     A
N771   O772    1.301   .     A
N771   O773    1.300   .     A
N774   O776    1.301   .     A
N774   O775    1.299   .     A
N777   O779    1.300   .     A
N777   O778    1.301   .     A
N780   O782    1.302   .     A
N780   O781    1.299   .     A
N783   O784    1.299   .     A
N783   O785    1.301   .     A
N786   O788    1.300   .     A
N786   O787    1.299   .     A
N789   O791    1.300   .     A
N789   O790    1.301   .     A
N792   O794    1.302   .     A
N792   O793    1.299   .     A
N795   O797    1.301   .     A
N795   O796    1.299   .     A
N798   O800    1.300   .     A
N798   O799    1.299   .     A
O801   Cu829   1.997   .     S
O801   C817    1.305   .     A
O802   C818    1.313   .     A
O802   Cu670   1.997   1_655 S
O803   C818    1.303   .     A
O803   Cu669   1.998   1_655 S
O804   C817    1.313   .     A
O804   Cu830   1.998   .     S
O805   C819    1.305   .     A
O805   Cu670   1.997   1_655 S
O806   C820    1.313   .     A
O806   Cu829   1.997   .     S
O807   C820    1.303   .     A
O807   Cu830   1.998   .     S
O808   C819    1.313   .     A
O808   Cu669   1.998   1_655 S
O809   C821    1.304   .     A
O809   Cu1151  1.997   .     S
O810   C822    1.317   .     A
O810   Cu832   1.997   .     S
O811   Cu831   1.998   .     S
O811   C822    1.302   .     A
O812   C821    1.314   .     A
O812   Cu1152  1.998   .     S
O813   C823    1.304   .     A
O813   Cu1152  1.997   .     S
O814   Cu831   1.997   .     S
O814   C824    1.317   .     A
O815   Cu832   1.998   .     S
O815   C824    1.302   .     A
O816   C823    1.314   .     A
O816   Cu1151  1.998   .     S
C817   C860    1.483   .     S
C818   C859    1.481   .     S
C819   C858    1.483   .     S
C820   C857    1.481   .     S
C821   C864    1.485   .     S
C822   C863    1.485   .     S
C823   C862    1.485   .     S
C824   C861    1.485   .     S
N825   C834    1.378   .     A
N825   Cu829   2.039   .     S
N826   C833    1.377   .     A
N826   Cu830   2.039   .     S
N827   Cu831   2.039   .     S
N827   C838    1.371   .     A
N827   C1160   1.378   1_545 S
N828   C1157   1.378   1_545 A
N828   Cu832   2.039   .     S
N828   C839    1.371   .     S
Cu829  Cu830   2.713   .     S
Cu831  Cu832   2.713   .     S
Cu831  O1136   1.998   1_545 S
Cu831  O1129   1.997   1_545 S
Cu832  O1133   1.997   1_545 S
Cu832  O1132   1.998   1_545 S
C833   N865    1.426   .     S
C834   N871    1.427   .     S
C834   C1315   1.430   .     S
C835   N877    1.427   .     S
C835   N666    1.378   1_655 S
C835   C34     1.430   1_655 S
C836   N883    1.426   .     S
C836   C1313   1.430   1_655 S
C836   N665    1.377   1_655 S
C837   N889    1.427   .     S
C837   N1148   1.378   .     A
C838   N895    1.419   .     S
C838   C1479   1.444   .     S
C839   N901    1.419   .     S
C840   N907    1.427   .     S
C840   C1477   1.429   .     S
C840   N1147   1.378   .     S
C841   C858    1.413   .     A
C841   N913    1.430   .     S
C841   C851    1.395   .     A
C842   C857    1.413   .     A
C842   N916    1.449   .     S
C842   C852    1.413   .     A
C843   N919    1.430   .     S
C843   C849    1.393   .     A
C843   C857    1.413   .     A
C844   C858    1.415   .     A
C844   C850    1.414   .     A
C844   N922    1.448   .     S
C845   C860    1.413   .     A
C845   N925    1.430   .     S
C845   C855    1.395   .     A
C846   C859    1.413   .     A
C846   N928    1.449   .     S
C846   C856    1.413   .     A
C847   C853    1.393   .     A
C847   N931    1.430   .     S
C847   C859    1.413   .     A
C848   C860    1.415   .     A
C848   C854    1.414   .     A
C848   N934    1.448   .     S
C849   N937    1.429   .     S
C849   C862    1.413   .     A
C850   N940    1.449   .     S
C850   C861    1.414   .     A
C851   C861    1.419   .     A
C851   N943    1.436   .     S
C852   N946    1.444   .     S
C852   C862    1.414   .     A
C853   C864    1.413   .     A
C853   N949    1.429   .     S
C854   C863    1.414   .     A
C854   N952    1.449   .     S
C855   N955    1.436   .     S
C855   C863    1.419   .     A
C856   N958    1.444   .     S
C856   C864    1.414   .     A
N865   C867    1.443   .     S
H866   N705    1.016   1_655 S
C867   H868    1.106   .     S
C867   H869    1.106   .     S
C867   H870    1.107   .     S
N871   C873    1.444   .     S
H872   N711    1.017   1_655 S
C873   H874    1.107   .     S
C873   H875    1.107   .     S
C873   H876    1.108   .     S
N877   C879    1.443   .     S
N877   H718    1.017   1_655 S
C879   H881    1.107   .     S
C879   H882    1.108   .     S
C879   H880    1.107   .     S
N883   C885    1.443   .     S
N883   H724    1.016   1_655 S
C885   H887    1.106   .     S
C885   H886    1.106   .     S
C885   H888    1.107   .     S
N889   C891    1.443   .     S
N889   H890    1.016   .     S
C891   H892    1.106   .     S
C891   H893    1.105   .     S
C891   H894    1.107   .     S
N895   H896    1.020   .     S
N895   C897    1.440   .     S
C897   H898    1.108   .     S
C897   H899    1.107   .     S
C897   H900    1.106   .     S
N901   H902    1.020   .     S
N901   C903    1.440   .     S
C903   H905    1.107   .     S
C903   H906    1.106   .     S
C903   H904    1.108   .     S
N907   C909    1.443   .     S
N907   H908    1.016   .     S
C909   H911    1.105   .     S
C909   H912    1.107   .     S
C909   H910    1.106   .     S
N913   O914    1.302   .     A
N913   O915    1.301   .     A
N916   O917    1.299   .     A
N916   O918    1.302   .     A
N919   O921    1.300   .     A
N919   O920    1.301   .     A
N922   O924    1.301   .     A
N922   O923    1.299   .     A
N925   O926    1.302   .     A
N925   O927    1.301   .     A
N928   O929    1.299   .     A
N928   O930    1.302   .     A
N931   O932    1.301   .     A
N931   O933    1.300   .     A
N934   O936    1.301   .     A
N934   O935    1.299   .     A
N937   O939    1.300   .     A
N937   O938    1.301   .     A
N940   O942    1.302   .     A
N940   O941    1.299   .     A
N943   O944    1.299   .     A
N943   O945    1.301   .     A
N946   O948    1.300   .     A
N946   O947    1.299   .     A
N949   O951    1.300   .     A
N949   O950    1.301   .     A
N952   O954    1.302   .     A
N952   O953    1.299   .     A
N955   O957    1.301   .     A
N955   O956    1.299   .     A
N958   O960    1.300   .     A
N958   O959    1.299   .     A
O961   Cu989   1.997   .     S
O961   C977    1.305   .     A
O962   C978    1.313   .     A
O962   Cu1150  1.997   .     S
O963   C978    1.303   .     A
O963   Cu1149  1.998   .     S
O964   C977    1.313   .     A
O964   Cu990   1.998   .     S
O965   C979    1.305   .     A
O965   Cu1150  1.997   .     S
O966   C980    1.313   .     A
O966   Cu989   1.997   .     S
O967   C980    1.303   .     A
O967   Cu990   1.998   .     S
O968   C979    1.313   .     A
O968   Cu1149  1.998   .     S
O969   C981    1.304   .     A
O969   Cu671   1.997   1_565 S
O970   C982    1.317   .     A
O970   Cu992   1.997   .     S
O971   Cu991   1.998   .     S
O971   C982    1.302   .     A
O972   C981    1.314   .     A
O972   Cu672   1.998   1_565 S
O973   C983    1.304   .     A
O973   Cu672   1.997   1_565 S
O974   Cu991   1.997   .     S
O974   C984    1.317   .     A
O975   Cu992   1.998   .     S
O975   C984    1.302   .     A
O976   C983    1.314   .     A
O976   Cu671   1.998   1_565 S
C977   C1020   1.483   .     S
C978   C1019   1.481   .     S
C979   C1018   1.483   .     S
C980   C1017   1.481   .     S
C981   C1024   1.485   .     S
C982   C1023   1.485   .     S
C983   C1022   1.485   .     S
C984   C1021   1.485   .     S
N985   C994    1.378   .     A
N985   Cu989   2.039   .     S
N985   C1156   1.377   1_455 S
N986   C993    1.377   .     A
N986   Cu990   2.039   .     S
N986   C1155   1.378   1_455 S
N987   Cu991   2.039   .     S
N987   C998    1.371   .     A
N988   Cu992   2.039   .     S
N988   C999    1.371   .     S
Cu989  O1128   1.998   1_455 S
Cu989  O1123   1.998   1_455 S
Cu989  Cu990   2.713   .     S
Cu990  O1122   1.997   1_455 S
Cu990  O1125   1.997   1_455 S
Cu991  Cu992   2.713   .     S
C993   N1025   1.426   .     S
C993   C516    1.430   1_455 S
C994   N1031   1.427   .     S
C994   C1795   1.430   1_455 S
C995   N1037   1.427   .     S
C995   N1146   1.378   .     S
C996   N1043   1.426   .     S
C996   C1793   1.430   .     S
C996   N1145   1.377   .     S
C997   N1049   1.427   .     S
C997   N668    1.378   1_565 A
C998   N1055   1.419   .     S
C998   C1639   1.444   .     S
C999   N1061   1.419   .     S
C1000  N1067   1.427   .     S
C1000  C1637   1.429   .     S
C1000  N667    1.378   1_565 S
C1001  C1018   1.413   .     A
C1001  N1073   1.430   .     S
C1001  C1011   1.395   .     A
C1002  C1017   1.413   .     A
C1002  N1076   1.449   .     S
C1002  C1012   1.413   .     A
C1003  N1079   1.430   .     S
C1003  C1009   1.393   .     A
C1003  C1017   1.413   .     A
C1004  C1018   1.415   .     A
C1004  C1010   1.414   .     A
C1004  N1082   1.448   .     S
C1005  C1020   1.413   .     A
C1005  N1085   1.430   .     S
C1005  C1015   1.395   .     A
C1006  C1019   1.413   .     A
C1006  N1088   1.449   .     S
C1006  C1016   1.413   .     A
C1007  C1013   1.393   .     A
C1007  N1091   1.430   .     S
C1007  C1019   1.413   .     A
C1008  C1020   1.415   .     A
C1008  C1014   1.414   .     A
C1008  N1094   1.448   .     S
C1009  N1097   1.429   .     S
C1009  C1022   1.413   .     A
C1010  N1100   1.449   .     S
C1010  C1021   1.414   .     A
C1011  C1021   1.419   .     A
C1011  N1103   1.436   .     S
C1012  N1106   1.444   .     S
C1012  C1022   1.414   .     A
C1013  C1024   1.413   .     A
C1013  N1109   1.429   .     S
C1014  C1023   1.414   .     A
C1014  N1112   1.449   .     S
C1015  N1115   1.436   .     S
C1015  C1023   1.419   .     A
C1016  N1118   1.444   .     S
C1016  C1024   1.414   .     A
N1025  C1027   1.443   .     S
N1025  H1186   1.016   1_455 S
H1026  N1185   1.016   .     S
C1027  H1028   1.106   .     S
C1027  H1029   1.106   .     S
C1027  H1030   1.107   .     S
N1031  C1033   1.444   .     S
N1031  H1192   1.017   1_455 S
H1032  N1191   1.017   .     S
C1033  H1034   1.107   .     S
C1033  H1035   1.107   .     S
C1033  H1036   1.108   .     S
N1037  C1039   1.443   .     S
N1037  H1198   1.017   .     S
H1038  N1197   1.017   1_455 S
C1039  H1041   1.107   .     S
C1039  H1042   1.108   .     S
C1039  H1040   1.107   .     S
N1043  C1045   1.443   .     S
N1043  H1204   1.016   .     S
H1044  N1203   1.016   1_455 S
C1045  H1047   1.106   .     S
C1045  H1046   1.106   .     S
C1045  H1048   1.107   .     S
N1049  C1051   1.443   .     S
N1049  H1050   1.016   .     S
C1051  H1052   1.106   .     S
C1051  H1053   1.105   .     S
C1051  H1054   1.107   .     S
N1055  H1056   1.020   .     S
N1055  C1057   1.440   .     S
C1057  H1058   1.108   .     S
C1057  H1059   1.107   .     S
C1057  H1060   1.106   .     S
N1061  H1062   1.020   .     S
N1061  C1063   1.440   .     S
C1063  H1065   1.107   .     S
C1063  H1066   1.106   .     S
C1063  H1064   1.108   .     S
N1067  C1069   1.443   .     S
N1067  H1068   1.016   .     S
C1069  H1071   1.105   .     S
C1069  H1072   1.107   .     S
C1069  H1070   1.106   .     S
N1073  O1074   1.302   .     A
N1073  O1075   1.301   .     A
N1076  O1077   1.299   .     A
N1076  O1078   1.302   .     A
N1079  O1081   1.300   .     A
N1079  O1080   1.301   .     A
N1082  O1084   1.301   .     A
N1082  O1083   1.299   .     A
N1085  O1086   1.302   .     A
N1085  O1087   1.301   .     A
N1088  O1089   1.299   .     A
N1088  O1090   1.302   .     A
N1091  O1092   1.301   .     A
N1091  O1093   1.300   .     A
N1094  O1096   1.301   .     A
N1094  O1095   1.299   .     A
N1097  O1099   1.300   .     A
N1097  O1098   1.301   .     A
N1100  O1102   1.302   .     A
N1100  O1101   1.299   .     A
N1103  O1104   1.299   .     A
N1103  O1105   1.301   .     A
N1106  O1108   1.300   .     A
N1106  O1107   1.299   .     A
N1109  O1111   1.300   .     A
N1109  O1110   1.301   .     A
N1112  O1114   1.302   .     A
N1112  O1113   1.299   .     A
N1115  O1117   1.301   .     A
N1115  O1116   1.299   .     A
N1118  O1120   1.300   .     A
N1118  O1119   1.299   .     A
O1121  Cu1149  1.997   .     S
O1121  C1137   1.305   .     A
O1122  C1138   1.313   .     A
O1122  Cu990   1.997   1_655 S
O1123  C1138   1.303   .     A
O1123  Cu989   1.998   1_655 S
O1124  C1137   1.313   .     A
O1124  Cu1150  1.998   .     S
O1125  C1139   1.305   .     A
O1125  Cu990   1.997   1_655 S
O1126  C1140   1.313   .     A
O1126  Cu1149  1.997   .     S
O1127  C1140   1.303   .     A
O1127  Cu1150  1.998   .     S
O1128  C1139   1.313   .     A
O1128  Cu989   1.998   1_655 S
O1129  C1141   1.304   .     A
O1129  Cu831   1.997   1_565 S
O1130  C1142   1.317   .     A
O1130  Cu1152  1.997   .     S
O1131  Cu1151  1.998   .     S
O1131  C1142   1.302   .     A
O1132  C1141   1.314   .     A
O1132  Cu832   1.998   1_565 S
O1133  C1143   1.304   .     A
O1133  Cu832   1.997   1_565 S
O1134  Cu1151  1.997   .     S
O1134  C1144   1.317   .     A
O1135  Cu1152  1.998   .     S
O1135  C1144   1.302   .     A
O1136  C1143   1.314   .     A
O1136  Cu831   1.998   1_565 S
C1137  C1180   1.483   .     S
C1138  C1179   1.481   .     S
C1139  C1178   1.483   .     S
C1140  C1177   1.481   .     S
C1141  C1184   1.485   .     S
C1142  C1183   1.485   .     S
C1143  C1182   1.485   .     S
C1144  C1181   1.485   .     S
N1145  C1154   1.378   .     A
N1145  Cu1149  2.039   .     S
N1146  C1153   1.377   .     A
N1146  Cu1150  2.039   .     S
N1147  Cu1151  2.039   .     S
N1147  C1158   1.371   .     A
N1148  Cu1152  2.039   .     S
N1148  C1159   1.371   .     S
Cu1149 Cu1150  2.713   .     S
Cu1151 Cu1152  2.713   .     S
C1153  N1185   1.426   .     S
C1154  N1191   1.427   .     S
C1154  C1635   1.430   .     S
C1155  N1197   1.427   .     S
C1155  N986    1.378   1_655 S
C1155  C354    1.430   1_655 S
C1156  N1203   1.426   .     S
C1156  C1633   1.430   1_655 S
C1156  N985    1.377   1_655 S
C1157  N1209   1.427   .     S
C1157  N828    1.378   1_565 A
C1158  N1215   1.419   .     S
C1158  C1799   1.444   .     S
C1159  N1221   1.419   .     S
C1160  N1227   1.427   .     S
C1160  C1797   1.429   .     S
C1160  N827    1.378   1_565 S
C1161  C1178   1.413   .     A
C1161  N1233   1.430   .     S
C1161  C1171   1.395   .     A
C1162  C1177   1.413   .     A
C1162  N1236   1.449   .     S
C1162  C1172   1.413   .     A
C1163  N1239   1.430   .     S
C1163  C1169   1.393   .     A
C1163  C1177   1.413   .     A
C1164  C1178   1.415   .     A
C1164  C1170   1.414   .     A
C1164  N1242   1.448   .     S
C1165  C1180   1.413   .     A
C1165  N1245   1.430   .     S
C1165  C1175   1.395   .     A
C1166  C1179   1.413   .     A
C1166  N1248   1.449   .     S
C1166  C1176   1.413   .     A
C1167  C1173   1.393   .     A
C1167  N1251   1.430   .     S
C1167  C1179   1.413   .     A
C1168  C1180   1.415   .     A
C1168  C1174   1.414   .     A
C1168  N1254   1.448   .     S
C1169  N1257   1.429   .     S
C1169  C1182   1.413   .     A
C1170  N1260   1.449   .     S
C1170  C1181   1.414   .     A
C1171  C1181   1.419   .     A
C1171  N1263   1.436   .     S
C1172  N1266   1.444   .     S
C1172  C1182   1.414   .     A
C1173  C1184   1.413   .     A
C1173  N1269   1.429   .     S
C1174  C1183   1.414   .     A
C1174  N1272   1.449   .     S
C1175  N1275   1.436   .     S
C1175  C1183   1.419   .     A
C1176  N1278   1.444   .     S
C1176  C1184   1.414   .     A
N1185  C1187   1.443   .     S
H1186  N1025   1.016   1_655 S
C1187  H1188   1.106   .     S
C1187  H1189   1.106   .     S
C1187  H1190   1.107   .     S
N1191  C1193   1.444   .     S
H1192  N1031   1.017   1_655 S
C1193  H1194   1.107   .     S
C1193  H1195   1.107   .     S
C1193  H1196   1.108   .     S
N1197  C1199   1.443   .     S
N1197  H1038   1.017   1_655 S
C1199  H1201   1.107   .     S
C1199  H1202   1.108   .     S
C1199  H1200   1.107   .     S
N1203  C1205   1.443   .     S
N1203  H1044   1.016   1_655 S
C1205  H1207   1.106   .     S
C1205  H1206   1.106   .     S
C1205  H1208   1.107   .     S
N1209  C1211   1.443   .     S
N1209  H1210   1.016   .     S
C1211  H1212   1.106   .     S
C1211  H1213   1.105   .     S
C1211  H1214   1.107   .     S
N1215  H1216   1.020   .     S
N1215  C1217   1.440   .     S
C1217  H1218   1.108   .     S
C1217  H1219   1.107   .     S
C1217  H1220   1.106   .     S
N1221  H1222   1.020   .     S
N1221  C1223   1.440   .     S
C1223  H1225   1.107   .     S
C1223  H1226   1.106   .     S
C1223  H1224   1.108   .     S
N1227  C1229   1.443   .     S
N1227  H1228   1.016   .     S
C1229  H1231   1.105   .     S
C1229  H1232   1.107   .     S
C1229  H1230   1.106   .     S
N1233  O1234   1.302   .     A
N1233  O1235   1.301   .     A
N1236  O1237   1.299   .     A
N1236  O1238   1.302   .     A
N1239  O1241   1.300   .     A
N1239  O1240   1.301   .     A
N1242  O1244   1.301   .     A
N1242  O1243   1.299   .     A
N1245  O1246   1.302   .     A
N1245  O1247   1.301   .     A
N1248  O1249   1.299   .     A
N1248  O1250   1.302   .     A
N1251  O1252   1.301   .     A
N1251  O1253   1.300   .     A
N1254  O1256   1.301   .     A
N1254  O1255   1.299   .     A
N1257  O1259   1.300   .     A
N1257  O1258   1.301   .     A
N1260  O1262   1.302   .     A
N1260  O1261   1.299   .     A
N1263  O1264   1.299   .     A
N1263  O1265   1.301   .     A
N1266  O1268   1.300   .     A
N1266  O1267   1.299   .     A
N1269  O1271   1.300   .     A
N1269  O1270   1.301   .     A
N1272  O1274   1.302   .     A
N1272  O1273   1.299   .     A
N1275  O1277   1.301   .     A
N1275  O1276   1.299   .     A
N1278  O1280   1.300   .     A
N1278  O1279   1.299   .     A
O1281  Cu1309  1.997   .     S
O1281  C1297   1.305   .     A
O1282  C1298   1.313   .     A
O1282  Cu1470  1.997   .     S
O1283  C1298   1.303   .     A
O1283  Cu1469  1.998   .     S
O1284  C1297   1.313   .     A
O1284  Cu1310  1.998   .     S
O1285  C1299   1.305   .     A
O1285  Cu1470  1.997   .     S
O1286  C1300   1.313   .     A
O1286  Cu1309  1.997   .     S
O1287  C1300   1.303   .     A
O1287  Cu1310  1.998   .     S
O1288  C1299   1.313   .     A
O1288  Cu1469  1.998   .     S
O1289  C1301   1.304   .     A
O1289  Cu1631  1.997   .     S
O1290  C1302   1.317   .     A
O1290  Cu1312  1.997   .     S
O1291  Cu1311  1.998   .     S
O1291  C1302   1.302   .     A
O1292  C1301   1.314   .     A
O1292  Cu1632  1.998   .     S
O1293  C1303   1.304   .     A
O1293  Cu1632  1.997   .     S
O1294  Cu1311  1.997   .     S
O1294  C1304   1.317   .     A
O1295  Cu1312  1.998   .     S
O1295  C1304   1.302   .     A
O1296  C1303   1.314   .     A
O1296  Cu1631  1.998   .     S
C1297  C1340   1.483   .     S
C1298  C1339   1.481   .     S
C1299  C1338   1.483   .     S
C1300  C1337   1.481   .     S
C1301  C1344   1.485   .     S
C1302  C1343   1.485   .     S
C1303  C1342   1.485   .     S
C1304  C1341   1.485   .     S
N1305  C1314   1.378   .     A
N1305  Cu1309  2.039   .     S
N1305  C1476   1.377   1_455 S
N1306  C1313   1.377   .     A
N1306  Cu1310  2.039   .     S
N1306  C1475   1.378   1_455 S
N1307  Cu1311  2.039   .     S
N1307  C1318   1.371   .     A
N1307  C1640   1.378   1_545 S
N1308  C1637   1.378   1_545 A
N1308  Cu1312  2.039   .     S
N1308  C1319   1.371   .     S
Cu1309 O1448   1.998   1_455 S
Cu1309 O1443   1.998   1_455 S
Cu1309 Cu1310  2.713   .     S
Cu1310 O1442   1.997   1_455 S
Cu1310 O1445   1.997   1_455 S
Cu1311 Cu1312  2.713   .     S
Cu1311 O1616   1.998   1_545 S
Cu1311 O1609   1.997   1_545 S
Cu1312 O1613   1.997   1_545 S
Cu1312 O1612   1.998   1_545 S
C1313  N1345   1.426   .     S
C1313  C836    1.430   1_455 S
C1314  N1351   1.427   .     S
C1314  C195    1.430   1_456 S
C1315  N1357   1.427   .     S
C1315  N1466   1.378   .     S
C1316  N1363   1.426   .     S
C1316  C193    1.430   1_556 S
C1316  N1465   1.377   .     S
C1317  N1369   1.427   .     S
C1317  N1628   1.378   .     A
C1318  N1375   1.419   .     S
C1318  C39     1.444   1_556 S
C1319  N1381   1.419   .     S
C1320  N1387   1.427   .     S
C1320  C37     1.429   1_556 S
C1320  N1627   1.378   .     S
C1321  C1338   1.413   .     A
C1321  N1393   1.430   .     S
C1321  C1331   1.395   .     A
C1322  C1337   1.413   .     A
C1322  N1396   1.449   .     S
C1322  C1332   1.413   .     A
C1323  N1399   1.430   .     S
C1323  C1329   1.393   .     A
C1323  C1337   1.413   .     A
C1324  C1338   1.415   .     A
C1324  C1330   1.414   .     A
C1324  N1402   1.448   .     S
C1325  C1340   1.413   .     A
C1325  N1405   1.430   .     S
C1325  C1335   1.395   .     A
C1326  C1339   1.413   .     A
C1326  N1408   1.449   .     S
C1326  C1336   1.413   .     A
C1327  C1333   1.393   .     A
C1327  N1411   1.430   .     S
C1327  C1339   1.413   .     A
C1328  C1340   1.415   .     A
C1328  C1334   1.414   .     A
C1328  N1414   1.448   .     S
C1329  N1417   1.429   .     S
C1329  C1342   1.413   .     A
C1330  N1420   1.449   .     S
C1330  C1341   1.414   .     A
C1331  C1341   1.419   .     A
C1331  N1423   1.436   .     S
C1332  N1426   1.444   .     S
C1332  C1342   1.414   .     A
C1333  C1344   1.413   .     A
C1333  N1429   1.429   .     S
C1334  C1343   1.414   .     A
C1334  N1432   1.449   .     S
C1335  N1435   1.436   .     S
C1335  C1343   1.419   .     A
C1336  N1438   1.444   .     S
C1336  C1344   1.414   .     A
N1345  C1347   1.443   .     S
N1345  H1506   1.016   1_455 S
H1346  N1505   1.016   .     S
C1347  H1348   1.106   .     S
C1347  H1349   1.106   .     S
C1347  H1350   1.107   .     S
N1351  C1353   1.444   .     S
N1351  H1512   1.017   1_455 S
H1352  N1511   1.017   .     S
C1353  H1354   1.107   .     S
C1353  H1355   1.107   .     S
C1353  H1356   1.108   .     S
N1357  C1359   1.443   .     S
N1357  H1518   1.017   .     S
H1358  N1517   1.017   1_455 S
C1359  H1361   1.107   .     S
C1359  H1362   1.108   .     S
C1359  H1360   1.107   .     S
N1363  C1365   1.443   .     S
N1363  H1524   1.016   .     S
H1364  N1523   1.016   1_455 S
C1365  H1367   1.106   .     S
C1365  H1366   1.106   .     S
C1365  H1368   1.107   .     S
N1369  C1371   1.443   .     S
N1369  H1370   1.016   .     S
C1371  H1372   1.106   .     S
C1371  H1373   1.105   .     S
C1371  H1374   1.107   .     S
N1375  H1376   1.020   .     S
N1375  C1377   1.440   .     S
C1377  H1378   1.108   .     S
C1377  H1379   1.107   .     S
C1377  H1380   1.106   .     S
N1381  H1382   1.020   .     S
N1381  C1383   1.440   .     S
C1383  H1385   1.107   .     S
C1383  H1386   1.106   .     S
C1383  H1384   1.108   .     S
N1387  C1389   1.443   .     S
N1387  H1388   1.016   .     S
C1389  H1391   1.105   .     S
C1389  H1392   1.107   .     S
C1389  H1390   1.106   .     S
N1393  O1394   1.302   .     A
N1393  O1395   1.301   .     A
N1396  O1397   1.299   .     A
N1396  O1398   1.302   .     A
N1399  O1401   1.300   .     A
N1399  O1400   1.301   .     A
N1402  O1404   1.301   .     A
N1402  O1403   1.299   .     A
N1405  O1406   1.302   .     A
N1405  O1407   1.301   .     A
N1408  O1409   1.299   .     A
N1408  O1410   1.302   .     A
N1411  O1412   1.301   .     A
N1411  O1413   1.300   .     A
N1414  O1416   1.301   .     A
N1414  O1415   1.299   .     A
N1417  O1419   1.300   .     A
N1417  O1418   1.301   .     A
N1420  O1422   1.302   .     A
N1420  O1421   1.299   .     A
N1423  O1424   1.299   .     A
N1423  O1425   1.301   .     A
N1426  O1428   1.300   .     A
N1426  O1427   1.299   .     A
N1429  O1431   1.300   .     A
N1429  O1430   1.301   .     A
N1432  O1434   1.302   .     A
N1432  O1433   1.299   .     A
N1435  O1437   1.301   .     A
N1435  O1436   1.299   .     A
N1438  O1440   1.300   .     A
N1438  O1439   1.299   .     A
O1441  Cu1469  1.997   .     S
O1441  C1457   1.305   .     A
O1442  C1458   1.313   .     A
O1442  Cu1310  1.997   1_655 S
O1443  C1458   1.303   .     A
O1443  Cu1309  1.998   1_655 S
O1444  C1457   1.313   .     A
O1444  Cu1470  1.998   .     S
O1445  C1459   1.305   .     A
O1445  Cu1310  1.997   1_655 S
O1446  C1460   1.313   .     A
O1446  Cu1469  1.997   .     S
O1447  C1460   1.303   .     A
O1447  Cu1470  1.998   .     S
O1448  C1459   1.313   .     A
O1448  Cu1309  1.998   1_655 S
O1449  C1461   1.304   .     A
O1449  Cu1791  1.997   .     S
O1450  C1462   1.317   .     A
O1450  Cu1472  1.997   .     S
O1451  Cu1471  1.998   .     S
O1451  C1462   1.302   .     A
O1452  C1461   1.314   .     A
O1452  Cu1792  1.998   .     S
O1453  C1463   1.304   .     A
O1453  Cu1792  1.997   .     S
O1454  Cu1471  1.997   .     S
O1454  C1464   1.317   .     A
O1455  Cu1472  1.998   .     S
O1455  C1464   1.302   .     A
O1456  C1463   1.314   .     A
O1456  Cu1791  1.998   .     S
C1457  C1500   1.483   .     S
C1458  C1499   1.481   .     S
C1459  C1498   1.483   .     S
C1460  C1497   1.481   .     S
C1461  C1504   1.485   .     S
C1462  C1503   1.485   .     S
C1463  C1502   1.485   .     S
C1464  C1501   1.485   .     S
N1465  C1474   1.378   .     A
N1465  Cu1469  2.039   .     S
N1466  C1473   1.377   .     A
N1466  Cu1470  2.039   .     S
N1467  Cu1471  2.039   .     S
N1467  C1478   1.371   .     A
N1467  C1800   1.378   1_545 S
N1468  C1797   1.378   1_545 A
N1468  Cu1472  2.039   .     S
N1468  C1479   1.371   .     S
Cu1469 Cu1470  2.713   .     S
Cu1471 Cu1472  2.713   .     S
Cu1471 O1776   1.998   1_545 S
Cu1471 O1769   1.997   1_545 S
Cu1472 O1773   1.997   1_545 S
Cu1472 O1772   1.998   1_545 S
C1473  N1505   1.426   .     S
C1474  N1511   1.427   .     S
C1474  C35     1.430   1_556 S
C1475  N1517   1.427   .     S
C1475  N1306   1.378   1_655 S
C1475  C674    1.430   1_655 S
C1476  N1523   1.426   .     S
C1476  C33     1.430   1_656 S
C1476  N1305   1.377   1_655 S
C1477  N1529   1.427   .     S
C1477  N1788   1.378   .     A
C1478  N1535   1.419   .     S
C1478  C199    1.444   1_556 S
C1479  N1541   1.419   .     S
C1480  N1547   1.427   .     S
C1480  C197    1.429   1_556 S
C1480  N1787   1.378   .     S
C1481  C1498   1.413   .     A
C1481  N1553   1.430   .     S
C1481  C1491   1.395   .     A
C1482  C1497   1.413   .     A
C1482  N1556   1.449   .     S
C1482  C1492   1.413   .     A
C1483  N1559   1.430   .     S
C1483  C1489   1.393   .     A
C1483  C1497   1.413   .     A
C1484  C1498   1.415   .     A
C1484  C1490   1.414   .     A
C1484  N1562   1.448   .     S
C1485  C1500   1.413   .     A
C1485  N1565   1.430   .     S
C1485  C1495   1.395   .     A
C1486  C1499   1.413   .     A
C1486  N1568   1.449   .     S
C1486  C1496   1.413   .     A
C1487  C1493   1.393   .     A
C1487  N1571   1.430   .     S
C1487  C1499   1.413   .     A
C1488  C1500   1.415   .     A
C1488  C1494   1.414   .     A
C1488  N1574   1.448   .     S
C1489  N1577   1.429   .     S
C1489  C1502   1.413   .     A
C1490  N1580   1.449   .     S
C1490  C1501   1.414   .     A
C1491  C1501   1.419   .     A
C1491  N1583   1.436   .     S
C1492  N1586   1.444   .     S
C1492  C1502   1.414   .     A
C1493  C1504   1.413   .     A
C1493  N1589   1.429   .     S
C1494  C1503   1.414   .     A
C1494  N1592   1.449   .     S
C1495  N1595   1.436   .     S
C1495  C1503   1.419   .     A
C1496  N1598   1.444   .     S
C1496  C1504   1.414   .     A
N1505  C1507   1.443   .     S
H1506  N1345   1.016   1_655 S
C1507  H1508   1.106   .     S
C1507  H1509   1.106   .     S
C1507  H1510   1.107   .     S
N1511  C1513   1.444   .     S
H1512  N1351   1.017   1_655 S
C1513  H1514   1.107   .     S
C1513  H1515   1.107   .     S
C1513  H1516   1.108   .     S
N1517  C1519   1.443   .     S
N1517  H1358   1.017   1_655 S
C1519  H1521   1.107   .     S
C1519  H1522   1.108   .     S
C1519  H1520   1.107   .     S
N1523  C1525   1.443   .     S
N1523  H1364   1.016   1_655 S
C1525  H1527   1.106   .     S
C1525  H1526   1.106   .     S
C1525  H1528   1.107   .     S
N1529  C1531   1.443   .     S
N1529  H1530   1.016   .     S
C1531  H1532   1.106   .     S
C1531  H1533   1.105   .     S
C1531  H1534   1.107   .     S
N1535  H1536   1.020   .     S
N1535  C1537   1.440   .     S
C1537  H1538   1.108   .     S
C1537  H1539   1.107   .     S
C1537  H1540   1.106   .     S
N1541  H1542   1.020   .     S
N1541  C1543   1.440   .     S
C1543  H1545   1.107   .     S
C1543  H1546   1.106   .     S
C1543  H1544   1.108   .     S
N1547  C1549   1.443   .     S
N1547  H1548   1.016   .     S
C1549  H1551   1.105   .     S
C1549  H1552   1.107   .     S
C1549  H1550   1.106   .     S
N1553  O1554   1.302   .     A
N1553  O1555   1.301   .     A
N1556  O1557   1.299   .     A
N1556  O1558   1.302   .     A
N1559  O1561   1.300   .     A
N1559  O1560   1.301   .     A
N1562  O1564   1.301   .     A
N1562  O1563   1.299   .     A
N1565  O1566   1.302   .     A
N1565  O1567   1.301   .     A
N1568  O1569   1.299   .     A
N1568  O1570   1.302   .     A
N1571  O1572   1.301   .     A
N1571  O1573   1.300   .     A
N1574  O1576   1.301   .     A
N1574  O1575   1.299   .     A
N1577  O1579   1.300   .     A
N1577  O1578   1.301   .     A
N1580  O1582   1.302   .     A
N1580  O1581   1.299   .     A
N1583  O1584   1.299   .     A
N1583  O1585   1.301   .     A
N1586  O1588   1.300   .     A
N1586  O1587   1.299   .     A
N1589  O1591   1.300   .     A
N1589  O1590   1.301   .     A
N1592  O1594   1.302   .     A
N1592  O1593   1.299   .     A
N1595  O1597   1.301   .     A
N1595  O1596   1.299   .     A
N1598  O1600   1.300   .     A
N1598  O1599   1.299   .     A
O1601  Cu1629  1.997   .     S
O1601  C1617   1.305   .     A
O1602  C1618   1.313   .     A
O1602  Cu1790  1.997   .     S
O1603  C1618   1.303   .     A
O1603  Cu1789  1.998   .     S
O1604  C1617   1.313   .     A
O1604  Cu1630  1.998   .     S
O1605  C1619   1.305   .     A
O1605  Cu1790  1.997   .     S
O1606  C1620   1.313   .     A
O1606  Cu1629  1.997   .     S
O1607  C1620   1.303   .     A
O1607  Cu1630  1.998   .     S
O1608  C1619   1.313   .     A
O1608  Cu1789  1.998   .     S
O1609  C1621   1.304   .     A
O1609  Cu1311  1.997   1_565 S
O1610  C1622   1.317   .     A
O1610  Cu1632  1.997   .     S
O1611  Cu1631  1.998   .     S
O1611  C1622   1.302   .     A
O1612  C1621   1.314   .     A
O1612  Cu1312  1.998   1_565 S
O1613  C1623   1.304   .     A
O1613  Cu1312  1.997   1_565 S
O1614  Cu1631  1.997   .     S
O1614  C1624   1.317   .     A
O1615  Cu1632  1.998   .     S
O1615  C1624   1.302   .     A
O1616  C1623   1.314   .     A
O1616  Cu1311  1.998   1_565 S
C1617  C1660   1.483   .     S
C1618  C1659   1.481   .     S
C1619  C1658   1.483   .     S
C1620  C1657   1.481   .     S
C1621  C1664   1.485   .     S
C1622  C1663   1.485   .     S
C1623  C1662   1.485   .     S
C1624  C1661   1.485   .     S
N1625  C1634   1.378   .     A
N1625  Cu1629  2.039   .     S
N1625  C1796   1.377   1_455 S
N1626  C1633   1.377   .     A
N1626  Cu1630  2.039   .     S
N1626  C1795   1.378   1_455 S
N1627  Cu1631  2.039   .     S
N1627  C1638   1.371   .     A
N1628  Cu1632  2.039   .     S
N1628  C1639   1.371   .     S
Cu1629 O1768   1.998   1_455 S
Cu1629 O1763   1.998   1_455 S
Cu1629 Cu1630  2.713   .     S
Cu1630 O1762   1.997   1_455 S
Cu1630 O1765   1.997   1_455 S
Cu1631 Cu1632  2.713   .     S
C1633  N1665   1.426   .     S
C1633  C1156   1.430   1_455 S
C1634  N1671   1.427   .     S
C1634  C515    1.430   1_456 S
C1635  N1677   1.427   .     S
C1635  N1786   1.378   .     S
C1636  N1683   1.426   .     S
C1636  C513    1.430   1_556 S
C1636  N1785   1.377   .     S
C1637  N1689   1.427   .     S
C1637  N1308   1.378   1_565 A
C1638  N1695   1.419   .     S
C1638  C359    1.444   1_556 S
C1639  N1701   1.419   .     S
C1640  N1707   1.427   .     S
C1640  C357    1.429   1_556 S
C1640  N1307   1.378   1_565 S
C1641  C1658   1.413   .     A
C1641  N1713   1.430   .     S
C1641  C1651   1.395   .     A
C1642  C1657   1.413   .     A
C1642  N1716   1.449   .     S
C1642  C1652   1.413   .     A
C1643  N1719   1.430   .     S
C1643  C1649   1.393   .     A
C1643  C1657   1.413   .     A
C1644  C1658   1.415   .     A
C1644  C1650   1.414   .     A
C1644  N1722   1.448   .     S
C1645  C1660   1.413   .     A
C1645  N1725   1.430   .     S
C1645  C1655   1.395   .     A
C1646  C1659   1.413   .     A
C1646  N1728   1.449   .     S
C1646  C1656   1.413   .     A
C1647  C1653   1.393   .     A
C1647  N1731   1.430   .     S
C1647  C1659   1.413   .     A
C1648  C1660   1.415   .     A
C1648  C1654   1.414   .     A
C1648  N1734   1.448   .     S
C1649  N1737   1.429   .     S
C1649  C1662   1.413   .     A
C1650  N1740   1.449   .     S
C1650  C1661   1.414   .     A
C1651  C1661   1.419   .     A
C1651  N1743   1.436   .     S
C1652  N1746   1.444   .     S
C1652  C1662   1.414   .     A
C1653  C1664   1.413   .     A
C1653  N1749   1.429   .     S
C1654  C1663   1.414   .     A
C1654  N1752   1.449   .     S
C1655  N1755   1.436   .     S
C1655  C1663   1.419   .     A
C1656  N1758   1.444   .     S
C1656  C1664   1.414   .     A
N1665  C1667   1.443   .     S
N1665  H1826   1.016   1_455 S
H1666  N1825   1.016   .     S
C1667  H1668   1.106   .     S
C1667  H1669   1.106   .     S
C1667  H1670   1.107   .     S
N1671  C1673   1.444   .     S
N1671  H1832   1.017   1_455 S
H1672  N1831   1.017   .     S
C1673  H1674   1.107   .     S
C1673  H1675   1.107   .     S
C1673  H1676   1.108   .     S
N1677  C1679   1.443   .     S
N1677  H1838   1.017   .     S
H1678  N1837   1.017   1_455 S
C1679  H1681   1.107   .     S
C1679  H1682   1.108   .     S
C1679  H1680   1.107   .     S
N1683  C1685   1.443   .     S
N1683  H1844   1.016   .     S
H1684  N1843   1.016   1_455 S
C1685  H1687   1.106   .     S
C1685  H1686   1.106   .     S
C1685  H1688   1.107   .     S
N1689  C1691   1.443   .     S
N1689  H1690   1.016   .     S
C1691  H1692   1.106   .     S
C1691  H1693   1.105   .     S
C1691  H1694   1.107   .     S
N1695  H1696   1.020   .     S
N1695  C1697   1.440   .     S
C1697  H1698   1.108   .     S
C1697  H1699   1.107   .     S
C1697  H1700   1.106   .     S
N1701  H1702   1.020   .     S
N1701  C1703   1.440   .     S
C1703  H1705   1.107   .     S
C1703  H1706   1.106   .     S
C1703  H1704   1.108   .     S
N1707  C1709   1.443   .     S
N1707  H1708   1.016   .     S
C1709  H1711   1.105   .     S
C1709  H1712   1.107   .     S
C1709  H1710   1.106   .     S
N1713  O1714   1.302   .     A
N1713  O1715   1.301   .     A
N1716  O1717   1.299   .     A
N1716  O1718   1.302   .     A
N1719  O1721   1.300   .     A
N1719  O1720   1.301   .     A
N1722  O1724   1.301   .     A
N1722  O1723   1.299   .     A
N1725  O1726   1.302   .     A
N1725  O1727   1.301   .     A
N1728  O1729   1.299   .     A
N1728  O1730   1.302   .     A
N1731  O1732   1.301   .     A
N1731  O1733   1.300   .     A
N1734  O1736   1.301   .     A
N1734  O1735   1.299   .     A
N1737  O1739   1.300   .     A
N1737  O1738   1.301   .     A
N1740  O1742   1.302   .     A
N1740  O1741   1.299   .     A
N1743  O1744   1.299   .     A
N1743  O1745   1.301   .     A
N1746  O1748   1.300   .     A
N1746  O1747   1.299   .     A
N1749  O1751   1.300   .     A
N1749  O1750   1.301   .     A
N1752  O1754   1.302   .     A
N1752  O1753   1.299   .     A
N1755  O1757   1.301   .     A
N1755  O1756   1.299   .     A
N1758  O1760   1.300   .     A
N1758  O1759   1.299   .     A
O1761  Cu1789  1.997   .     S
O1761  C1777   1.305   .     A
O1762  C1778   1.313   .     A
O1762  Cu1630  1.997   1_655 S
O1763  C1778   1.303   .     A
O1763  Cu1629  1.998   1_655 S
O1764  C1777   1.313   .     A
O1764  Cu1790  1.998   .     S
O1765  C1779   1.305   .     A
O1765  Cu1630  1.997   1_655 S
O1766  C1780   1.313   .     A
O1766  Cu1789  1.997   .     S
O1767  C1780   1.303   .     A
O1767  Cu1790  1.998   .     S
O1768  C1779   1.313   .     A
O1768  Cu1629  1.998   1_655 S
O1769  C1781   1.304   .     A
O1769  Cu1471  1.997   1_565 S
O1770  C1782   1.317   .     A
O1770  Cu1792  1.997   .     S
O1771  Cu1791  1.998   .     S
O1771  C1782   1.302   .     A
O1772  C1781   1.314   .     A
O1772  Cu1472  1.998   1_565 S
O1773  C1783   1.304   .     A
O1773  Cu1472  1.997   1_565 S
O1774  Cu1791  1.997   .     S
O1774  C1784   1.317   .     A
O1775  Cu1792  1.998   .     S
O1775  C1784   1.302   .     A
O1776  C1783   1.314   .     A
O1776  Cu1471  1.998   1_565 S
C1777  C1820   1.483   .     S
C1778  C1819   1.481   .     S
C1779  C1818   1.483   .     S
C1780  C1817   1.481   .     S
C1781  C1824   1.485   .     S
C1782  C1823   1.485   .     S
C1783  C1822   1.485   .     S
C1784  C1821   1.485   .     S
N1785  C1794   1.378   .     A
N1785  Cu1789  2.039   .     S
N1786  C1793   1.377   .     A
N1786  Cu1790  2.039   .     S
N1787  Cu1791  2.039   .     S
N1787  C1798   1.371   .     A
N1788  Cu1792  2.039   .     S
N1788  C1799   1.371   .     S
Cu1789 Cu1790  2.713   .     S
Cu1791 Cu1792  2.713   .     S
C1793  N1825   1.426   .     S
C1794  N1831   1.427   .     S
C1794  C355    1.430   1_556 S
C1795  N1837   1.427   .     S
C1795  N1626   1.378   1_655 S
C1795  C994    1.430   1_655 S
C1796  N1843   1.426   .     S
C1796  C353    1.430   1_656 S
C1796  N1625   1.377   1_655 S
C1797  N1849   1.427   .     S
C1797  N1468   1.378   1_565 A
C1798  N1855   1.419   .     S
C1798  C519    1.444   1_556 S
C1799  N1861   1.419   .     S
C1800  N1867   1.427   .     S
C1800  C517    1.429   1_556 S
C1800  N1467   1.378   1_565 S
C1801  C1818   1.413   .     A
C1801  N1873   1.430   .     S
C1801  C1811   1.395   .     A
C1802  C1817   1.413   .     A
C1802  N1876   1.449   .     S
C1802  C1812   1.413   .     A
C1803  N1879   1.430   .     S
C1803  C1809   1.393   .     A
C1803  C1817   1.413   .     A
C1804  C1818   1.415   .     A
C1804  C1810   1.414   .     A
C1804  N1882   1.448   .     S
C1805  C1820   1.413   .     A
C1805  N1885   1.430   .     S
C1805  C1815   1.395   .     A
C1806  C1819   1.413   .     A
C1806  N1888   1.449   .     S
C1806  C1816   1.413   .     A
C1807  C1813   1.393   .     A
C1807  N1891   1.430   .     S
C1807  C1819   1.413   .     A
C1808  C1820   1.415   .     A
C1808  C1814   1.414   .     A
C1808  N1894   1.448   .     S
C1809  N1897   1.429   .     S
C1809  C1822   1.413   .     A
C1810  N1900   1.449   .     S
C1810  C1821   1.414   .     A
C1811  C1821   1.419   .     A
C1811  N1903   1.436   .     S
C1812  N1906   1.444   .     S
C1812  C1822   1.414   .     A
C1813  C1824   1.413   .     A
C1813  N1909   1.429   .     S
C1814  C1823   1.414   .     A
C1814  N1912   1.449   .     S
C1815  N1915   1.436   .     S
C1815  C1823   1.419   .     A
C1816  N1918   1.444   .     S
C1816  C1824   1.414   .     A
N1825  C1827   1.443   .     S
H1826  N1665   1.016   1_655 S
C1827  H1828   1.106   .     S
C1827  H1829   1.106   .     S
C1827  H1830   1.107   .     S
N1831  C1833   1.444   .     S
H1832  N1671   1.017   1_655 S
C1833  H1834   1.107   .     S
C1833  H1835   1.107   .     S
C1833  H1836   1.108   .     S
N1837  C1839   1.443   .     S
N1837  H1678   1.017   1_655 S
C1839  H1841   1.107   .     S
C1839  H1842   1.108   .     S
C1839  H1840   1.107   .     S
N1843  C1845   1.443   .     S
N1843  H1684   1.016   1_655 S
C1845  H1847   1.106   .     S
C1845  H1846   1.106   .     S
C1845  H1848   1.107   .     S
N1849  C1851   1.443   .     S
N1849  H1850   1.016   .     S
C1851  H1852   1.106   .     S
C1851  H1853   1.105   .     S
C1851  H1854   1.107   .     S
N1855  H1856   1.020   .     S
N1855  C1857   1.440   .     S
C1857  H1858   1.108   .     S
C1857  H1859   1.107   .     S
C1857  H1860   1.106   .     S
N1861  H1862   1.020   .     S
N1861  C1863   1.440   .     S
C1863  H1865   1.107   .     S
C1863  H1866   1.106   .     S
C1863  H1864   1.108   .     S
N1867  C1869   1.443   .     S
N1867  H1868   1.016   .     S
C1869  H1871   1.105   .     S
C1869  H1872   1.107   .     S
C1869  H1870   1.106   .     S
N1873  O1874   1.302   .     A
N1873  O1875   1.301   .     A
N1876  O1877   1.299   .     A
N1876  O1878   1.302   .     A
N1879  O1881   1.300   .     A
N1879  O1880   1.301   .     A
N1882  O1884   1.301   .     A
N1882  O1883   1.299   .     A
N1885  O1886   1.302   .     A
N1885  O1887   1.301   .     A
N1888  O1889   1.299   .     A
N1888  O1890   1.302   .     A
N1891  O1892   1.301   .     A
N1891  O1893   1.300   .     A
N1894  O1896   1.301   .     A
N1894  O1895   1.299   .     A
N1897  O1899   1.300   .     A
N1897  O1898   1.301   .     A
N1900  O1902   1.302   .     A
N1900  O1901   1.299   .     A
N1903  O1904   1.299   .     A
N1903  O1905   1.301   .     A
N1906  O1908   1.300   .     A
N1906  O1907   1.299   .     A
N1909  O1911   1.300   .     A
N1909  O1910   1.301   .     A
N1912  O1914   1.302   .     A
N1912  O1913   1.299   .     A
N1915  O1917   1.301   .     A
N1915  O1916   1.299   .     A
N1918  O1920   1.300   .     A
N1918  O1919   1.299   .     A
