data_str_m2_o10_o17_pcu_sym.138
_audit_creation_date              2020-01-03
_audit_creation_method            'Materials Studio'
_symmetry_space_group_name_H-M    'P1'
_symmetry_Int_Tables_number       1
_symmetry_cell_setting            triclinic
loop_
_symmetry_equiv_pos_as_xyz
  x,y,z
_cell_length_a                    29.9410
_cell_length_b                    26.0517
_cell_length_c                    22.8655
_cell_angle_alpha                 103.0381
_cell_angle_beta                  95.9213
_cell_angle_gamma                 95.5291
loop_
_atom_site_label
_atom_site_type_symbol
_atom_site_fract_x
_atom_site_fract_y
_atom_site_fract_z
_atom_site_U_iso_or_equiv
_atom_site_adp_type
_atom_site_occupancy
C1     C     0.24853   0.06671   0.15107   0.00000  Uiso   1.00
C2     C     0.25147   0.26662   0.18227   0.00000  Uiso   1.00
C3     C     0.01033   0.07300   0.10980   0.00000  Uiso   1.00
C4     C     0.48967   0.26034   0.22353   0.00000  Uiso   1.00
C5     C     0.24796   0.01051   0.14265   0.00000  Uiso   1.00
C6     C     0.25204   0.32283   0.19069   0.00000  Uiso   1.00
C7     C     0.16468   0.16638   0.16647   0.00000  Uiso   1.00
C8     C     0.33532   0.16695   0.16686   0.00000  Uiso   1.00
C9     C     0.41260   0.21273   0.19630   0.00000  Uiso   1.00
C10    C     0.08740   0.12060   0.13704   0.00000  Uiso   1.00
C11    C     0.38357   0.16695   0.16712   0.00000  Uiso   1.00
C12    C     0.11643   0.16639   0.16622   0.00000  Uiso   1.00
C13    C     0.40032   0.12133   0.13765   0.00000  Uiso   1.00
C14    C     0.09968   0.21200   0.19568   0.00000  Uiso   1.00
C15    C     0.44682   0.12074   0.13799   0.00000  Uiso   1.00
C16    C     0.05318   0.21259   0.19534   0.00000  Uiso   1.00
C17    C     0.47661   0.16700   0.16687   0.00000  Uiso   1.00
C18    C     0.02339   0.16634   0.16647   0.00000  Uiso   1.00
C19    C     0.45950   0.21384   0.19593   0.00000  Uiso   1.00
C20    C     0.04050   0.11949   0.13741   0.00000  Uiso   1.00
C21    C     0.46373   0.07440   0.11010   0.00000  Uiso   1.00
C22    C     0.03627   0.25893   0.22324   0.00000  Uiso   1.00
Cu23   Cu    0.25501   0.17246   0.22813   0.00000  Uiso   1.00
Cu24   Cu    0.24500   0.16087   0.10521   0.00000  Uiso   1.00
H25    H     0.39799   0.24731   0.21829   0.00000  Uiso   1.00
H26    H     0.10201   0.08602   0.11504   0.00000  Uiso   1.00
H27    H     0.37706   0.08615   0.11535   0.00000  Uiso   1.00
H28    H     0.12294   0.24718   0.21798   0.00000  Uiso   1.00
H29    H     0.44043   0.03905   0.08871   0.00000  Uiso   1.00
H30    H     0.05957   0.29428   0.24462   0.00000  Uiso   1.00
H31    H     0.24423   0.31968   0.09655   0.00000  Uiso   1.00
H32    H     0.25577   0.01366   0.23678   0.00000  Uiso   1.00
N33    N     0.23745   0.15214   0.01284   0.00000  Uiso   1.00
N34    N     0.26256   0.18119   0.32049   0.00000  Uiso   1.00
O35    O     0.25326   0.09538   0.20659   0.00000  Uiso   1.00
O36    O     0.24675   0.23796   0.12674   0.00000  Uiso   1.00
O37    O     0.24480   0.08559   0.10279   0.00000  Uiso   1.00
O38    O     0.25520   0.24774   0.23055   0.00000  Uiso   1.00
O39    O     0.18936   0.17155   0.21857   0.00000  Uiso   1.00
O40    O     0.31065   0.16179   0.11476   0.00000  Uiso   1.00
O41    O     0.18090   0.16176   0.11477   0.00000  Uiso   1.00
O42    O     0.31910   0.17157   0.21857   0.00000  Uiso   1.00
C43    C     0.02691   0.02155   0.08072   0.00000  Uiso   1.00
H44    H     0.49859   0.32255   0.06250   0.00000  Uiso   1.00
H45    H     0.04564   0.02707   0.04271   0.00000  Uiso   1.00
H46    H     0.04951   0.00855   0.11477   0.00000  Uiso   1.00
C47    C     0.47309   0.31178   0.25261   0.00000  Uiso   1.00
H48    H     0.00142   0.01078   0.27083   0.00000  Uiso   1.00
H49    H     0.45049   0.32478   0.21856   0.00000  Uiso   1.00
H50    H     0.45436   0.30627   0.29062   0.00000  Uiso   1.00
N51    N     0.21030   0.10805   0.30961   0.00000  Uiso   1.00
H52    H     0.20182   0.10946   0.26626   0.00000  Uiso   1.00
C53    C     0.16928   0.09151   0.33215   0.00000  Uiso   1.00
H54    H     0.14941   0.05776   0.29773   0.00000  Uiso   1.00
H55    H     0.14796   0.12442   0.00665   0.00000  Uiso   1.00
H56    H     0.17637   0.07672   0.03987   0.00000  Uiso   1.00
N57    N     0.28970   0.22528   0.02372   0.00000  Uiso   1.00
H58    H     0.29818   0.22388   0.06707   0.00000  Uiso   1.00
C59    C     0.33072   0.24183   0.00119   0.00000  Uiso   1.00
H60    H     0.35059   0.27557   0.03561   0.00000  Uiso   1.00
H61    H     0.32363   0.25661   0.29347   0.00000  Uiso   1.00
H62    H     0.35204   0.20892   0.32668   0.00000  Uiso   1.00
C63    C     0.74853   0.06671   0.15107   0.00000  Uiso   1.00
C64    C     0.75147   0.26662   0.18227   0.00000  Uiso   1.00
C65    C     0.51033   0.07300   0.10980   0.00000  Uiso   1.00
C66    C     0.98967   0.26034   0.22353   0.00000  Uiso   1.00
C67    C     0.74796   0.01051   0.14265   0.00000  Uiso   1.00
C68    C     0.75204   0.32283   0.19069   0.00000  Uiso   1.00
C69    C     0.66468   0.16638   0.16647   0.00000  Uiso   1.00
C70    C     0.83532   0.16695   0.16686   0.00000  Uiso   1.00
C71    C     0.91260   0.21273   0.19630   0.00000  Uiso   1.00
C72    C     0.58740   0.12060   0.13704   0.00000  Uiso   1.00
C73    C     0.88357   0.16695   0.16712   0.00000  Uiso   1.00
C74    C     0.61643   0.16639   0.16622   0.00000  Uiso   1.00
C75    C     0.90032   0.12133   0.13765   0.00000  Uiso   1.00
C76    C     0.59968   0.21200   0.19568   0.00000  Uiso   1.00
C77    C     0.94682   0.12074   0.13799   0.00000  Uiso   1.00
C78    C     0.55318   0.21259   0.19534   0.00000  Uiso   1.00
C79    C     0.97661   0.16700   0.16687   0.00000  Uiso   1.00
C80    C     0.52339   0.16634   0.16647   0.00000  Uiso   1.00
C81    C     0.95950   0.21384   0.19593   0.00000  Uiso   1.00
C82    C     0.54050   0.11949   0.13741   0.00000  Uiso   1.00
C83    C     0.96373   0.07440   0.11010   0.00000  Uiso   1.00
C84    C     0.53627   0.25893   0.22324   0.00000  Uiso   1.00
Cu85   Cu    0.75501   0.17246   0.22813   0.00000  Uiso   1.00
Cu86   Cu    0.74500   0.16087   0.10521   0.00000  Uiso   1.00
H87    H     0.89799   0.24731   0.21829   0.00000  Uiso   1.00
H88    H     0.60201   0.08602   0.11504   0.00000  Uiso   1.00
H89    H     0.87706   0.08615   0.11535   0.00000  Uiso   1.00
H90    H     0.62294   0.24718   0.21798   0.00000  Uiso   1.00
H91    H     0.94043   0.03905   0.08871   0.00000  Uiso   1.00
H92    H     0.55957   0.29428   0.24462   0.00000  Uiso   1.00
H93    H     0.74423   0.31968   0.09655   0.00000  Uiso   1.00
H94    H     0.75577   0.01366   0.23678   0.00000  Uiso   1.00
N95    N     0.73745   0.15214   0.01284   0.00000  Uiso   1.00
N96    N     0.76256   0.18119   0.32049   0.00000  Uiso   1.00
O97    O     0.75326   0.09538   0.20659   0.00000  Uiso   1.00
O98    O     0.74675   0.23796   0.12674   0.00000  Uiso   1.00
O99    O     0.74480   0.08559   0.10279   0.00000  Uiso   1.00
O100   O     0.75520   0.24774   0.23055   0.00000  Uiso   1.00
O101   O     0.68936   0.17155   0.21857   0.00000  Uiso   1.00
O102   O     0.81065   0.16179   0.11476   0.00000  Uiso   1.00
O103   O     0.68090   0.16176   0.11477   0.00000  Uiso   1.00
O104   O     0.81910   0.17157   0.21857   0.00000  Uiso   1.00
C105   C     0.52691   0.02155   0.08072   0.00000  Uiso   1.00
H106   H     0.99859   0.32255   0.06250   0.00000  Uiso   1.00
H107   H     0.54564   0.02707   0.04271   0.00000  Uiso   1.00
H108   H     0.54951   0.00855   0.11477   0.00000  Uiso   1.00
C109   C     0.97309   0.31178   0.25261   0.00000  Uiso   1.00
H110   H     0.50142   0.01078   0.27083   0.00000  Uiso   1.00
H111   H     0.95049   0.32478   0.21856   0.00000  Uiso   1.00
H112   H     0.95436   0.30627   0.29062   0.00000  Uiso   1.00
N113   N     0.71030   0.10805   0.30961   0.00000  Uiso   1.00
H114   H     0.70182   0.10946   0.26626   0.00000  Uiso   1.00
C115   C     0.66928   0.09151   0.33215   0.00000  Uiso   1.00
H116   H     0.64941   0.05776   0.29773   0.00000  Uiso   1.00
H117   H     0.64796   0.12442   0.00665   0.00000  Uiso   1.00
H118   H     0.67637   0.07672   0.03987   0.00000  Uiso   1.00
N119   N     0.78970   0.22528   0.02372   0.00000  Uiso   1.00
H120   H     0.79818   0.22388   0.06707   0.00000  Uiso   1.00
C121   C     0.83072   0.24183   0.00119   0.00000  Uiso   1.00
H122   H     0.85059   0.27557   0.03561   0.00000  Uiso   1.00
H123   H     0.82363   0.25661   0.29347   0.00000  Uiso   1.00
H124   H     0.85204   0.20892   0.32668   0.00000  Uiso   1.00
C125   C     0.24853   0.40004   0.15107   0.00000  Uiso   1.00
C126   C     0.25147   0.59996   0.18227   0.00000  Uiso   1.00
C127   C     0.01033   0.40633   0.10980   0.00000  Uiso   1.00
C128   C     0.48967   0.59367   0.22353   0.00000  Uiso   1.00
C129   C     0.24796   0.34384   0.14265   0.00000  Uiso   1.00
C130   C     0.25204   0.65616   0.19069   0.00000  Uiso   1.00
C131   C     0.16468   0.49971   0.16647   0.00000  Uiso   1.00
C132   C     0.33532   0.50029   0.16686   0.00000  Uiso   1.00
C133   C     0.41260   0.54606   0.19630   0.00000  Uiso   1.00
C134   C     0.08740   0.45394   0.13704   0.00000  Uiso   1.00
C135   C     0.38357   0.50028   0.16712   0.00000  Uiso   1.00
C136   C     0.11643   0.49972   0.16622   0.00000  Uiso   1.00
C137   C     0.40032   0.45467   0.13765   0.00000  Uiso   1.00
C138   C     0.09968   0.54533   0.19568   0.00000  Uiso   1.00
C139   C     0.44682   0.45407   0.13799   0.00000  Uiso   1.00
C140   C     0.05318   0.54593   0.19534   0.00000  Uiso   1.00
C141   C     0.47661   0.50033   0.16687   0.00000  Uiso   1.00
C142   C     0.02339   0.49967   0.16647   0.00000  Uiso   1.00
C143   C     0.45950   0.54718   0.19593   0.00000  Uiso   1.00
C144   C     0.04050   0.45282   0.13741   0.00000  Uiso   1.00
C145   C     0.46373   0.40773   0.11010   0.00000  Uiso   1.00
C146   C     0.03627   0.59227   0.22324   0.00000  Uiso   1.00
Cu147  Cu    0.25501   0.50579   0.22813   0.00000  Uiso   1.00
Cu148  Cu    0.24500   0.49421   0.10521   0.00000  Uiso   1.00
H149   H     0.39799   0.58065   0.21829   0.00000  Uiso   1.00
H150   H     0.10201   0.41935   0.11504   0.00000  Uiso   1.00
H151   H     0.37706   0.41948   0.11535   0.00000  Uiso   1.00
H152   H     0.12294   0.58052   0.21798   0.00000  Uiso   1.00
H153   H     0.44043   0.37238   0.08871   0.00000  Uiso   1.00
H154   H     0.05957   0.62762   0.24462   0.00000  Uiso   1.00
H155   H     0.24423   0.65301   0.09655   0.00000  Uiso   1.00
H156   H     0.25577   0.34699   0.23678   0.00000  Uiso   1.00
N157   N     0.23745   0.48547   0.01284   0.00000  Uiso   1.00
N158   N     0.26256   0.51453   0.32049   0.00000  Uiso   1.00
O159   O     0.25326   0.42871   0.20659   0.00000  Uiso   1.00
O160   O     0.24675   0.57129   0.12674   0.00000  Uiso   1.00
O161   O     0.24480   0.41892   0.10279   0.00000  Uiso   1.00
O162   O     0.25520   0.58108   0.23055   0.00000  Uiso   1.00
O163   O     0.18936   0.50488   0.21857   0.00000  Uiso   1.00
O164   O     0.31065   0.49512   0.11476   0.00000  Uiso   1.00
O165   O     0.18090   0.49510   0.11477   0.00000  Uiso   1.00
O166   O     0.31910   0.50490   0.21857   0.00000  Uiso   1.00
C167   C     0.02691   0.35489   0.08072   0.00000  Uiso   1.00
H168   H     0.49859   0.65588   0.06250   0.00000  Uiso   1.00
H169   H     0.04564   0.36040   0.04271   0.00000  Uiso   1.00
H170   H     0.04951   0.34188   0.11477   0.00000  Uiso   1.00
C171   C     0.47309   0.64511   0.25261   0.00000  Uiso   1.00
H172   H     0.00142   0.34412   0.27083   0.00000  Uiso   1.00
H173   H     0.45049   0.65812   0.21856   0.00000  Uiso   1.00
H174   H     0.45436   0.63960   0.29062   0.00000  Uiso   1.00
N175   N     0.21030   0.44139   0.30961   0.00000  Uiso   1.00
H176   H     0.20182   0.44279   0.26626   0.00000  Uiso   1.00
C177   C     0.16928   0.42484   0.33215   0.00000  Uiso   1.00
H178   H     0.14941   0.39110   0.29773   0.00000  Uiso   1.00
H179   H     0.14796   0.45775   0.00665   0.00000  Uiso   1.00
H180   H     0.17637   0.41006   0.03987   0.00000  Uiso   1.00
N181   N     0.28970   0.55861   0.02372   0.00000  Uiso   1.00
H182   H     0.29818   0.55721   0.06707   0.00000  Uiso   1.00
C183   C     0.33072   0.57516   0.00119   0.00000  Uiso   1.00
H184   H     0.35059   0.60890   0.03561   0.00000  Uiso   1.00
H185   H     0.32363   0.58994   0.29347   0.00000  Uiso   1.00
H186   H     0.35204   0.54225   0.32668   0.00000  Uiso   1.00
C187   C     0.74853   0.40004   0.15107   0.00000  Uiso   1.00
C188   C     0.75147   0.59996   0.18227   0.00000  Uiso   1.00
C189   C     0.51033   0.40633   0.10980   0.00000  Uiso   1.00
C190   C     0.98967   0.59367   0.22353   0.00000  Uiso   1.00
C191   C     0.74796   0.34384   0.14265   0.00000  Uiso   1.00
C192   C     0.75204   0.65616   0.19069   0.00000  Uiso   1.00
C193   C     0.66468   0.49971   0.16647   0.00000  Uiso   1.00
C194   C     0.83532   0.50029   0.16686   0.00000  Uiso   1.00
C195   C     0.91260   0.54606   0.19630   0.00000  Uiso   1.00
C196   C     0.58740   0.45394   0.13704   0.00000  Uiso   1.00
C197   C     0.88357   0.50028   0.16712   0.00000  Uiso   1.00
C198   C     0.61643   0.49972   0.16622   0.00000  Uiso   1.00
C199   C     0.90032   0.45467   0.13765   0.00000  Uiso   1.00
C200   C     0.59968   0.54533   0.19568   0.00000  Uiso   1.00
C201   C     0.94682   0.45407   0.13799   0.00000  Uiso   1.00
C202   C     0.55318   0.54593   0.19534   0.00000  Uiso   1.00
C203   C     0.97661   0.50033   0.16687   0.00000  Uiso   1.00
C204   C     0.52339   0.49967   0.16647   0.00000  Uiso   1.00
C205   C     0.95950   0.54718   0.19593   0.00000  Uiso   1.00
C206   C     0.54050   0.45282   0.13741   0.00000  Uiso   1.00
C207   C     0.96373   0.40773   0.11010   0.00000  Uiso   1.00
C208   C     0.53627   0.59227   0.22324   0.00000  Uiso   1.00
Cu209  Cu    0.75501   0.50579   0.22813   0.00000  Uiso   1.00
Cu210  Cu    0.74500   0.49421   0.10521   0.00000  Uiso   1.00
H211   H     0.89799   0.58065   0.21829   0.00000  Uiso   1.00
H212   H     0.60201   0.41935   0.11504   0.00000  Uiso   1.00
H213   H     0.87706   0.41948   0.11535   0.00000  Uiso   1.00
H214   H     0.62294   0.58052   0.21798   0.00000  Uiso   1.00
H215   H     0.94043   0.37238   0.08871   0.00000  Uiso   1.00
H216   H     0.55957   0.62762   0.24462   0.00000  Uiso   1.00
H217   H     0.74423   0.65301   0.09655   0.00000  Uiso   1.00
H218   H     0.75577   0.34699   0.23678   0.00000  Uiso   1.00
N219   N     0.73745   0.48547   0.01284   0.00000  Uiso   1.00
N220   N     0.76256   0.51453   0.32049   0.00000  Uiso   1.00
O221   O     0.75326   0.42871   0.20659   0.00000  Uiso   1.00
O222   O     0.74675   0.57129   0.12674   0.00000  Uiso   1.00
O223   O     0.74480   0.41892   0.10279   0.00000  Uiso   1.00
O224   O     0.75520   0.58108   0.23055   0.00000  Uiso   1.00
O225   O     0.68936   0.50488   0.21857   0.00000  Uiso   1.00
O226   O     0.81065   0.49512   0.11476   0.00000  Uiso   1.00
O227   O     0.68090   0.49510   0.11477   0.00000  Uiso   1.00
O228   O     0.81910   0.50490   0.21857   0.00000  Uiso   1.00
C229   C     0.52691   0.35489   0.08072   0.00000  Uiso   1.00
H230   H     0.99859   0.65588   0.06250   0.00000  Uiso   1.00
H231   H     0.54564   0.36040   0.04271   0.00000  Uiso   1.00
H232   H     0.54951   0.34188   0.11477   0.00000  Uiso   1.00
C233   C     0.97309   0.64511   0.25261   0.00000  Uiso   1.00
H234   H     0.50142   0.34412   0.27083   0.00000  Uiso   1.00
H235   H     0.95049   0.65812   0.21856   0.00000  Uiso   1.00
H236   H     0.95436   0.63960   0.29062   0.00000  Uiso   1.00
N237   N     0.71030   0.44139   0.30961   0.00000  Uiso   1.00
H238   H     0.70182   0.44279   0.26626   0.00000  Uiso   1.00
C239   C     0.66928   0.42484   0.33215   0.00000  Uiso   1.00
H240   H     0.64941   0.39110   0.29773   0.00000  Uiso   1.00
H241   H     0.64796   0.45775   0.00665   0.00000  Uiso   1.00
H242   H     0.67637   0.41006   0.03987   0.00000  Uiso   1.00
N243   N     0.78970   0.55861   0.02372   0.00000  Uiso   1.00
H244   H     0.79818   0.55721   0.06707   0.00000  Uiso   1.00
C245   C     0.83072   0.57516   0.00119   0.00000  Uiso   1.00
H246   H     0.85059   0.60890   0.03561   0.00000  Uiso   1.00
H247   H     0.82363   0.58994   0.29347   0.00000  Uiso   1.00
H248   H     0.85204   0.54225   0.32668   0.00000  Uiso   1.00
C249   C     0.24853   0.73338   0.15107   0.00000  Uiso   1.00
C250   C     0.25147   0.93329   0.18227   0.00000  Uiso   1.00
C251   C     0.01033   0.73966   0.10980   0.00000  Uiso   1.00
C252   C     0.48967   0.92700   0.22353   0.00000  Uiso   1.00
C253   C     0.24796   0.67717   0.14265   0.00000  Uiso   1.00
C254   C     0.25204   0.98949   0.19069   0.00000  Uiso   1.00
C255   C     0.16468   0.83305   0.16647   0.00000  Uiso   1.00
C256   C     0.33532   0.83362   0.16686   0.00000  Uiso   1.00
C257   C     0.41260   0.87940   0.19630   0.00000  Uiso   1.00
C258   C     0.08740   0.78727   0.13704   0.00000  Uiso   1.00
C259   C     0.38357   0.83361   0.16712   0.00000  Uiso   1.00
C260   C     0.11643   0.83305   0.16622   0.00000  Uiso   1.00
C261   C     0.40032   0.78800   0.13765   0.00000  Uiso   1.00
C262   C     0.09968   0.87867   0.19568   0.00000  Uiso   1.00
C263   C     0.44682   0.78741   0.13799   0.00000  Uiso   1.00
C264   C     0.05318   0.87926   0.19534   0.00000  Uiso   1.00
C265   C     0.47661   0.83366   0.16687   0.00000  Uiso   1.00
C266   C     0.02339   0.83300   0.16647   0.00000  Uiso   1.00
C267   C     0.45950   0.88051   0.19593   0.00000  Uiso   1.00
C268   C     0.04050   0.78616   0.13741   0.00000  Uiso   1.00
C269   C     0.46373   0.74107   0.11010   0.00000  Uiso   1.00
C270   C     0.03627   0.92560   0.22324   0.00000  Uiso   1.00
Cu271  Cu    0.25501   0.83913   0.22813   0.00000  Uiso   1.00
Cu272  Cu    0.24500   0.82754   0.10521   0.00000  Uiso   1.00
H273   H     0.39799   0.91398   0.21829   0.00000  Uiso   1.00
H274   H     0.10201   0.75269   0.11504   0.00000  Uiso   1.00
H275   H     0.37706   0.75282   0.11535   0.00000  Uiso   1.00
H276   H     0.12294   0.91385   0.21798   0.00000  Uiso   1.00
H277   H     0.44043   0.70572   0.08871   0.00000  Uiso   1.00
H278   H     0.05957   0.96095   0.24462   0.00000  Uiso   1.00
H279   H     0.24423   0.98634   0.09655   0.00000  Uiso   1.00
H280   H     0.25577   0.68032   0.23678   0.00000  Uiso   1.00
N281   N     0.23745   0.81881   0.01284   0.00000  Uiso   1.00
N282   N     0.26256   0.84786   0.32049   0.00000  Uiso   1.00
O283   O     0.25326   0.76204   0.20659   0.00000  Uiso   1.00
O284   O     0.24675   0.90462   0.12674   0.00000  Uiso   1.00
O285   O     0.24480   0.75226   0.10279   0.00000  Uiso   1.00
O286   O     0.25520   0.91441   0.23055   0.00000  Uiso   1.00
O287   O     0.18936   0.83821   0.21857   0.00000  Uiso   1.00
O288   O     0.31065   0.82845   0.11476   0.00000  Uiso   1.00
O289   O     0.18090   0.82843   0.11477   0.00000  Uiso   1.00
O290   O     0.31910   0.83824   0.21857   0.00000  Uiso   1.00
C291   C     0.02691   0.68822   0.08072   0.00000  Uiso   1.00
H292   H     0.49859   0.98922   0.06250   0.00000  Uiso   1.00
H293   H     0.04564   0.69373   0.04271   0.00000  Uiso   1.00
H294   H     0.04951   0.67522   0.11477   0.00000  Uiso   1.00
C295   C     0.47309   0.97845   0.25261   0.00000  Uiso   1.00
H296   H     0.00142   0.67745   0.27083   0.00000  Uiso   1.00
H297   H     0.45049   0.99145   0.21856   0.00000  Uiso   1.00
H298   H     0.45436   0.97293   0.29062   0.00000  Uiso   1.00
N299   N     0.21030   0.77472   0.30961   0.00000  Uiso   1.00
H300   H     0.20182   0.77612   0.26626   0.00000  Uiso   1.00
C301   C     0.16928   0.75817   0.33215   0.00000  Uiso   1.00
H302   H     0.14941   0.72443   0.29773   0.00000  Uiso   1.00
H303   H     0.14796   0.79108   0.00665   0.00000  Uiso   1.00
H304   H     0.17637   0.74339   0.03987   0.00000  Uiso   1.00
N305   N     0.28970   0.89195   0.02372   0.00000  Uiso   1.00
H306   H     0.29818   0.89054   0.06707   0.00000  Uiso   1.00
C307   C     0.33072   0.90849   0.00119   0.00000  Uiso   1.00
H308   H     0.35059   0.94224   0.03561   0.00000  Uiso   1.00
H309   H     0.32363   0.92328   0.29347   0.00000  Uiso   1.00
H310   H     0.35204   0.87558   0.32668   0.00000  Uiso   1.00
C311   C     0.74853   0.73338   0.15107   0.00000  Uiso   1.00
C312   C     0.75147   0.93329   0.18227   0.00000  Uiso   1.00
C313   C     0.51033   0.73966   0.10980   0.00000  Uiso   1.00
C314   C     0.98967   0.92700   0.22353   0.00000  Uiso   1.00
C315   C     0.74796   0.67717   0.14265   0.00000  Uiso   1.00
C316   C     0.75204   0.98949   0.19069   0.00000  Uiso   1.00
C317   C     0.66468   0.83305   0.16647   0.00000  Uiso   1.00
C318   C     0.83532   0.83362   0.16686   0.00000  Uiso   1.00
C319   C     0.91260   0.87940   0.19630   0.00000  Uiso   1.00
C320   C     0.58740   0.78727   0.13704   0.00000  Uiso   1.00
C321   C     0.88357   0.83361   0.16712   0.00000  Uiso   1.00
C322   C     0.61643   0.83305   0.16622   0.00000  Uiso   1.00
C323   C     0.90032   0.78800   0.13765   0.00000  Uiso   1.00
C324   C     0.59968   0.87867   0.19568   0.00000  Uiso   1.00
C325   C     0.94682   0.78741   0.13799   0.00000  Uiso   1.00
C326   C     0.55318   0.87926   0.19534   0.00000  Uiso   1.00
C327   C     0.97661   0.83366   0.16687   0.00000  Uiso   1.00
C328   C     0.52339   0.83300   0.16647   0.00000  Uiso   1.00
C329   C     0.95950   0.88051   0.19593   0.00000  Uiso   1.00
C330   C     0.54050   0.78616   0.13741   0.00000  Uiso   1.00
C331   C     0.96373   0.74107   0.11010   0.00000  Uiso   1.00
C332   C     0.53627   0.92560   0.22324   0.00000  Uiso   1.00
Cu333  Cu    0.75501   0.83913   0.22813   0.00000  Uiso   1.00
Cu334  Cu    0.74500   0.82754   0.10521   0.00000  Uiso   1.00
H335   H     0.89799   0.91398   0.21829   0.00000  Uiso   1.00
H336   H     0.60201   0.75269   0.11504   0.00000  Uiso   1.00
H337   H     0.87706   0.75282   0.11535   0.00000  Uiso   1.00
H338   H     0.62294   0.91385   0.21798   0.00000  Uiso   1.00
H339   H     0.94043   0.70572   0.08871   0.00000  Uiso   1.00
H340   H     0.55957   0.96095   0.24462   0.00000  Uiso   1.00
H341   H     0.74423   0.98634   0.09655   0.00000  Uiso   1.00
H342   H     0.75577   0.68032   0.23678   0.00000  Uiso   1.00
N343   N     0.73745   0.81881   0.01284   0.00000  Uiso   1.00
N344   N     0.76256   0.84786   0.32049   0.00000  Uiso   1.00
O345   O     0.75326   0.76204   0.20659   0.00000  Uiso   1.00
O346   O     0.74675   0.90462   0.12674   0.00000  Uiso   1.00
O347   O     0.74480   0.75226   0.10279   0.00000  Uiso   1.00
O348   O     0.75520   0.91441   0.23055   0.00000  Uiso   1.00
O349   O     0.68936   0.83821   0.21857   0.00000  Uiso   1.00
O350   O     0.81065   0.82845   0.11476   0.00000  Uiso   1.00
O351   O     0.68090   0.82843   0.11477   0.00000  Uiso   1.00
O352   O     0.81910   0.83824   0.21857   0.00000  Uiso   1.00
C353   C     0.52691   0.68822   0.08072   0.00000  Uiso   1.00
H354   H     0.99859   0.98922   0.06250   0.00000  Uiso   1.00
H355   H     0.54564   0.69373   0.04271   0.00000  Uiso   1.00
H356   H     0.54951   0.67522   0.11477   0.00000  Uiso   1.00
C357   C     0.97309   0.97845   0.25261   0.00000  Uiso   1.00
H358   H     0.50142   0.67745   0.27083   0.00000  Uiso   1.00
H359   H     0.95049   0.99145   0.21856   0.00000  Uiso   1.00
H360   H     0.95436   0.97293   0.29062   0.00000  Uiso   1.00
N361   N     0.71030   0.77472   0.30961   0.00000  Uiso   1.00
H362   H     0.70182   0.77612   0.26626   0.00000  Uiso   1.00
C363   C     0.66928   0.75817   0.33215   0.00000  Uiso   1.00
H364   H     0.64941   0.72443   0.29773   0.00000  Uiso   1.00
H365   H     0.64796   0.79108   0.00665   0.00000  Uiso   1.00
H366   H     0.67637   0.74339   0.03987   0.00000  Uiso   1.00
N367   N     0.78970   0.89195   0.02372   0.00000  Uiso   1.00
H368   H     0.79818   0.89054   0.06707   0.00000  Uiso   1.00
C369   C     0.83072   0.90849   0.00119   0.00000  Uiso   1.00
H370   H     0.85059   0.94224   0.03561   0.00000  Uiso   1.00
H371   H     0.82363   0.92328   0.29347   0.00000  Uiso   1.00
H372   H     0.85204   0.87558   0.32668   0.00000  Uiso   1.00
C373   C     0.24853   0.06671   0.48440   0.00000  Uiso   1.00
C374   C     0.25147   0.26662   0.51560   0.00000  Uiso   1.00
C375   C     0.01033   0.07300   0.44314   0.00000  Uiso   1.00
C376   C     0.48967   0.26034   0.55686   0.00000  Uiso   1.00
C377   C     0.24796   0.01051   0.47598   0.00000  Uiso   1.00
C378   C     0.25204   0.32283   0.52402   0.00000  Uiso   1.00
C379   C     0.16468   0.16638   0.49980   0.00000  Uiso   1.00
C380   C     0.33532   0.16695   0.50020   0.00000  Uiso   1.00
C381   C     0.41260   0.21273   0.52963   0.00000  Uiso   1.00
C382   C     0.08740   0.12060   0.47037   0.00000  Uiso   1.00
C383   C     0.38357   0.16695   0.50045   0.00000  Uiso   1.00
C384   C     0.11643   0.16639   0.49955   0.00000  Uiso   1.00
C385   C     0.40032   0.12133   0.47099   0.00000  Uiso   1.00
C386   C     0.09968   0.21200   0.52901   0.00000  Uiso   1.00
C387   C     0.44682   0.12074   0.47132   0.00000  Uiso   1.00
C388   C     0.05318   0.21259   0.52868   0.00000  Uiso   1.00
C389   C     0.47661   0.16700   0.50020   0.00000  Uiso   1.00
C390   C     0.02339   0.16634   0.49980   0.00000  Uiso   1.00
C391   C     0.45950   0.21384   0.52926   0.00000  Uiso   1.00
C392   C     0.04050   0.11949   0.47074   0.00000  Uiso   1.00
C393   C     0.46373   0.07440   0.44343   0.00000  Uiso   1.00
C394   C     0.03627   0.25893   0.55657   0.00000  Uiso   1.00
Cu395  Cu    0.25501   0.17246   0.56146   0.00000  Uiso   1.00
Cu396  Cu    0.24500   0.16087   0.43854   0.00000  Uiso   1.00
H397   H     0.39799   0.24731   0.55162   0.00000  Uiso   1.00
H398   H     0.10201   0.08602   0.44838   0.00000  Uiso   1.00
H399   H     0.37706   0.08615   0.44868   0.00000  Uiso   1.00
H400   H     0.12294   0.24718   0.55132   0.00000  Uiso   1.00
H401   H     0.44043   0.03905   0.42204   0.00000  Uiso   1.00
H402   H     0.05957   0.29428   0.57796   0.00000  Uiso   1.00
H403   H     0.24423   0.31968   0.42988   0.00000  Uiso   1.00
H404   H     0.25577   0.01366   0.57012   0.00000  Uiso   1.00
N405   N     0.23745   0.15214   0.34617   0.00000  Uiso   1.00
N406   N     0.26256   0.18119   0.65383   0.00000  Uiso   1.00
O407   O     0.25326   0.09538   0.53992   0.00000  Uiso   1.00
O408   O     0.24675   0.23796   0.46008   0.00000  Uiso   1.00
O409   O     0.24480   0.08559   0.43612   0.00000  Uiso   1.00
O410   O     0.25520   0.24774   0.56388   0.00000  Uiso   1.00
O411   O     0.18936   0.17155   0.55191   0.00000  Uiso   1.00
O412   O     0.31065   0.16179   0.44809   0.00000  Uiso   1.00
O413   O     0.18090   0.16176   0.44810   0.00000  Uiso   1.00
O414   O     0.31910   0.17157   0.55190   0.00000  Uiso   1.00
C415   C     0.02691   0.02155   0.41406   0.00000  Uiso   1.00
H416   H     0.49859   0.32255   0.39583   0.00000  Uiso   1.00
H417   H     0.04564   0.02707   0.37605   0.00000  Uiso   1.00
H418   H     0.04951   0.00855   0.44811   0.00000  Uiso   1.00
C419   C     0.47309   0.31178   0.58594   0.00000  Uiso   1.00
H420   H     0.00142   0.01078   0.60417   0.00000  Uiso   1.00
H421   H     0.45049   0.32478   0.55189   0.00000  Uiso   1.00
H422   H     0.45436   0.30627   0.62395   0.00000  Uiso   1.00
N423   N     0.21030   0.10805   0.64295   0.00000  Uiso   1.00
H424   H     0.20182   0.10946   0.59960   0.00000  Uiso   1.00
C425   C     0.16928   0.09151   0.66548   0.00000  Uiso   1.00
H426   H     0.14941   0.05776   0.63106   0.00000  Uiso   1.00
H427   H     0.14796   0.12442   0.33998   0.00000  Uiso   1.00
H428   H     0.17637   0.07672   0.37320   0.00000  Uiso   1.00
N429   N     0.28970   0.22528   0.35705   0.00000  Uiso   1.00
H430   H     0.29818   0.22388   0.40040   0.00000  Uiso   1.00
C431   C     0.33072   0.24183   0.33452   0.00000  Uiso   1.00
H432   H     0.35059   0.27557   0.36894   0.00000  Uiso   1.00
H433   H     0.32363   0.25661   0.62680   0.00000  Uiso   1.00
H434   H     0.35204   0.20892   0.66002   0.00000  Uiso   1.00
C435   C     0.74853   0.06671   0.48440   0.00000  Uiso   1.00
C436   C     0.75147   0.26662   0.51560   0.00000  Uiso   1.00
C437   C     0.51033   0.07300   0.44314   0.00000  Uiso   1.00
C438   C     0.98967   0.26034   0.55686   0.00000  Uiso   1.00
C439   C     0.74796   0.01051   0.47598   0.00000  Uiso   1.00
C440   C     0.75204   0.32283   0.52402   0.00000  Uiso   1.00
C441   C     0.66468   0.16638   0.49980   0.00000  Uiso   1.00
C442   C     0.83532   0.16695   0.50020   0.00000  Uiso   1.00
C443   C     0.91260   0.21273   0.52963   0.00000  Uiso   1.00
C444   C     0.58740   0.12060   0.47037   0.00000  Uiso   1.00
C445   C     0.88357   0.16695   0.50045   0.00000  Uiso   1.00
C446   C     0.61643   0.16639   0.49955   0.00000  Uiso   1.00
C447   C     0.90032   0.12133   0.47099   0.00000  Uiso   1.00
C448   C     0.59968   0.21200   0.52901   0.00000  Uiso   1.00
C449   C     0.94682   0.12074   0.47132   0.00000  Uiso   1.00
C450   C     0.55318   0.21259   0.52868   0.00000  Uiso   1.00
C451   C     0.97661   0.16700   0.50020   0.00000  Uiso   1.00
C452   C     0.52339   0.16634   0.49980   0.00000  Uiso   1.00
C453   C     0.95950   0.21384   0.52926   0.00000  Uiso   1.00
C454   C     0.54050   0.11949   0.47074   0.00000  Uiso   1.00
C455   C     0.96373   0.07440   0.44343   0.00000  Uiso   1.00
C456   C     0.53627   0.25893   0.55657   0.00000  Uiso   1.00
Cu457  Cu    0.75501   0.17246   0.56146   0.00000  Uiso   1.00
Cu458  Cu    0.74500   0.16087   0.43854   0.00000  Uiso   1.00
H459   H     0.89799   0.24731   0.55162   0.00000  Uiso   1.00
H460   H     0.60201   0.08602   0.44838   0.00000  Uiso   1.00
H461   H     0.87706   0.08615   0.44868   0.00000  Uiso   1.00
H462   H     0.62294   0.24718   0.55132   0.00000  Uiso   1.00
H463   H     0.94043   0.03905   0.42204   0.00000  Uiso   1.00
H464   H     0.55957   0.29428   0.57796   0.00000  Uiso   1.00
H465   H     0.74423   0.31968   0.42988   0.00000  Uiso   1.00
H466   H     0.75577   0.01366   0.57012   0.00000  Uiso   1.00
N467   N     0.73745   0.15214   0.34617   0.00000  Uiso   1.00
N468   N     0.76256   0.18119   0.65383   0.00000  Uiso   1.00
O469   O     0.75326   0.09538   0.53992   0.00000  Uiso   1.00
O470   O     0.74675   0.23796   0.46008   0.00000  Uiso   1.00
O471   O     0.74480   0.08559   0.43612   0.00000  Uiso   1.00
O472   O     0.75520   0.24774   0.56388   0.00000  Uiso   1.00
O473   O     0.68936   0.17155   0.55191   0.00000  Uiso   1.00
O474   O     0.81065   0.16179   0.44809   0.00000  Uiso   1.00
O475   O     0.68090   0.16176   0.44810   0.00000  Uiso   1.00
O476   O     0.81910   0.17157   0.55190   0.00000  Uiso   1.00
C477   C     0.52691   0.02155   0.41406   0.00000  Uiso   1.00
H478   H     0.99859   0.32255   0.39583   0.00000  Uiso   1.00
H479   H     0.54564   0.02707   0.37605   0.00000  Uiso   1.00
H480   H     0.54951   0.00855   0.44811   0.00000  Uiso   1.00
C481   C     0.97309   0.31178   0.58594   0.00000  Uiso   1.00
H482   H     0.50142   0.01078   0.60417   0.00000  Uiso   1.00
H483   H     0.95049   0.32478   0.55189   0.00000  Uiso   1.00
H484   H     0.95436   0.30627   0.62395   0.00000  Uiso   1.00
N485   N     0.71030   0.10805   0.64295   0.00000  Uiso   1.00
H486   H     0.70182   0.10946   0.59960   0.00000  Uiso   1.00
C487   C     0.66928   0.09151   0.66548   0.00000  Uiso   1.00
H488   H     0.64941   0.05776   0.63106   0.00000  Uiso   1.00
H489   H     0.64796   0.12442   0.33998   0.00000  Uiso   1.00
H490   H     0.67637   0.07672   0.37320   0.00000  Uiso   1.00
N491   N     0.78970   0.22528   0.35705   0.00000  Uiso   1.00
H492   H     0.79818   0.22388   0.40040   0.00000  Uiso   1.00
C493   C     0.83072   0.24183   0.33452   0.00000  Uiso   1.00
H494   H     0.85059   0.27557   0.36894   0.00000  Uiso   1.00
H495   H     0.82363   0.25661   0.62680   0.00000  Uiso   1.00
H496   H     0.85204   0.20892   0.66002   0.00000  Uiso   1.00
C497   C     0.24853   0.40004   0.48440   0.00000  Uiso   1.00
C498   C     0.25147   0.59996   0.51560   0.00000  Uiso   1.00
C499   C     0.01033   0.40633   0.44314   0.00000  Uiso   1.00
C500   C     0.48967   0.59367   0.55686   0.00000  Uiso   1.00
C501   C     0.24796   0.34384   0.47598   0.00000  Uiso   1.00
C502   C     0.25204   0.65616   0.52402   0.00000  Uiso   1.00
C503   C     0.16468   0.49971   0.49980   0.00000  Uiso   1.00
C504   C     0.33532   0.50029   0.50020   0.00000  Uiso   1.00
C505   C     0.41260   0.54606   0.52963   0.00000  Uiso   1.00
C506   C     0.08740   0.45394   0.47037   0.00000  Uiso   1.00
C507   C     0.38357   0.50028   0.50045   0.00000  Uiso   1.00
C508   C     0.11643   0.49972   0.49955   0.00000  Uiso   1.00
C509   C     0.40032   0.45467   0.47099   0.00000  Uiso   1.00
C510   C     0.09968   0.54533   0.52901   0.00000  Uiso   1.00
C511   C     0.44682   0.45407   0.47132   0.00000  Uiso   1.00
C512   C     0.05318   0.54593   0.52868   0.00000  Uiso   1.00
C513   C     0.47661   0.50033   0.50020   0.00000  Uiso   1.00
C514   C     0.02339   0.49967   0.49980   0.00000  Uiso   1.00
C515   C     0.45950   0.54718   0.52926   0.00000  Uiso   1.00
C516   C     0.04050   0.45282   0.47074   0.00000  Uiso   1.00
C517   C     0.46373   0.40773   0.44343   0.00000  Uiso   1.00
C518   C     0.03627   0.59227   0.55657   0.00000  Uiso   1.00
Cu519  Cu    0.25501   0.50579   0.56146   0.00000  Uiso   1.00
Cu520  Cu    0.24500   0.49421   0.43854   0.00000  Uiso   1.00
H521   H     0.39799   0.58065   0.55162   0.00000  Uiso   1.00
H522   H     0.10201   0.41935   0.44838   0.00000  Uiso   1.00
H523   H     0.37706   0.41948   0.44868   0.00000  Uiso   1.00
H524   H     0.12294   0.58052   0.55132   0.00000  Uiso   1.00
H525   H     0.44043   0.37238   0.42204   0.00000  Uiso   1.00
H526   H     0.05957   0.62762   0.57796   0.00000  Uiso   1.00
H527   H     0.24423   0.65301   0.42988   0.00000  Uiso   1.00
H528   H     0.25577   0.34699   0.57012   0.00000  Uiso   1.00
N529   N     0.23745   0.48547   0.34617   0.00000  Uiso   1.00
N530   N     0.26256   0.51453   0.65383   0.00000  Uiso   1.00
O531   O     0.25326   0.42871   0.53992   0.00000  Uiso   1.00
O532   O     0.24675   0.57129   0.46008   0.00000  Uiso   1.00
O533   O     0.24480   0.41892   0.43612   0.00000  Uiso   1.00
O534   O     0.25520   0.58108   0.56388   0.00000  Uiso   1.00
O535   O     0.18936   0.50488   0.55191   0.00000  Uiso   1.00
O536   O     0.31065   0.49512   0.44809   0.00000  Uiso   1.00
O537   O     0.18090   0.49510   0.44810   0.00000  Uiso   1.00
O538   O     0.31910   0.50490   0.55190   0.00000  Uiso   1.00
C539   C     0.02691   0.35489   0.41406   0.00000  Uiso   1.00
H540   H     0.49859   0.65588   0.39583   0.00000  Uiso   1.00
H541   H     0.04564   0.36040   0.37605   0.00000  Uiso   1.00
H542   H     0.04951   0.34188   0.44811   0.00000  Uiso   1.00
C543   C     0.47309   0.64511   0.58594   0.00000  Uiso   1.00
H544   H     0.00142   0.34412   0.60417   0.00000  Uiso   1.00
H545   H     0.45049   0.65812   0.55189   0.00000  Uiso   1.00
H546   H     0.45436   0.63960   0.62395   0.00000  Uiso   1.00
N547   N     0.21030   0.44139   0.64295   0.00000  Uiso   1.00
H548   H     0.20182   0.44279   0.59960   0.00000  Uiso   1.00
C549   C     0.16928   0.42484   0.66548   0.00000  Uiso   1.00
H550   H     0.14941   0.39110   0.63106   0.00000  Uiso   1.00
H551   H     0.14796   0.45775   0.33998   0.00000  Uiso   1.00
H552   H     0.17637   0.41006   0.37320   0.00000  Uiso   1.00
N553   N     0.28970   0.55861   0.35705   0.00000  Uiso   1.00
H554   H     0.29818   0.55721   0.40040   0.00000  Uiso   1.00
C555   C     0.33072   0.57516   0.33452   0.00000  Uiso   1.00
H556   H     0.35059   0.60890   0.36894   0.00000  Uiso   1.00
H557   H     0.32363   0.58994   0.62680   0.00000  Uiso   1.00
H558   H     0.35204   0.54225   0.66002   0.00000  Uiso   1.00
C559   C     0.74853   0.40004   0.48440   0.00000  Uiso   1.00
C560   C     0.75147   0.59996   0.51560   0.00000  Uiso   1.00
C561   C     0.51033   0.40633   0.44314   0.00000  Uiso   1.00
C562   C     0.98967   0.59367   0.55686   0.00000  Uiso   1.00
C563   C     0.74796   0.34384   0.47598   0.00000  Uiso   1.00
C564   C     0.75204   0.65616   0.52402   0.00000  Uiso   1.00
C565   C     0.66468   0.49971   0.49980   0.00000  Uiso   1.00
C566   C     0.83532   0.50029   0.50020   0.00000  Uiso   1.00
C567   C     0.91260   0.54606   0.52963   0.00000  Uiso   1.00
C568   C     0.58740   0.45394   0.47037   0.00000  Uiso   1.00
C569   C     0.88357   0.50028   0.50045   0.00000  Uiso   1.00
C570   C     0.61643   0.49972   0.49955   0.00000  Uiso   1.00
C571   C     0.90032   0.45467   0.47099   0.00000  Uiso   1.00
C572   C     0.59968   0.54533   0.52901   0.00000  Uiso   1.00
C573   C     0.94682   0.45407   0.47132   0.00000  Uiso   1.00
C574   C     0.55318   0.54593   0.52868   0.00000  Uiso   1.00
C575   C     0.97661   0.50033   0.50020   0.00000  Uiso   1.00
C576   C     0.52339   0.49967   0.49980   0.00000  Uiso   1.00
C577   C     0.95950   0.54718   0.52926   0.00000  Uiso   1.00
C578   C     0.54050   0.45282   0.47074   0.00000  Uiso   1.00
C579   C     0.96373   0.40773   0.44343   0.00000  Uiso   1.00
C580   C     0.53627   0.59227   0.55657   0.00000  Uiso   1.00
Cu581  Cu    0.75501   0.50579   0.56146   0.00000  Uiso   1.00
Cu582  Cu    0.74500   0.49421   0.43854   0.00000  Uiso   1.00
H583   H     0.89799   0.58065   0.55162   0.00000  Uiso   1.00
H584   H     0.60201   0.41935   0.44838   0.00000  Uiso   1.00
H585   H     0.87706   0.41948   0.44868   0.00000  Uiso   1.00
H586   H     0.62294   0.58052   0.55132   0.00000  Uiso   1.00
H587   H     0.94043   0.37238   0.42204   0.00000  Uiso   1.00
H588   H     0.55957   0.62762   0.57796   0.00000  Uiso   1.00
H589   H     0.74423   0.65301   0.42988   0.00000  Uiso   1.00
H590   H     0.75577   0.34699   0.57012   0.00000  Uiso   1.00
N591   N     0.73745   0.48547   0.34617   0.00000  Uiso   1.00
N592   N     0.76256   0.51453   0.65383   0.00000  Uiso   1.00
O593   O     0.75326   0.42871   0.53992   0.00000  Uiso   1.00
O594   O     0.74675   0.57129   0.46008   0.00000  Uiso   1.00
O595   O     0.74480   0.41892   0.43612   0.00000  Uiso   1.00
O596   O     0.75520   0.58108   0.56388   0.00000  Uiso   1.00
O597   O     0.68936   0.50488   0.55191   0.00000  Uiso   1.00
O598   O     0.81065   0.49512   0.44809   0.00000  Uiso   1.00
O599   O     0.68090   0.49510   0.44810   0.00000  Uiso   1.00
O600   O     0.81910   0.50490   0.55190   0.00000  Uiso   1.00
C601   C     0.52691   0.35489   0.41406   0.00000  Uiso   1.00
H602   H     0.99859   0.65588   0.39583   0.00000  Uiso   1.00
H603   H     0.54564   0.36040   0.37605   0.00000  Uiso   1.00
H604   H     0.54951   0.34188   0.44811   0.00000  Uiso   1.00
C605   C     0.97309   0.64511   0.58594   0.00000  Uiso   1.00
H606   H     0.50142   0.34412   0.60417   0.00000  Uiso   1.00
H607   H     0.95049   0.65812   0.55189   0.00000  Uiso   1.00
H608   H     0.95436   0.63960   0.62395   0.00000  Uiso   1.00
N609   N     0.71030   0.44139   0.64295   0.00000  Uiso   1.00
H610   H     0.70182   0.44279   0.59960   0.00000  Uiso   1.00
C611   C     0.66928   0.42484   0.66548   0.00000  Uiso   1.00
H612   H     0.64941   0.39110   0.63106   0.00000  Uiso   1.00
H613   H     0.64796   0.45775   0.33998   0.00000  Uiso   1.00
H614   H     0.67637   0.41006   0.37320   0.00000  Uiso   1.00
N615   N     0.78970   0.55861   0.35705   0.00000  Uiso   1.00
H616   H     0.79818   0.55721   0.40040   0.00000  Uiso   1.00
C617   C     0.83072   0.57516   0.33452   0.00000  Uiso   1.00
H618   H     0.85059   0.60890   0.36894   0.00000  Uiso   1.00
H619   H     0.82363   0.58994   0.62680   0.00000  Uiso   1.00
H620   H     0.85204   0.54225   0.66002   0.00000  Uiso   1.00
C621   C     0.24853   0.73338   0.48440   0.00000  Uiso   1.00
C622   C     0.25147   0.93329   0.51560   0.00000  Uiso   1.00
C623   C     0.01033   0.73966   0.44314   0.00000  Uiso   1.00
C624   C     0.48967   0.92700   0.55686   0.00000  Uiso   1.00
C625   C     0.24796   0.67717   0.47598   0.00000  Uiso   1.00
C626   C     0.25204   0.98949   0.52402   0.00000  Uiso   1.00
C627   C     0.16468   0.83305   0.49980   0.00000  Uiso   1.00
C628   C     0.33532   0.83362   0.50020   0.00000  Uiso   1.00
C629   C     0.41260   0.87940   0.52963   0.00000  Uiso   1.00
C630   C     0.08740   0.78727   0.47037   0.00000  Uiso   1.00
C631   C     0.38357   0.83361   0.50045   0.00000  Uiso   1.00
C632   C     0.11643   0.83305   0.49955   0.00000  Uiso   1.00
C633   C     0.40032   0.78800   0.47099   0.00000  Uiso   1.00
C634   C     0.09968   0.87867   0.52901   0.00000  Uiso   1.00
C635   C     0.44682   0.78741   0.47132   0.00000  Uiso   1.00
C636   C     0.05318   0.87926   0.52868   0.00000  Uiso   1.00
C637   C     0.47661   0.83366   0.50020   0.00000  Uiso   1.00
C638   C     0.02339   0.83300   0.49980   0.00000  Uiso   1.00
C639   C     0.45950   0.88051   0.52926   0.00000  Uiso   1.00
C640   C     0.04050   0.78616   0.47074   0.00000  Uiso   1.00
C641   C     0.46373   0.74107   0.44343   0.00000  Uiso   1.00
C642   C     0.03627   0.92560   0.55657   0.00000  Uiso   1.00
Cu643  Cu    0.25501   0.83913   0.56146   0.00000  Uiso   1.00
Cu644  Cu    0.24500   0.82754   0.43854   0.00000  Uiso   1.00
H645   H     0.39799   0.91398   0.55162   0.00000  Uiso   1.00
H646   H     0.10201   0.75269   0.44838   0.00000  Uiso   1.00
H647   H     0.37706   0.75282   0.44868   0.00000  Uiso   1.00
H648   H     0.12294   0.91385   0.55132   0.00000  Uiso   1.00
H649   H     0.44043   0.70572   0.42204   0.00000  Uiso   1.00
H650   H     0.05957   0.96095   0.57796   0.00000  Uiso   1.00
H651   H     0.24423   0.98634   0.42988   0.00000  Uiso   1.00
H652   H     0.25577   0.68032   0.57012   0.00000  Uiso   1.00
N653   N     0.23745   0.81881   0.34617   0.00000  Uiso   1.00
N654   N     0.26256   0.84786   0.65383   0.00000  Uiso   1.00
O655   O     0.25326   0.76204   0.53992   0.00000  Uiso   1.00
O656   O     0.24675   0.90462   0.46008   0.00000  Uiso   1.00
O657   O     0.24480   0.75226   0.43612   0.00000  Uiso   1.00
O658   O     0.25520   0.91441   0.56388   0.00000  Uiso   1.00
O659   O     0.18936   0.83821   0.55191   0.00000  Uiso   1.00
O660   O     0.31065   0.82845   0.44809   0.00000  Uiso   1.00
O661   O     0.18090   0.82843   0.44810   0.00000  Uiso   1.00
O662   O     0.31910   0.83824   0.55190   0.00000  Uiso   1.00
C663   C     0.02691   0.68822   0.41406   0.00000  Uiso   1.00
H664   H     0.49859   0.98922   0.39583   0.00000  Uiso   1.00
H665   H     0.04564   0.69373   0.37605   0.00000  Uiso   1.00
H666   H     0.04951   0.67522   0.44811   0.00000  Uiso   1.00
C667   C     0.47309   0.97845   0.58594   0.00000  Uiso   1.00
H668   H     0.00142   0.67745   0.60417   0.00000  Uiso   1.00
H669   H     0.45049   0.99145   0.55189   0.00000  Uiso   1.00
H670   H     0.45436   0.97293   0.62395   0.00000  Uiso   1.00
N671   N     0.21030   0.77472   0.64295   0.00000  Uiso   1.00
H672   H     0.20182   0.77612   0.59960   0.00000  Uiso   1.00
C673   C     0.16928   0.75817   0.66548   0.00000  Uiso   1.00
H674   H     0.14941   0.72443   0.63106   0.00000  Uiso   1.00
H675   H     0.14796   0.79108   0.33998   0.00000  Uiso   1.00
H676   H     0.17637   0.74339   0.37320   0.00000  Uiso   1.00
N677   N     0.28970   0.89195   0.35705   0.00000  Uiso   1.00
H678   H     0.29818   0.89054   0.40040   0.00000  Uiso   1.00
C679   C     0.33072   0.90849   0.33452   0.00000  Uiso   1.00
H680   H     0.35059   0.94224   0.36894   0.00000  Uiso   1.00
H681   H     0.32363   0.92328   0.62680   0.00000  Uiso   1.00
H682   H     0.35204   0.87558   0.66002   0.00000  Uiso   1.00
C683   C     0.74853   0.73338   0.48440   0.00000  Uiso   1.00
C684   C     0.75147   0.93329   0.51560   0.00000  Uiso   1.00
C685   C     0.51033   0.73966   0.44314   0.00000  Uiso   1.00
C686   C     0.98967   0.92700   0.55686   0.00000  Uiso   1.00
C687   C     0.74796   0.67717   0.47598   0.00000  Uiso   1.00
C688   C     0.75204   0.98949   0.52402   0.00000  Uiso   1.00
C689   C     0.66468   0.83305   0.49980   0.00000  Uiso   1.00
C690   C     0.83532   0.83362   0.50020   0.00000  Uiso   1.00
C691   C     0.91260   0.87940   0.52963   0.00000  Uiso   1.00
C692   C     0.58740   0.78727   0.47037   0.00000  Uiso   1.00
C693   C     0.88357   0.83361   0.50045   0.00000  Uiso   1.00
C694   C     0.61643   0.83305   0.49955   0.00000  Uiso   1.00
C695   C     0.90032   0.78800   0.47099   0.00000  Uiso   1.00
C696   C     0.59968   0.87867   0.52901   0.00000  Uiso   1.00
C697   C     0.94682   0.78741   0.47132   0.00000  Uiso   1.00
C698   C     0.55318   0.87926   0.52868   0.00000  Uiso   1.00
C699   C     0.97661   0.83366   0.50020   0.00000  Uiso   1.00
C700   C     0.52339   0.83300   0.49980   0.00000  Uiso   1.00
C701   C     0.95950   0.88051   0.52926   0.00000  Uiso   1.00
C702   C     0.54050   0.78616   0.47074   0.00000  Uiso   1.00
C703   C     0.96373   0.74107   0.44343   0.00000  Uiso   1.00
C704   C     0.53627   0.92560   0.55657   0.00000  Uiso   1.00
Cu705  Cu    0.75501   0.83913   0.56146   0.00000  Uiso   1.00
Cu706  Cu    0.74500   0.82754   0.43854   0.00000  Uiso   1.00
H707   H     0.89799   0.91398   0.55162   0.00000  Uiso   1.00
H708   H     0.60201   0.75269   0.44838   0.00000  Uiso   1.00
H709   H     0.87706   0.75282   0.44868   0.00000  Uiso   1.00
H710   H     0.62294   0.91385   0.55132   0.00000  Uiso   1.00
H711   H     0.94043   0.70572   0.42204   0.00000  Uiso   1.00
H712   H     0.55957   0.96095   0.57796   0.00000  Uiso   1.00
H713   H     0.74423   0.98634   0.42988   0.00000  Uiso   1.00
H714   H     0.75577   0.68032   0.57012   0.00000  Uiso   1.00
N715   N     0.73745   0.81881   0.34617   0.00000  Uiso   1.00
N716   N     0.76256   0.84786   0.65383   0.00000  Uiso   1.00
O717   O     0.75326   0.76204   0.53992   0.00000  Uiso   1.00
O718   O     0.74675   0.90462   0.46008   0.00000  Uiso   1.00
O719   O     0.74480   0.75226   0.43612   0.00000  Uiso   1.00
O720   O     0.75520   0.91441   0.56388   0.00000  Uiso   1.00
O721   O     0.68936   0.83821   0.55191   0.00000  Uiso   1.00
O722   O     0.81065   0.82845   0.44809   0.00000  Uiso   1.00
O723   O     0.68090   0.82843   0.44810   0.00000  Uiso   1.00
O724   O     0.81910   0.83824   0.55190   0.00000  Uiso   1.00
C725   C     0.52691   0.68822   0.41406   0.00000  Uiso   1.00
H726   H     0.99859   0.98922   0.39583   0.00000  Uiso   1.00
H727   H     0.54564   0.69373   0.37605   0.00000  Uiso   1.00
H728   H     0.54951   0.67522   0.44811   0.00000  Uiso   1.00
C729   C     0.97309   0.97845   0.58594   0.00000  Uiso   1.00
H730   H     0.50142   0.67745   0.60417   0.00000  Uiso   1.00
H731   H     0.95049   0.99145   0.55189   0.00000  Uiso   1.00
H732   H     0.95436   0.97293   0.62395   0.00000  Uiso   1.00
N733   N     0.71030   0.77472   0.64295   0.00000  Uiso   1.00
H734   H     0.70182   0.77612   0.59960   0.00000  Uiso   1.00
C735   C     0.66928   0.75817   0.66548   0.00000  Uiso   1.00
H736   H     0.64941   0.72443   0.63106   0.00000  Uiso   1.00
H737   H     0.64796   0.79108   0.33998   0.00000  Uiso   1.00
H738   H     0.67637   0.74339   0.37320   0.00000  Uiso   1.00
N739   N     0.78970   0.89195   0.35705   0.00000  Uiso   1.00
H740   H     0.79818   0.89054   0.40040   0.00000  Uiso   1.00
C741   C     0.83072   0.90849   0.33452   0.00000  Uiso   1.00
H742   H     0.85059   0.94224   0.36894   0.00000  Uiso   1.00
H743   H     0.82363   0.92328   0.62680   0.00000  Uiso   1.00
H744   H     0.85204   0.87558   0.66002   0.00000  Uiso   1.00
C745   C     0.24853   0.06671   0.81773   0.00000  Uiso   1.00
C746   C     0.25147   0.26662   0.84893   0.00000  Uiso   1.00
C747   C     0.01033   0.07300   0.77647   0.00000  Uiso   1.00
C748   C     0.48967   0.26034   0.89020   0.00000  Uiso   1.00
C749   C     0.24796   0.01051   0.80931   0.00000  Uiso   1.00
C750   C     0.25204   0.32283   0.85735   0.00000  Uiso   1.00
C751   C     0.16468   0.16638   0.83314   0.00000  Uiso   1.00
C752   C     0.33532   0.16695   0.83353   0.00000  Uiso   1.00
C753   C     0.41260   0.21273   0.86296   0.00000  Uiso   1.00
C754   C     0.08740   0.12060   0.80370   0.00000  Uiso   1.00
C755   C     0.38357   0.16695   0.83378   0.00000  Uiso   1.00
C756   C     0.11643   0.16639   0.83288   0.00000  Uiso   1.00
C757   C     0.40032   0.12133   0.80432   0.00000  Uiso   1.00
C758   C     0.09968   0.21200   0.86235   0.00000  Uiso   1.00
C759   C     0.44682   0.12074   0.80466   0.00000  Uiso   1.00
C760   C     0.05318   0.21259   0.86201   0.00000  Uiso   1.00
C761   C     0.47661   0.16700   0.83353   0.00000  Uiso   1.00
C762   C     0.02339   0.16634   0.83313   0.00000  Uiso   1.00
C763   C     0.45950   0.21384   0.86259   0.00000  Uiso   1.00
C764   C     0.04050   0.11949   0.80407   0.00000  Uiso   1.00
C765   C     0.46373   0.07440   0.77676   0.00000  Uiso   1.00
C766   C     0.03627   0.25893   0.88990   0.00000  Uiso   1.00
Cu767  Cu    0.25501   0.17246   0.89479   0.00000  Uiso   1.00
Cu768  Cu    0.24500   0.16087   0.77187   0.00000  Uiso   1.00
H769   H     0.39799   0.24731   0.88496   0.00000  Uiso   1.00
H770   H     0.10201   0.08602   0.78171   0.00000  Uiso   1.00
H771   H     0.37706   0.08615   0.78202   0.00000  Uiso   1.00
H772   H     0.12294   0.24718   0.88465   0.00000  Uiso   1.00
H773   H     0.44043   0.03905   0.75538   0.00000  Uiso   1.00
H774   H     0.05957   0.29428   0.91129   0.00000  Uiso   1.00
H775   H     0.24423   0.31968   0.76322   0.00000  Uiso   1.00
H776   H     0.25577   0.01366   0.90345   0.00000  Uiso   1.00
N777   N     0.23745   0.15214   0.67951   0.00000  Uiso   1.00
N778   N     0.26256   0.18119   0.98716   0.00000  Uiso   1.00
O779   O     0.25326   0.09538   0.87326   0.00000  Uiso   1.00
O780   O     0.24675   0.23796   0.79341   0.00000  Uiso   1.00
O781   O     0.24480   0.08559   0.76945   0.00000  Uiso   1.00
O782   O     0.25520   0.24774   0.89721   0.00000  Uiso   1.00
O783   O     0.18936   0.17155   0.88524   0.00000  Uiso   1.00
O784   O     0.31065   0.16179   0.78143   0.00000  Uiso   1.00
O785   O     0.18090   0.16176   0.78143   0.00000  Uiso   1.00
O786   O     0.31910   0.17157   0.88523   0.00000  Uiso   1.00
C787   C     0.02691   0.02155   0.74739   0.00000  Uiso   1.00
H788   H     0.49859   0.32255   0.72917   0.00000  Uiso   1.00
H789   H     0.04564   0.02707   0.70938   0.00000  Uiso   1.00
H790   H     0.04951   0.00855   0.78144   0.00000  Uiso   1.00
C791   C     0.47309   0.31178   0.91928   0.00000  Uiso   1.00
H792   H     0.00142   0.01078   0.93750   0.00000  Uiso   1.00
H793   H     0.45049   0.32478   0.88522   0.00000  Uiso   1.00
H794   H     0.45436   0.30627   0.95729   0.00000  Uiso   1.00
N795   N     0.21030   0.10805   0.97628   0.00000  Uiso   1.00
H796   H     0.20182   0.10946   0.93293   0.00000  Uiso   1.00
C797   C     0.16928   0.09151   0.99881   0.00000  Uiso   1.00
H798   H     0.14941   0.05776   0.96439   0.00000  Uiso   1.00
H799   H     0.14796   0.12442   0.67332   0.00000  Uiso   1.00
H800   H     0.17637   0.07672   0.70653   0.00000  Uiso   1.00
N801   N     0.28970   0.22528   0.69039   0.00000  Uiso   1.00
H802   H     0.29818   0.22388   0.73374   0.00000  Uiso   1.00
C803   C     0.33072   0.24183   0.66785   0.00000  Uiso   1.00
H804   H     0.35059   0.27557   0.70227   0.00000  Uiso   1.00
H805   H     0.32363   0.25661   0.96013   0.00000  Uiso   1.00
H806   H     0.35204   0.20892   0.99335   0.00000  Uiso   1.00
C807   C     0.74853   0.06671   0.81773   0.00000  Uiso   1.00
C808   C     0.75147   0.26662   0.84893   0.00000  Uiso   1.00
C809   C     0.51033   0.07300   0.77647   0.00000  Uiso   1.00
C810   C     0.98967   0.26034   0.89020   0.00000  Uiso   1.00
C811   C     0.74796   0.01051   0.80931   0.00000  Uiso   1.00
C812   C     0.75204   0.32283   0.85735   0.00000  Uiso   1.00
C813   C     0.66468   0.16638   0.83314   0.00000  Uiso   1.00
C814   C     0.83532   0.16695   0.83353   0.00000  Uiso   1.00
C815   C     0.91260   0.21273   0.86296   0.00000  Uiso   1.00
C816   C     0.58740   0.12060   0.80370   0.00000  Uiso   1.00
C817   C     0.88357   0.16695   0.83378   0.00000  Uiso   1.00
C818   C     0.61643   0.16639   0.83288   0.00000  Uiso   1.00
C819   C     0.90032   0.12133   0.80432   0.00000  Uiso   1.00
C820   C     0.59968   0.21200   0.86235   0.00000  Uiso   1.00
C821   C     0.94682   0.12074   0.80466   0.00000  Uiso   1.00
C822   C     0.55318   0.21259   0.86201   0.00000  Uiso   1.00
C823   C     0.97661   0.16700   0.83353   0.00000  Uiso   1.00
C824   C     0.52339   0.16634   0.83313   0.00000  Uiso   1.00
C825   C     0.95950   0.21384   0.86259   0.00000  Uiso   1.00
C826   C     0.54050   0.11949   0.80407   0.00000  Uiso   1.00
C827   C     0.96373   0.07440   0.77676   0.00000  Uiso   1.00
C828   C     0.53627   0.25893   0.88990   0.00000  Uiso   1.00
Cu829  Cu    0.75501   0.17246   0.89479   0.00000  Uiso   1.00
Cu830  Cu    0.74500   0.16087   0.77187   0.00000  Uiso   1.00
H831   H     0.89799   0.24731   0.88496   0.00000  Uiso   1.00
H832   H     0.60201   0.08602   0.78171   0.00000  Uiso   1.00
H833   H     0.87706   0.08615   0.78202   0.00000  Uiso   1.00
H834   H     0.62294   0.24718   0.88465   0.00000  Uiso   1.00
H835   H     0.94043   0.03905   0.75538   0.00000  Uiso   1.00
H836   H     0.55957   0.29428   0.91129   0.00000  Uiso   1.00
H837   H     0.74423   0.31968   0.76322   0.00000  Uiso   1.00
H838   H     0.75577   0.01366   0.90345   0.00000  Uiso   1.00
N839   N     0.73745   0.15214   0.67951   0.00000  Uiso   1.00
N840   N     0.76256   0.18119   0.98716   0.00000  Uiso   1.00
O841   O     0.75326   0.09538   0.87326   0.00000  Uiso   1.00
O842   O     0.74675   0.23796   0.79341   0.00000  Uiso   1.00
O843   O     0.74480   0.08559   0.76945   0.00000  Uiso   1.00
O844   O     0.75520   0.24774   0.89721   0.00000  Uiso   1.00
O845   O     0.68936   0.17155   0.88524   0.00000  Uiso   1.00
O846   O     0.81065   0.16179   0.78143   0.00000  Uiso   1.00
O847   O     0.68090   0.16176   0.78143   0.00000  Uiso   1.00
O848   O     0.81910   0.17157   0.88523   0.00000  Uiso   1.00
C849   C     0.52691   0.02155   0.74739   0.00000  Uiso   1.00
H850   H     0.99859   0.32255   0.72917   0.00000  Uiso   1.00
H851   H     0.54564   0.02707   0.70938   0.00000  Uiso   1.00
H852   H     0.54951   0.00855   0.78144   0.00000  Uiso   1.00
C853   C     0.97309   0.31178   0.91928   0.00000  Uiso   1.00
H854   H     0.50142   0.01078   0.93750   0.00000  Uiso   1.00
H855   H     0.95049   0.32478   0.88522   0.00000  Uiso   1.00
H856   H     0.95436   0.30627   0.95729   0.00000  Uiso   1.00
N857   N     0.71030   0.10805   0.97628   0.00000  Uiso   1.00
H858   H     0.70182   0.10946   0.93293   0.00000  Uiso   1.00
C859   C     0.66928   0.09151   0.99881   0.00000  Uiso   1.00
H860   H     0.64941   0.05776   0.96439   0.00000  Uiso   1.00
H861   H     0.64796   0.12442   0.67332   0.00000  Uiso   1.00
H862   H     0.67637   0.07672   0.70653   0.00000  Uiso   1.00
N863   N     0.78970   0.22528   0.69039   0.00000  Uiso   1.00
H864   H     0.79818   0.22388   0.73374   0.00000  Uiso   1.00
C865   C     0.83072   0.24183   0.66785   0.00000  Uiso   1.00
H866   H     0.85059   0.27557   0.70227   0.00000  Uiso   1.00
H867   H     0.82363   0.25661   0.96013   0.00000  Uiso   1.00
H868   H     0.85204   0.20892   0.99335   0.00000  Uiso   1.00
C869   C     0.24853   0.40004   0.81773   0.00000  Uiso   1.00
C870   C     0.25147   0.59996   0.84893   0.00000  Uiso   1.00
C871   C     0.01033   0.40633   0.77647   0.00000  Uiso   1.00
C872   C     0.48967   0.59367   0.89020   0.00000  Uiso   1.00
C873   C     0.24796   0.34384   0.80931   0.00000  Uiso   1.00
C874   C     0.25204   0.65616   0.85735   0.00000  Uiso   1.00
C875   C     0.16468   0.49971   0.83314   0.00000  Uiso   1.00
C876   C     0.33532   0.50029   0.83353   0.00000  Uiso   1.00
C877   C     0.41260   0.54606   0.86296   0.00000  Uiso   1.00
C878   C     0.08740   0.45394   0.80370   0.00000  Uiso   1.00
C879   C     0.38357   0.50028   0.83378   0.00000  Uiso   1.00
C880   C     0.11643   0.49972   0.83288   0.00000  Uiso   1.00
C881   C     0.40032   0.45467   0.80432   0.00000  Uiso   1.00
C882   C     0.09968   0.54533   0.86235   0.00000  Uiso   1.00
C883   C     0.44682   0.45407   0.80466   0.00000  Uiso   1.00
C884   C     0.05318   0.54593   0.86201   0.00000  Uiso   1.00
C885   C     0.47661   0.50033   0.83353   0.00000  Uiso   1.00
C886   C     0.02339   0.49967   0.83313   0.00000  Uiso   1.00
C887   C     0.45950   0.54718   0.86259   0.00000  Uiso   1.00
C888   C     0.04050   0.45282   0.80407   0.00000  Uiso   1.00
C889   C     0.46373   0.40773   0.77676   0.00000  Uiso   1.00
C890   C     0.03627   0.59227   0.88990   0.00000  Uiso   1.00
Cu891  Cu    0.25501   0.50579   0.89479   0.00000  Uiso   1.00
Cu892  Cu    0.24500   0.49421   0.77187   0.00000  Uiso   1.00
H893   H     0.39799   0.58065   0.88496   0.00000  Uiso   1.00
H894   H     0.10201   0.41935   0.78171   0.00000  Uiso   1.00
H895   H     0.37706   0.41948   0.78202   0.00000  Uiso   1.00
H896   H     0.12294   0.58052   0.88465   0.00000  Uiso   1.00
H897   H     0.44043   0.37238   0.75538   0.00000  Uiso   1.00
H898   H     0.05957   0.62762   0.91129   0.00000  Uiso   1.00
H899   H     0.24423   0.65301   0.76322   0.00000  Uiso   1.00
H900   H     0.25577   0.34699   0.90345   0.00000  Uiso   1.00
N901   N     0.23745   0.48547   0.67951   0.00000  Uiso   1.00
N902   N     0.26256   0.51453   0.98716   0.00000  Uiso   1.00
O903   O     0.25326   0.42871   0.87326   0.00000  Uiso   1.00
O904   O     0.24675   0.57129   0.79341   0.00000  Uiso   1.00
O905   O     0.24480   0.41892   0.76945   0.00000  Uiso   1.00
O906   O     0.25520   0.58108   0.89721   0.00000  Uiso   1.00
O907   O     0.18936   0.50488   0.88524   0.00000  Uiso   1.00
O908   O     0.31065   0.49512   0.78143   0.00000  Uiso   1.00
O909   O     0.18090   0.49510   0.78143   0.00000  Uiso   1.00
O910   O     0.31910   0.50490   0.88523   0.00000  Uiso   1.00
C911   C     0.02691   0.35489   0.74739   0.00000  Uiso   1.00
H912   H     0.49859   0.65588   0.72917   0.00000  Uiso   1.00
H913   H     0.04564   0.36040   0.70938   0.00000  Uiso   1.00
H914   H     0.04951   0.34188   0.78144   0.00000  Uiso   1.00
C915   C     0.47309   0.64511   0.91928   0.00000  Uiso   1.00
H916   H     0.00142   0.34412   0.93750   0.00000  Uiso   1.00
H917   H     0.45049   0.65812   0.88522   0.00000  Uiso   1.00
H918   H     0.45436   0.63960   0.95729   0.00000  Uiso   1.00
N919   N     0.21030   0.44139   0.97628   0.00000  Uiso   1.00
H920   H     0.20182   0.44279   0.93293   0.00000  Uiso   1.00
C921   C     0.16928   0.42484   0.99881   0.00000  Uiso   1.00
H922   H     0.14941   0.39110   0.96439   0.00000  Uiso   1.00
H923   H     0.14796   0.45775   0.67332   0.00000  Uiso   1.00
H924   H     0.17637   0.41006   0.70653   0.00000  Uiso   1.00
N925   N     0.28970   0.55861   0.69039   0.00000  Uiso   1.00
H926   H     0.29818   0.55721   0.73374   0.00000  Uiso   1.00
C927   C     0.33072   0.57516   0.66785   0.00000  Uiso   1.00
H928   H     0.35059   0.60890   0.70227   0.00000  Uiso   1.00
H929   H     0.32363   0.58994   0.96013   0.00000  Uiso   1.00
H930   H     0.35204   0.54225   0.99335   0.00000  Uiso   1.00
C931   C     0.74853   0.40004   0.81773   0.00000  Uiso   1.00
C932   C     0.75147   0.59996   0.84893   0.00000  Uiso   1.00
C933   C     0.51033   0.40633   0.77647   0.00000  Uiso   1.00
C934   C     0.98967   0.59367   0.89020   0.00000  Uiso   1.00
C935   C     0.74796   0.34384   0.80931   0.00000  Uiso   1.00
C936   C     0.75204   0.65616   0.85735   0.00000  Uiso   1.00
C937   C     0.66468   0.49971   0.83314   0.00000  Uiso   1.00
C938   C     0.83532   0.50029   0.83353   0.00000  Uiso   1.00
C939   C     0.91260   0.54606   0.86296   0.00000  Uiso   1.00
C940   C     0.58740   0.45394   0.80370   0.00000  Uiso   1.00
C941   C     0.88357   0.50028   0.83378   0.00000  Uiso   1.00
C942   C     0.61643   0.49972   0.83288   0.00000  Uiso   1.00
C943   C     0.90032   0.45467   0.80432   0.00000  Uiso   1.00
C944   C     0.59968   0.54533   0.86235   0.00000  Uiso   1.00
C945   C     0.94682   0.45407   0.80466   0.00000  Uiso   1.00
C946   C     0.55318   0.54593   0.86201   0.00000  Uiso   1.00
C947   C     0.97661   0.50033   0.83353   0.00000  Uiso   1.00
C948   C     0.52339   0.49967   0.83313   0.00000  Uiso   1.00
C949   C     0.95950   0.54718   0.86259   0.00000  Uiso   1.00
C950   C     0.54050   0.45282   0.80407   0.00000  Uiso   1.00
C951   C     0.96373   0.40773   0.77676   0.00000  Uiso   1.00
C952   C     0.53627   0.59227   0.88990   0.00000  Uiso   1.00
Cu953  Cu    0.75501   0.50579   0.89479   0.00000  Uiso   1.00
Cu954  Cu    0.74500   0.49421   0.77187   0.00000  Uiso   1.00
H955   H     0.89799   0.58065   0.88496   0.00000  Uiso   1.00
H956   H     0.60201   0.41935   0.78171   0.00000  Uiso   1.00
H957   H     0.87706   0.41948   0.78202   0.00000  Uiso   1.00
H958   H     0.62294   0.58052   0.88465   0.00000  Uiso   1.00
H959   H     0.94043   0.37238   0.75538   0.00000  Uiso   1.00
H960   H     0.55957   0.62762   0.91129   0.00000  Uiso   1.00
H961   H     0.74423   0.65301   0.76322   0.00000  Uiso   1.00
H962   H     0.75577   0.34699   0.90345   0.00000  Uiso   1.00
N963   N     0.73745   0.48547   0.67951   0.00000  Uiso   1.00
N964   N     0.76256   0.51453   0.98716   0.00000  Uiso   1.00
O965   O     0.75326   0.42871   0.87326   0.00000  Uiso   1.00
O966   O     0.74675   0.57129   0.79341   0.00000  Uiso   1.00
O967   O     0.74480   0.41892   0.76945   0.00000  Uiso   1.00
O968   O     0.75520   0.58108   0.89721   0.00000  Uiso   1.00
O969   O     0.68936   0.50488   0.88524   0.00000  Uiso   1.00
O970   O     0.81065   0.49512   0.78143   0.00000  Uiso   1.00
O971   O     0.68090   0.49510   0.78143   0.00000  Uiso   1.00
O972   O     0.81910   0.50490   0.88523   0.00000  Uiso   1.00
C973   C     0.52691   0.35489   0.74739   0.00000  Uiso   1.00
H974   H     0.99859   0.65588   0.72917   0.00000  Uiso   1.00
H975   H     0.54564   0.36040   0.70938   0.00000  Uiso   1.00
H976   H     0.54951   0.34188   0.78144   0.00000  Uiso   1.00
C977   C     0.97309   0.64511   0.91928   0.00000  Uiso   1.00
H978   H     0.50142   0.34412   0.93750   0.00000  Uiso   1.00
H979   H     0.95049   0.65812   0.88522   0.00000  Uiso   1.00
H980   H     0.95436   0.63960   0.95729   0.00000  Uiso   1.00
N981   N     0.71030   0.44139   0.97628   0.00000  Uiso   1.00
H982   H     0.70182   0.44279   0.93293   0.00000  Uiso   1.00
C983   C     0.66928   0.42484   0.99881   0.00000  Uiso   1.00
H984   H     0.64941   0.39110   0.96439   0.00000  Uiso   1.00
H985   H     0.64796   0.45775   0.67332   0.00000  Uiso   1.00
H986   H     0.67637   0.41006   0.70653   0.00000  Uiso   1.00
N987   N     0.78970   0.55861   0.69039   0.00000  Uiso   1.00
H988   H     0.79818   0.55721   0.73374   0.00000  Uiso   1.00
C989   C     0.83072   0.57516   0.66785   0.00000  Uiso   1.00
H990   H     0.85059   0.60890   0.70227   0.00000  Uiso   1.00
H991   H     0.82363   0.58994   0.96013   0.00000  Uiso   1.00
H992   H     0.85204   0.54225   0.99335   0.00000  Uiso   1.00
C993   C     0.24853   0.73338   0.81773   0.00000  Uiso   1.00
C994   C     0.25147   0.93329   0.84893   0.00000  Uiso   1.00
C995   C     0.01033   0.73966   0.77647   0.00000  Uiso   1.00
C996   C     0.48967   0.92700   0.89020   0.00000  Uiso   1.00
C997   C     0.24796   0.67717   0.80931   0.00000  Uiso   1.00
C998   C     0.25204   0.98949   0.85735   0.00000  Uiso   1.00
C999   C     0.16468   0.83305   0.83314   0.00000  Uiso   1.00
C1000  C     0.33532   0.83362   0.83353   0.00000  Uiso   1.00
C1001  C     0.41260   0.87940   0.86296   0.00000  Uiso   1.00
C1002  C     0.08740   0.78727   0.80370   0.00000  Uiso   1.00
C1003  C     0.38357   0.83361   0.83378   0.00000  Uiso   1.00
C1004  C     0.11643   0.83305   0.83288   0.00000  Uiso   1.00
C1005  C     0.40032   0.78800   0.80432   0.00000  Uiso   1.00
C1006  C     0.09968   0.87867   0.86235   0.00000  Uiso   1.00
C1007  C     0.44682   0.78741   0.80466   0.00000  Uiso   1.00
C1008  C     0.05318   0.87926   0.86201   0.00000  Uiso   1.00
C1009  C     0.47661   0.83366   0.83353   0.00000  Uiso   1.00
C1010  C     0.02339   0.83300   0.83313   0.00000  Uiso   1.00
C1011  C     0.45950   0.88051   0.86259   0.00000  Uiso   1.00
C1012  C     0.04050   0.78616   0.80407   0.00000  Uiso   1.00
C1013  C     0.46373   0.74107   0.77676   0.00000  Uiso   1.00
C1014  C     0.03627   0.92560   0.88990   0.00000  Uiso   1.00
Cu1015 Cu    0.25501   0.83913   0.89479   0.00000  Uiso   1.00
Cu1016 Cu    0.24500   0.82754   0.77187   0.00000  Uiso   1.00
H1017  H     0.39799   0.91398   0.88496   0.00000  Uiso   1.00
H1018  H     0.10201   0.75269   0.78171   0.00000  Uiso   1.00
H1019  H     0.37706   0.75282   0.78202   0.00000  Uiso   1.00
H1020  H     0.12294   0.91385   0.88465   0.00000  Uiso   1.00
H1021  H     0.44043   0.70572   0.75538   0.00000  Uiso   1.00
H1022  H     0.05957   0.96095   0.91129   0.00000  Uiso   1.00
H1023  H     0.24423   0.98634   0.76322   0.00000  Uiso   1.00
H1024  H     0.25577   0.68032   0.90345   0.00000  Uiso   1.00
N1025  N     0.23745   0.81881   0.67951   0.00000  Uiso   1.00
N1026  N     0.26256   0.84786   0.98716   0.00000  Uiso   1.00
O1027  O     0.25326   0.76204   0.87326   0.00000  Uiso   1.00
O1028  O     0.24675   0.90462   0.79341   0.00000  Uiso   1.00
O1029  O     0.24480   0.75226   0.76945   0.00000  Uiso   1.00
O1030  O     0.25520   0.91441   0.89721   0.00000  Uiso   1.00
O1031  O     0.18936   0.83821   0.88524   0.00000  Uiso   1.00
O1032  O     0.31065   0.82845   0.78143   0.00000  Uiso   1.00
O1033  O     0.18090   0.82843   0.78143   0.00000  Uiso   1.00
O1034  O     0.31910   0.83824   0.88523   0.00000  Uiso   1.00
C1035  C     0.02691   0.68822   0.74739   0.00000  Uiso   1.00
H1036  H     0.49859   0.98922   0.72917   0.00000  Uiso   1.00
H1037  H     0.04564   0.69373   0.70938   0.00000  Uiso   1.00
H1038  H     0.04951   0.67522   0.78144   0.00000  Uiso   1.00
C1039  C     0.47309   0.97845   0.91928   0.00000  Uiso   1.00
H1040  H     0.00142   0.67745   0.93750   0.00000  Uiso   1.00
H1041  H     0.45049   0.99145   0.88522   0.00000  Uiso   1.00
H1042  H     0.45436   0.97293   0.95729   0.00000  Uiso   1.00
N1043  N     0.21030   0.77472   0.97628   0.00000  Uiso   1.00
H1044  H     0.20182   0.77612   0.93293   0.00000  Uiso   1.00
C1045  C     0.16928   0.75817   0.99881   0.00000  Uiso   1.00
H1046  H     0.14941   0.72443   0.96439   0.00000  Uiso   1.00
H1047  H     0.14796   0.79108   0.67332   0.00000  Uiso   1.00
H1048  H     0.17637   0.74339   0.70653   0.00000  Uiso   1.00
N1049  N     0.28970   0.89195   0.69039   0.00000  Uiso   1.00
H1050  H     0.29818   0.89054   0.73374   0.00000  Uiso   1.00
C1051  C     0.33072   0.90849   0.66785   0.00000  Uiso   1.00
H1052  H     0.35059   0.94224   0.70227   0.00000  Uiso   1.00
H1053  H     0.32363   0.92328   0.96013   0.00000  Uiso   1.00
H1054  H     0.35204   0.87558   0.99335   0.00000  Uiso   1.00
C1055  C     0.74853   0.73338   0.81773   0.00000  Uiso   1.00
C1056  C     0.75147   0.93329   0.84893   0.00000  Uiso   1.00
C1057  C     0.51033   0.73966   0.77647   0.00000  Uiso   1.00
C1058  C     0.98967   0.92700   0.89020   0.00000  Uiso   1.00
C1059  C     0.74796   0.67717   0.80931   0.00000  Uiso   1.00
C1060  C     0.75204   0.98949   0.85735   0.00000  Uiso   1.00
C1061  C     0.66468   0.83305   0.83314   0.00000  Uiso   1.00
C1062  C     0.83532   0.83362   0.83353   0.00000  Uiso   1.00
C1063  C     0.91260   0.87940   0.86296   0.00000  Uiso   1.00
C1064  C     0.58740   0.78727   0.80370   0.00000  Uiso   1.00
C1065  C     0.88357   0.83361   0.83378   0.00000  Uiso   1.00
C1066  C     0.61643   0.83305   0.83288   0.00000  Uiso   1.00
C1067  C     0.90032   0.78800   0.80432   0.00000  Uiso   1.00
C1068  C     0.59968   0.87867   0.86235   0.00000  Uiso   1.00
C1069  C     0.94682   0.78741   0.80466   0.00000  Uiso   1.00
C1070  C     0.55318   0.87926   0.86201   0.00000  Uiso   1.00
C1071  C     0.97661   0.83366   0.83353   0.00000  Uiso   1.00
C1072  C     0.52339   0.83300   0.83313   0.00000  Uiso   1.00
C1073  C     0.95950   0.88051   0.86259   0.00000  Uiso   1.00
C1074  C     0.54050   0.78616   0.80407   0.00000  Uiso   1.00
C1075  C     0.96373   0.74107   0.77676   0.00000  Uiso   1.00
C1076  C     0.53627   0.92560   0.88990   0.00000  Uiso   1.00
Cu1077 Cu    0.75501   0.83913   0.89479   0.00000  Uiso   1.00
Cu1078 Cu    0.74500   0.82754   0.77187   0.00000  Uiso   1.00
H1079  H     0.89799   0.91398   0.88496   0.00000  Uiso   1.00
H1080  H     0.60201   0.75269   0.78171   0.00000  Uiso   1.00
H1081  H     0.87706   0.75282   0.78202   0.00000  Uiso   1.00
H1082  H     0.62294   0.91385   0.88465   0.00000  Uiso   1.00
H1083  H     0.94043   0.70572   0.75538   0.00000  Uiso   1.00
H1084  H     0.55957   0.96095   0.91129   0.00000  Uiso   1.00
H1085  H     0.74423   0.98634   0.76322   0.00000  Uiso   1.00
H1086  H     0.75577   0.68032   0.90345   0.00000  Uiso   1.00
N1087  N     0.73745   0.81881   0.67951   0.00000  Uiso   1.00
N1088  N     0.76256   0.84786   0.98716   0.00000  Uiso   1.00
O1089  O     0.75326   0.76204   0.87326   0.00000  Uiso   1.00
O1090  O     0.74675   0.90462   0.79341   0.00000  Uiso   1.00
O1091  O     0.74480   0.75226   0.76945   0.00000  Uiso   1.00
O1092  O     0.75520   0.91441   0.89721   0.00000  Uiso   1.00
O1093  O     0.68936   0.83821   0.88524   0.00000  Uiso   1.00
O1094  O     0.81065   0.82845   0.78143   0.00000  Uiso   1.00
O1095  O     0.68090   0.82843   0.78143   0.00000  Uiso   1.00
O1096  O     0.81910   0.83824   0.88523   0.00000  Uiso   1.00
C1097  C     0.52691   0.68822   0.74739   0.00000  Uiso   1.00
H1098  H     0.99859   0.98922   0.72917   0.00000  Uiso   1.00
H1099  H     0.54564   0.69373   0.70938   0.00000  Uiso   1.00
H1100  H     0.54951   0.67522   0.78144   0.00000  Uiso   1.00
C1101  C     0.97309   0.97845   0.91928   0.00000  Uiso   1.00
H1102  H     0.50142   0.67745   0.93750   0.00000  Uiso   1.00
H1103  H     0.95049   0.99145   0.88522   0.00000  Uiso   1.00
H1104  H     0.95436   0.97293   0.95729   0.00000  Uiso   1.00
N1105  N     0.71030   0.77472   0.97628   0.00000  Uiso   1.00
H1106  H     0.70182   0.77612   0.93293   0.00000  Uiso   1.00
C1107  C     0.66928   0.75817   0.99881   0.00000  Uiso   1.00
H1108  H     0.64941   0.72443   0.96439   0.00000  Uiso   1.00
H1109  H     0.64796   0.79108   0.67332   0.00000  Uiso   1.00
H1110  H     0.67637   0.74339   0.70653   0.00000  Uiso   1.00
N1111  N     0.78970   0.89195   0.69039   0.00000  Uiso   1.00
H1112  H     0.79818   0.89054   0.73374   0.00000  Uiso   1.00
C1113  C     0.83072   0.90849   0.66785   0.00000  Uiso   1.00
H1114  H     0.85059   0.94224   0.70227   0.00000  Uiso   1.00
H1115  H     0.82363   0.92328   0.96013   0.00000  Uiso   1.00
H1116  H     0.85204   0.87558   0.99335   0.00000  Uiso   1.00
loop_
_geom_bond_atom_site_label_1
_geom_bond_atom_site_label_2
_geom_bond_distance
_geom_bond_site_symmetry_2
_ccdc_geom_bond_type
C1     C5      1.431   .     S
C1     O37     1.305   .     A
C1     O35     1.306   .     A
C2     O38     1.305   .     A
C2     O36     1.306   .     A
C2     C6      1.431   .     S
C3     C20     1.417   .     A
C3     C43     1.510   .     S
C3     C83     1.400   1_455 S
C4     C19     1.417   .     A
C4     C47     1.510   .     S
C4     C84     1.400   .     S
C5     C254    1.333   1_545 S
C5     H279    1.087   1_545 S
C6     C129    1.333   .     S
C6     H156    1.087   .     S
C7     C12     1.444   .     S
C7     O39     1.308   .     A
C7     O41     1.309   .     A
C8     C11     1.444   .     S
C8     O42     1.309   .     A
C8     O40     1.308   .     A
C9     H25     1.083   .     S
C9     C11     1.394   .     A
C9     C19     1.403   .     A
C10    H26     1.083   .     S
C10    C12     1.394   .     A
C10    C20     1.403   .     A
C11    C13     1.393   .     A
C12    C14     1.393   .     A
C13    C15     1.393   .     A
C13    H27     1.085   .     S
C14    H28     1.085   .     S
C14    C16     1.393   .     A
C15    C21     1.399   .     A
C15    C17     1.413   .     A
C16    C18     1.413   .     A
C16    C22     1.399   .     A
C17    C19     1.421   .     A
C17    C80     1.403   .     S
C18    C20     1.421   .     A
C18    C79     1.403   1_455 S
C21    H29     1.085   .     S
C21    C65     1.400   .     S
C22    H30     1.085   .     S
C22    C66     1.400   1_455 S
Cu23   Cu24    2.740   .     S
Cu23   O38     1.949   .     S
Cu23   O35     1.951   .     S
Cu23   N34     2.059   .     S
Cu23   O42     1.956   .     S
Cu23   O39     1.952   .     S
Cu24   O37     1.949   .     S
Cu24   O41     1.956   .     S
Cu24   O36     1.951   .     S
Cu24   O40     1.952   .     S
Cu24   N33     2.059   .     S
H31    C129    1.087   .     S
H32    C254    1.087   1_545 S
N33    N778    1.290   1_554 S
N33    N795    1.387   1_554 S
N34    N405    1.290   .     S
N34    N429    1.387   .     S
C43    H46     1.111   .     S
C43    H45     1.110   .     S
C43    H354    1.111   1_445 S
H44    C229    1.111   .     S
C47    H49     1.111   .     S
C47    H50     1.110   .     S
C47    H234    1.111   .     S
H48    C357    1.111   1_445 S
N51    H52     1.007   .     S
N51    C53     1.445   .     S
N51    N405    1.387   .     S
C53    H54     1.112   .     S
C53    H427    1.111   .     S
C53    H428    1.101   .     S
H55    C797    1.111   1_554 S
H56    C797    1.101   1_554 S
N57    H58     1.007   .     S
N57    C59     1.445   .     S
N57    N778    1.387   1_554 S
C59    H60     1.112   .     S
C59    H805    1.101   1_554 S
C59    H806    1.111   1_554 S
H61    C431    1.101   .     S
H62    C431    1.111   .     S
C63    C67     1.431   .     S
C63    O99     1.305   .     A
C63    O97     1.306   .     A
C64    O100    1.305   .     A
C64    O98     1.306   .     A
C64    C68     1.431   .     S
C65    C82     1.417   .     A
C65    C105    1.510   .     S
C66    C81     1.417   .     A
C66    C109    1.510   .     S
C66    C22     1.400   1_655 S
C67    C316    1.333   1_545 S
C67    H341    1.087   1_545 S
C68    C191    1.333   .     S
C68    H218    1.087   .     S
C69    C74     1.444   .     S
C69    O101    1.308   .     A
C69    O103    1.309   .     A
C70    C73     1.444   .     S
C70    O104    1.309   .     A
C70    O102    1.308   .     A
C71    H87     1.083   .     S
C71    C73     1.394   .     A
C71    C81     1.403   .     A
C72    H88     1.083   .     S
C72    C74     1.394   .     A
C72    C82     1.403   .     A
C73    C75     1.393   .     A
C74    C76     1.393   .     A
C75    C77     1.393   .     A
C75    H89     1.085   .     S
C76    H90     1.085   .     S
C76    C78     1.393   .     A
C77    C83     1.399   .     A
C77    C79     1.413   .     A
C78    C80     1.413   .     A
C78    C84     1.399   .     A
C79    C81     1.421   .     A
C79    C18     1.403   1_655 S
C80    C82     1.421   .     A
C83    H91     1.085   .     S
C83    C3      1.400   1_655 S
C84    H92     1.085   .     S
Cu85   Cu86    2.740   .     S
Cu85   O100    1.949   .     S
Cu85   O97     1.951   .     S
Cu85   N96     2.059   .     S
Cu85   O104    1.956   .     S
Cu85   O101    1.952   .     S
Cu86   O99     1.949   .     S
Cu86   O103    1.956   .     S
Cu86   O98     1.951   .     S
Cu86   O102    1.952   .     S
Cu86   N95     2.059   .     S
H93    C191    1.087   .     S
H94    C316    1.087   1_545 S
N95    N840    1.290   1_554 S
N95    N857    1.387   1_554 S
N96    N467    1.290   .     S
N96    N491    1.387   .     S
C105   H108    1.111   .     S
C105   H107    1.110   .     S
C105   H292    1.111   1_545 S
H106   C167    1.111   1_655 S
C109   H111    1.111   .     S
C109   H112    1.110   .     S
C109   H172    1.111   1_655 S
H110   C295    1.111   1_545 S
N113   H114    1.007   .     S
N113   C115    1.445   .     S
N113   N467    1.387   .     S
C115   H116    1.112   .     S
C115   H489    1.111   .     S
C115   H490    1.101   .     S
H117   C859    1.111   1_554 S
H118   C859    1.101   1_554 S
N119   H120    1.007   .     S
N119   C121    1.445   .     S
N119   N840    1.387   1_554 S
C121   H122    1.112   .     S
C121   H867    1.101   1_554 S
C121   H868    1.111   1_554 S
H123   C493    1.101   .     S
H124   C493    1.111   .     S
C125   C129    1.431   .     S
C125   O161    1.305   .     A
C125   O159    1.306   .     A
C126   O162    1.305   .     A
C126   O160    1.306   .     A
C126   C130    1.431   .     S
C127   C144    1.417   .     A
C127   C167    1.510   .     S
C127   C207    1.400   1_455 S
C128   C143    1.417   .     A
C128   C171    1.510   .     S
C128   C208    1.400   .     S
C130   C253    1.333   .     S
C130   H280    1.087   .     S
C131   C136    1.444   .     S
C131   O163    1.308   .     A
C131   O165    1.309   .     A
C132   C135    1.444   .     S
C132   O166    1.309   .     A
C132   O164    1.308   .     A
C133   H149    1.083   .     S
C133   C135    1.394   .     A
C133   C143    1.403   .     A
C134   H150    1.083   .     S
C134   C136    1.394   .     A
C134   C144    1.403   .     A
C135   C137    1.393   .     A
C136   C138    1.393   .     A
C137   C139    1.393   .     A
C137   H151    1.085   .     S
C138   H152    1.085   .     S
C138   C140    1.393   .     A
C139   C145    1.399   .     A
C139   C141    1.413   .     A
C140   C142    1.413   .     A
C140   C146    1.399   .     A
C141   C143    1.421   .     A
C141   C204    1.403   .     S
C142   C144    1.421   .     A
C142   C203    1.403   1_455 S
C145   H153    1.085   .     S
C145   C189    1.400   .     S
C146   H154    1.085   .     S
C146   C190    1.400   1_455 S
Cu147  Cu148   2.740   .     S
Cu147  O162    1.949   .     S
Cu147  O159    1.951   .     S
Cu147  N158    2.059   .     S
Cu147  O166    1.956   .     S
Cu147  O163    1.952   .     S
Cu148  O161    1.949   .     S
Cu148  O165    1.956   .     S
Cu148  O160    1.951   .     S
Cu148  O164    1.952   .     S
Cu148  N157    2.059   .     S
H155   C253    1.087   .     S
N157   N902    1.290   1_554 S
N157   N919    1.387   1_554 S
N158   N529    1.290   .     S
N158   N553    1.387   .     S
C167   H170    1.111   .     S
C167   H169    1.110   .     S
C167   H106    1.111   1_455 S
H168   C353    1.111   .     S
C171   H173    1.111   .     S
C171   H174    1.110   .     S
C171   H358    1.111   .     S
H172   C109    1.111   1_455 S
N175   H176    1.007   .     S
N175   C177    1.445   .     S
N175   N529    1.387   .     S
C177   H178    1.112   .     S
C177   H551    1.111   .     S
C177   H552    1.101   .     S
H179   C921    1.111   1_554 S
H180   C921    1.101   1_554 S
N181   H182    1.007   .     S
N181   C183    1.445   .     S
N181   N902    1.387   1_554 S
C183   H184    1.112   .     S
C183   H929    1.101   1_554 S
C183   H930    1.111   1_554 S
H185   C555    1.101   .     S
H186   C555    1.111   .     S
C187   C191    1.431   .     S
C187   O223    1.305   .     A
C187   O221    1.306   .     A
C188   O224    1.305   .     A
C188   O222    1.306   .     A
C188   C192    1.431   .     S
C189   C206    1.417   .     A
C189   C229    1.510   .     S
C190   C205    1.417   .     A
C190   C233    1.510   .     S
C190   C146    1.400   1_655 S
C192   C315    1.333   .     S
C192   H342    1.087   .     S
C193   C198    1.444   .     S
C193   O225    1.308   .     A
C193   O227    1.309   .     A
C194   C197    1.444   .     S
C194   O228    1.309   .     A
C194   O226    1.308   .     A
C195   H211    1.083   .     S
C195   C197    1.394   .     A
C195   C205    1.403   .     A
C196   H212    1.083   .     S
C196   C198    1.394   .     A
C196   C206    1.403   .     A
C197   C199    1.393   .     A
C198   C200    1.393   .     A
C199   C201    1.393   .     A
C199   H213    1.085   .     S
C200   H214    1.085   .     S
C200   C202    1.393   .     A
C201   C207    1.399   .     A
C201   C203    1.413   .     A
C202   C204    1.413   .     A
C202   C208    1.399   .     A
C203   C205    1.421   .     A
C203   C142    1.403   1_655 S
C204   C206    1.421   .     A
C207   H215    1.085   .     S
C207   C127    1.400   1_655 S
C208   H216    1.085   .     S
Cu209  Cu210   2.740   .     S
Cu209  O224    1.949   .     S
Cu209  O221    1.951   .     S
Cu209  N220    2.059   .     S
Cu209  O228    1.956   .     S
Cu209  O225    1.952   .     S
Cu210  O223    1.949   .     S
Cu210  O227    1.956   .     S
Cu210  O222    1.951   .     S
Cu210  O226    1.952   .     S
Cu210  N219    2.059   .     S
H217   C315    1.087   .     S
N219   N964    1.290   1_554 S
N219   N981    1.387   1_554 S
N220   N591    1.290   .     S
N220   N615    1.387   .     S
C229   H232    1.111   .     S
C229   H231    1.110   .     S
H230   C291    1.111   1_655 S
C233   H235    1.111   .     S
C233   H236    1.110   .     S
C233   H296    1.111   1_655 S
N237   H238    1.007   .     S
N237   C239    1.445   .     S
N237   N591    1.387   .     S
C239   H240    1.112   .     S
C239   H613    1.111   .     S
C239   H614    1.101   .     S
H241   C983    1.111   1_554 S
H242   C983    1.101   1_554 S
N243   H244    1.007   .     S
N243   C245    1.445   .     S
N243   N964    1.387   1_554 S
C245   H246    1.112   .     S
C245   H991    1.101   1_554 S
C245   H992    1.111   1_554 S
H247   C617    1.101   .     S
H248   C617    1.111   .     S
C249   C253    1.431   .     S
C249   O285    1.305   .     A
C249   O283    1.306   .     A
C250   O286    1.305   .     A
C250   O284    1.306   .     A
C250   C254    1.431   .     S
C251   C268    1.417   .     A
C251   C291    1.510   .     S
C251   C331    1.400   1_455 S
C252   C267    1.417   .     A
C252   C295    1.510   .     S
C252   C332    1.400   .     S
C254   C5      1.333   1_565 S
C254   H32     1.087   1_565 S
C255   C260    1.444   .     S
C255   O287    1.308   .     A
C255   O289    1.309   .     A
C256   C259    1.444   .     S
C256   O290    1.309   .     A
C256   O288    1.308   .     A
C257   H273    1.083   .     S
C257   C259    1.394   .     A
C257   C267    1.403   .     A
C258   H274    1.083   .     S
C258   C260    1.394   .     A
C258   C268    1.403   .     A
C259   C261    1.393   .     A
C260   C262    1.393   .     A
C261   C263    1.393   .     A
C261   H275    1.085   .     S
C262   H276    1.085   .     S
C262   C264    1.393   .     A
C263   C269    1.399   .     A
C263   C265    1.413   .     A
C264   C266    1.413   .     A
C264   C270    1.399   .     A
C265   C267    1.421   .     A
C265   C328    1.403   .     S
C266   C268    1.421   .     A
C266   C327    1.403   1_455 S
C269   H277    1.085   .     S
C269   C313    1.400   .     S
C270   H278    1.085   .     S
C270   C314    1.400   1_455 S
Cu271  Cu272   2.740   .     S
Cu271  O286    1.949   .     S
Cu271  O283    1.951   .     S
Cu271  N282    2.059   .     S
Cu271  O290    1.956   .     S
Cu271  O287    1.952   .     S
Cu272  O285    1.949   .     S
Cu272  O289    1.956   .     S
Cu272  O284    1.951   .     S
Cu272  O288    1.952   .     S
Cu272  N281    2.059   .     S
H279   C5      1.087   1_565 S
N281   N1026   1.290   1_554 S
N281   N1043   1.387   1_554 S
N282   N653    1.290   .     S
N282   N677    1.387   .     S
C291   H294    1.111   .     S
C291   H293    1.110   .     S
C291   H230    1.111   1_455 S
H292   C105    1.111   1_565 S
C295   H297    1.111   .     S
C295   H298    1.110   .     S
C295   H110    1.111   1_565 S
H296   C233    1.111   1_455 S
N299   H300    1.007   .     S
N299   C301    1.445   .     S
N299   N653    1.387   .     S
C301   H302    1.112   .     S
C301   H675    1.111   .     S
C301   H676    1.101   .     S
H303   C1045   1.111   1_554 S
H304   C1045   1.101   1_554 S
N305   H306    1.007   .     S
N305   C307    1.445   .     S
N305   N1026   1.387   1_554 S
C307   H308    1.112   .     S
C307   H1053   1.101   1_554 S
C307   H1054   1.111   1_554 S
H309   C679    1.101   .     S
H310   C679    1.111   .     S
C311   C315    1.431   .     S
C311   O347    1.305   .     A
C311   O345    1.306   .     A
C312   O348    1.305   .     A
C312   O346    1.306   .     A
C312   C316    1.431   .     S
C313   C330    1.417   .     A
C313   C353    1.510   .     S
C314   C329    1.417   .     A
C314   C357    1.510   .     S
C314   C270    1.400   1_655 S
C316   C67     1.333   1_565 S
C316   H94     1.087   1_565 S
C317   C322    1.444   .     S
C317   O349    1.308   .     A
C317   O351    1.309   .     A
C318   C321    1.444   .     S
C318   O352    1.309   .     A
C318   O350    1.308   .     A
C319   H335    1.083   .     S
C319   C321    1.394   .     A
C319   C329    1.403   .     A
C320   H336    1.083   .     S
C320   C322    1.394   .     A
C320   C330    1.403   .     A
C321   C323    1.393   .     A
C322   C324    1.393   .     A
C323   C325    1.393   .     A
C323   H337    1.085   .     S
C324   H338    1.085   .     S
C324   C326    1.393   .     A
C325   C331    1.399   .     A
C325   C327    1.413   .     A
C326   C328    1.413   .     A
C326   C332    1.399   .     A
C327   C329    1.421   .     A
C327   C266    1.403   1_655 S
C328   C330    1.421   .     A
C331   H339    1.085   .     S
C331   C251    1.400   1_655 S
C332   H340    1.085   .     S
Cu333  Cu334   2.740   .     S
Cu333  O348    1.949   .     S
Cu333  O345    1.951   .     S
Cu333  N344    2.059   .     S
Cu333  O352    1.956   .     S
Cu333  O349    1.952   .     S
Cu334  O347    1.949   .     S
Cu334  O351    1.956   .     S
Cu334  O346    1.951   .     S
Cu334  O350    1.952   .     S
Cu334  N343    2.059   .     S
H341   C67     1.087   1_565 S
N343   N1088   1.290   1_554 S
N343   N1105   1.387   1_554 S
N344   N715    1.290   .     S
N344   N739    1.387   .     S
C353   H356    1.111   .     S
C353   H355    1.110   .     S
H354   C43     1.111   1_665 S
C357   H359    1.111   .     S
C357   H360    1.110   .     S
C357   H48     1.111   1_665 S
N361   H362    1.007   .     S
N361   C363    1.445   .     S
N361   N715    1.387   .     S
C363   H364    1.112   .     S
C363   H737    1.111   .     S
C363   H738    1.101   .     S
H365   C1107   1.111   1_554 S
H366   C1107   1.101   1_554 S
N367   H368    1.007   .     S
N367   C369    1.445   .     S
N367   N1088   1.387   1_554 S
C369   H370    1.112   .     S
C369   H1115   1.101   1_554 S
C369   H1116   1.111   1_554 S
H371   C741    1.101   .     S
H372   C741    1.111   .     S
C373   C377    1.431   .     S
C373   O409    1.305   .     A
C373   O407    1.306   .     A
C374   O410    1.305   .     A
C374   O408    1.306   .     A
C374   C378    1.431   .     S
C375   C392    1.417   .     A
C375   C415    1.510   .     S
C375   C455    1.400   1_455 S
C376   C391    1.417   .     A
C376   C419    1.510   .     S
C376   C456    1.400   .     S
C377   C626    1.333   1_545 S
C377   H651    1.087   1_545 S
C378   C501    1.333   .     S
C378   H528    1.087   .     S
C379   C384    1.444   .     S
C379   O411    1.308   .     A
C379   O413    1.309   .     A
C380   C383    1.444   .     S
C380   O414    1.309   .     A
C380   O412    1.308   .     A
C381   H397    1.083   .     S
C381   C383    1.394   .     A
C381   C391    1.403   .     A
C382   H398    1.083   .     S
C382   C384    1.394   .     A
C382   C392    1.403   .     A
C383   C385    1.393   .     A
C384   C386    1.393   .     A
C385   C387    1.393   .     A
C385   H399    1.085   .     S
C386   H400    1.085   .     S
C386   C388    1.393   .     A
C387   C393    1.399   .     A
C387   C389    1.413   .     A
C388   C390    1.413   .     A
C388   C394    1.399   .     A
C389   C391    1.421   .     A
C389   C452    1.403   .     S
C390   C392    1.421   .     A
C390   C451    1.403   1_455 S
C393   H401    1.085   .     S
C393   C437    1.400   .     S
C394   H402    1.085   .     S
C394   C438    1.400   1_455 S
Cu395  Cu396   2.740   .     S
Cu395  O410    1.949   .     S
Cu395  O407    1.951   .     S
Cu395  N406    2.059   .     S
Cu395  O414    1.956   .     S
Cu395  O411    1.952   .     S
Cu396  O409    1.949   .     S
Cu396  O413    1.956   .     S
Cu396  O408    1.951   .     S
Cu396  O412    1.952   .     S
Cu396  N405    2.059   .     S
H403   C501    1.087   .     S
H404   C626    1.087   1_545 S
N406   N777    1.290   .     S
N406   N801    1.387   .     S
C415   H418    1.111   .     S
C415   H417    1.110   .     S
C415   H726    1.111   1_445 S
H416   C601    1.111   .     S
C419   H421    1.111   .     S
C419   H422    1.110   .     S
C419   H606    1.111   .     S
H420   C729    1.111   1_445 S
N423   H424    1.007   .     S
N423   C425    1.445   .     S
N423   N777    1.387   .     S
C425   H426    1.112   .     S
C425   H799    1.111   .     S
C425   H800    1.101   .     S
N429   H430    1.007   .     S
N429   C431    1.445   .     S
C431   H432    1.112   .     S
H433   C803    1.101   .     S
H434   C803    1.111   .     S
C435   C439    1.431   .     S
C435   O471    1.305   .     A
C435   O469    1.306   .     A
C436   O472    1.305   .     A
C436   O470    1.306   .     A
C436   C440    1.431   .     S
C437   C454    1.417   .     A
C437   C477    1.510   .     S
C438   C453    1.417   .     A
C438   C481    1.510   .     S
C438   C394    1.400   1_655 S
C439   C688    1.333   1_545 S
C439   H713    1.087   1_545 S
C440   C563    1.333   .     S
C440   H590    1.087   .     S
C441   C446    1.444   .     S
C441   O473    1.308   .     A
C441   O475    1.309   .     A
C442   C445    1.444   .     S
C442   O476    1.309   .     A
C442   O474    1.308   .     A
C443   H459    1.083   .     S
C443   C445    1.394   .     A
C443   C453    1.403   .     A
C444   H460    1.083   .     S
C444   C446    1.394   .     A
C444   C454    1.403   .     A
C445   C447    1.393   .     A
C446   C448    1.393   .     A
C447   C449    1.393   .     A
C447   H461    1.085   .     S
C448   H462    1.085   .     S
C448   C450    1.393   .     A
C449   C455    1.399   .     A
C449   C451    1.413   .     A
C450   C452    1.413   .     A
C450   C456    1.399   .     A
C451   C453    1.421   .     A
C451   C390    1.403   1_655 S
C452   C454    1.421   .     A
C455   H463    1.085   .     S
C455   C375    1.400   1_655 S
C456   H464    1.085   .     S
Cu457  Cu458   2.740   .     S
Cu457  O472    1.949   .     S
Cu457  O469    1.951   .     S
Cu457  N468    2.059   .     S
Cu457  O476    1.956   .     S
Cu457  O473    1.952   .     S
Cu458  O471    1.949   .     S
Cu458  O475    1.956   .     S
Cu458  O470    1.951   .     S
Cu458  O474    1.952   .     S
Cu458  N467    2.059   .     S
H465   C563    1.087   .     S
H466   C688    1.087   1_545 S
N468   N839    1.290   .     S
N468   N863    1.387   .     S
C477   H480    1.111   .     S
C477   H479    1.110   .     S
C477   H664    1.111   1_545 S
H478   C539    1.111   1_655 S
C481   H483    1.111   .     S
C481   H484    1.110   .     S
C481   H544    1.111   1_655 S
H482   C667    1.111   1_545 S
N485   H486    1.007   .     S
N485   C487    1.445   .     S
N485   N839    1.387   .     S
C487   H488    1.112   .     S
C487   H861    1.111   .     S
C487   H862    1.101   .     S
N491   H492    1.007   .     S
N491   C493    1.445   .     S
C493   H494    1.112   .     S
H495   C865    1.101   .     S
H496   C865    1.111   .     S
C497   C501    1.431   .     S
C497   O533    1.305   .     A
C497   O531    1.306   .     A
C498   O534    1.305   .     A
C498   O532    1.306   .     A
C498   C502    1.431   .     S
C499   C516    1.417   .     A
C499   C539    1.510   .     S
C499   C579    1.400   1_455 S
C500   C515    1.417   .     A
C500   C543    1.510   .     S
C500   C580    1.400   .     S
C502   C625    1.333   .     S
C502   H652    1.087   .     S
C503   C508    1.444   .     S
C503   O535    1.308   .     A
C503   O537    1.309   .     A
C504   C507    1.444   .     S
C504   O538    1.309   .     A
C504   O536    1.308   .     A
C505   H521    1.083   .     S
C505   C507    1.394   .     A
C505   C515    1.403   .     A
C506   H522    1.083   .     S
C506   C508    1.394   .     A
C506   C516    1.403   .     A
C507   C509    1.393   .     A
C508   C510    1.393   .     A
C509   C511    1.393   .     A
C509   H523    1.085   .     S
C510   H524    1.085   .     S
C510   C512    1.393   .     A
C511   C517    1.399   .     A
C511   C513    1.413   .     A
C512   C514    1.413   .     A
C512   C518    1.399   .     A
C513   C515    1.421   .     A
C513   C576    1.403   .     S
C514   C516    1.421   .     A
C514   C575    1.403   1_455 S
C517   H525    1.085   .     S
C517   C561    1.400   .     S
C518   H526    1.085   .     S
C518   C562    1.400   1_455 S
Cu519  Cu520   2.740   .     S
Cu519  O534    1.949   .     S
Cu519  O531    1.951   .     S
Cu519  N530    2.059   .     S
Cu519  O538    1.956   .     S
Cu519  O535    1.952   .     S
Cu520  O533    1.949   .     S
Cu520  O537    1.956   .     S
Cu520  O532    1.951   .     S
Cu520  O536    1.952   .     S
Cu520  N529    2.059   .     S
H527   C625    1.087   .     S
N530   N901    1.290   .     S
N530   N925    1.387   .     S
C539   H542    1.111   .     S
C539   H541    1.110   .     S
C539   H478    1.111   1_455 S
H540   C725    1.111   .     S
C543   H545    1.111   .     S
C543   H546    1.110   .     S
C543   H730    1.111   .     S
H544   C481    1.111   1_455 S
N547   H548    1.007   .     S
N547   C549    1.445   .     S
N547   N901    1.387   .     S
C549   H550    1.112   .     S
C549   H923    1.111   .     S
C549   H924    1.101   .     S
N553   H554    1.007   .     S
N553   C555    1.445   .     S
C555   H556    1.112   .     S
H557   C927    1.101   .     S
H558   C927    1.111   .     S
C559   C563    1.431   .     S
C559   O595    1.305   .     A
C559   O593    1.306   .     A
C560   O596    1.305   .     A
C560   O594    1.306   .     A
C560   C564    1.431   .     S
C561   C578    1.417   .     A
C561   C601    1.510   .     S
C562   C577    1.417   .     A
C562   C605    1.510   .     S
C562   C518    1.400   1_655 S
C564   C687    1.333   .     S
C564   H714    1.087   .     S
C565   C570    1.444   .     S
C565   O597    1.308   .     A
C565   O599    1.309   .     A
C566   C569    1.444   .     S
C566   O600    1.309   .     A
C566   O598    1.308   .     A
C567   H583    1.083   .     S
C567   C569    1.394   .     A
C567   C577    1.403   .     A
C568   H584    1.083   .     S
C568   C570    1.394   .     A
C568   C578    1.403   .     A
C569   C571    1.393   .     A
C570   C572    1.393   .     A
C571   C573    1.393   .     A
C571   H585    1.085   .     S
C572   H586    1.085   .     S
C572   C574    1.393   .     A
C573   C579    1.399   .     A
C573   C575    1.413   .     A
C574   C576    1.413   .     A
C574   C580    1.399   .     A
C575   C577    1.421   .     A
C575   C514    1.403   1_655 S
C576   C578    1.421   .     A
C579   H587    1.085   .     S
C579   C499    1.400   1_655 S
C580   H588    1.085   .     S
Cu581  Cu582   2.740   .     S
Cu581  O596    1.949   .     S
Cu581  O593    1.951   .     S
Cu581  N592    2.059   .     S
Cu581  O600    1.956   .     S
Cu581  O597    1.952   .     S
Cu582  O595    1.949   .     S
Cu582  O599    1.956   .     S
Cu582  O594    1.951   .     S
Cu582  O598    1.952   .     S
Cu582  N591    2.059   .     S
H589   C687    1.087   .     S
N592   N963    1.290   .     S
N592   N987    1.387   .     S
C601   H604    1.111   .     S
C601   H603    1.110   .     S
H602   C663    1.111   1_655 S
C605   H607    1.111   .     S
C605   H608    1.110   .     S
C605   H668    1.111   1_655 S
N609   H610    1.007   .     S
N609   C611    1.445   .     S
N609   N963    1.387   .     S
C611   H612    1.112   .     S
C611   H985    1.111   .     S
C611   H986    1.101   .     S
N615   H616    1.007   .     S
N615   C617    1.445   .     S
C617   H618    1.112   .     S
H619   C989    1.101   .     S
H620   C989    1.111   .     S
C621   C625    1.431   .     S
C621   O657    1.305   .     A
C621   O655    1.306   .     A
C622   O658    1.305   .     A
C622   O656    1.306   .     A
C622   C626    1.431   .     S
C623   C640    1.417   .     A
C623   C663    1.510   .     S
C623   C703    1.400   1_455 S
C624   C639    1.417   .     A
C624   C667    1.510   .     S
C624   C704    1.400   .     S
C626   C377    1.333   1_565 S
C626   H404    1.087   1_565 S
C627   C632    1.444   .     S
C627   O659    1.308   .     A
C627   O661    1.309   .     A
C628   C631    1.444   .     S
C628   O662    1.309   .     A
C628   O660    1.308   .     A
C629   H645    1.083   .     S
C629   C631    1.394   .     A
C629   C639    1.403   .     A
C630   H646    1.083   .     S
C630   C632    1.394   .     A
C630   C640    1.403   .     A
C631   C633    1.393   .     A
C632   C634    1.393   .     A
C633   C635    1.393   .     A
C633   H647    1.085   .     S
C634   H648    1.085   .     S
C634   C636    1.393   .     A
C635   C641    1.399   .     A
C635   C637    1.413   .     A
C636   C638    1.413   .     A
C636   C642    1.399   .     A
C637   C639    1.421   .     A
C637   C700    1.403   .     S
C638   C640    1.421   .     A
C638   C699    1.403   1_455 S
C641   H649    1.085   .     S
C641   C685    1.400   .     S
C642   H650    1.085   .     S
C642   C686    1.400   1_455 S
Cu643  Cu644   2.740   .     S
Cu643  O658    1.949   .     S
Cu643  O655    1.951   .     S
Cu643  N654    2.059   .     S
Cu643  O662    1.956   .     S
Cu643  O659    1.952   .     S
Cu644  O657    1.949   .     S
Cu644  O661    1.956   .     S
Cu644  O656    1.951   .     S
Cu644  O660    1.952   .     S
Cu644  N653    2.059   .     S
H651   C377    1.087   1_565 S
N654   N1025   1.290   .     S
N654   N1049   1.387   .     S
C663   H666    1.111   .     S
C663   H665    1.110   .     S
C663   H602    1.111   1_455 S
H664   C477    1.111   1_565 S
C667   H669    1.111   .     S
C667   H670    1.110   .     S
C667   H482    1.111   1_565 S
H668   C605    1.111   1_455 S
N671   H672    1.007   .     S
N671   C673    1.445   .     S
N671   N1025   1.387   .     S
C673   H674    1.112   .     S
C673   H1047   1.111   .     S
C673   H1048   1.101   .     S
N677   H678    1.007   .     S
N677   C679    1.445   .     S
C679   H680    1.112   .     S
H681   C1051   1.101   .     S
H682   C1051   1.111   .     S
C683   C687    1.431   .     S
C683   O719    1.305   .     A
C683   O717    1.306   .     A
C684   O720    1.305   .     A
C684   O718    1.306   .     A
C684   C688    1.431   .     S
C685   C702    1.417   .     A
C685   C725    1.510   .     S
C686   C701    1.417   .     A
C686   C729    1.510   .     S
C686   C642    1.400   1_655 S
C688   C439    1.333   1_565 S
C688   H466    1.087   1_565 S
C689   C694    1.444   .     S
C689   O721    1.308   .     A
C689   O723    1.309   .     A
C690   C693    1.444   .     S
C690   O724    1.309   .     A
C690   O722    1.308   .     A
C691   H707    1.083   .     S
C691   C693    1.394   .     A
C691   C701    1.403   .     A
C692   H708    1.083   .     S
C692   C694    1.394   .     A
C692   C702    1.403   .     A
C693   C695    1.393   .     A
C694   C696    1.393   .     A
C695   C697    1.393   .     A
C695   H709    1.085   .     S
C696   H710    1.085   .     S
C696   C698    1.393   .     A
C697   C703    1.399   .     A
C697   C699    1.413   .     A
C698   C700    1.413   .     A
C698   C704    1.399   .     A
C699   C701    1.421   .     A
C699   C638    1.403   1_655 S
C700   C702    1.421   .     A
C703   H711    1.085   .     S
C703   C623    1.400   1_655 S
C704   H712    1.085   .     S
Cu705  Cu706   2.740   .     S
Cu705  O720    1.949   .     S
Cu705  O717    1.951   .     S
Cu705  N716    2.059   .     S
Cu705  O724    1.956   .     S
Cu705  O721    1.952   .     S
Cu706  O719    1.949   .     S
Cu706  O723    1.956   .     S
Cu706  O718    1.951   .     S
Cu706  O722    1.952   .     S
Cu706  N715    2.059   .     S
H713   C439    1.087   1_565 S
N716   N1087   1.290   .     S
N716   N1111   1.387   .     S
C725   H728    1.111   .     S
C725   H727    1.110   .     S
H726   C415    1.111   1_665 S
C729   H731    1.111   .     S
C729   H732    1.110   .     S
C729   H420    1.111   1_665 S
N733   H734    1.007   .     S
N733   C735    1.445   .     S
N733   N1087   1.387   .     S
C735   H736    1.112   .     S
C735   H1109   1.111   .     S
C735   H1110   1.101   .     S
N739   H740    1.007   .     S
N739   C741    1.445   .     S
C741   H742    1.112   .     S
H743   C1113   1.101   .     S
H744   C1113   1.111   .     S
C745   C749    1.431   .     S
C745   O781    1.305   .     A
C745   O779    1.306   .     A
C746   O782    1.305   .     A
C746   O780    1.306   .     A
C746   C750    1.431   .     S
C747   C764    1.417   .     A
C747   C787    1.510   .     S
C747   C827    1.400   1_455 S
C748   C763    1.417   .     A
C748   C791    1.510   .     S
C748   C828    1.400   .     S
C749   C998    1.333   1_545 S
C749   H1023   1.087   1_545 S
C750   C873    1.333   .     S
C750   H900    1.087   .     S
C751   C756    1.444   .     S
C751   O783    1.308   .     A
C751   O785    1.309   .     A
C752   C755    1.444   .     S
C752   O786    1.309   .     A
C752   O784    1.308   .     A
C753   H769    1.083   .     S
C753   C755    1.394   .     A
C753   C763    1.403   .     A
C754   H770    1.083   .     S
C754   C756    1.394   .     A
C754   C764    1.403   .     A
C755   C757    1.393   .     A
C756   C758    1.393   .     A
C757   C759    1.393   .     A
C757   H771    1.085   .     S
C758   H772    1.085   .     S
C758   C760    1.393   .     A
C759   C765    1.399   .     A
C759   C761    1.413   .     A
C760   C762    1.413   .     A
C760   C766    1.399   .     A
C761   C763    1.421   .     A
C761   C824    1.403   .     S
C762   C764    1.421   .     A
C762   C823    1.403   1_455 S
C765   H773    1.085   .     S
C765   C809    1.400   .     S
C766   H774    1.085   .     S
C766   C810    1.400   1_455 S
Cu767  Cu768   2.740   .     S
Cu767  O782    1.949   .     S
Cu767  O779    1.951   .     S
Cu767  N778    2.059   .     S
Cu767  O786    1.956   .     S
Cu767  O783    1.952   .     S
Cu768  O781    1.949   .     S
Cu768  O785    1.956   .     S
Cu768  O780    1.951   .     S
Cu768  O784    1.952   .     S
Cu768  N777    2.059   .     S
H775   C873    1.087   .     S
H776   C998    1.087   1_545 S
N778   N33     1.290   1_556 S
N778   N57     1.387   1_556 S
C787   H790    1.111   .     S
C787   H789    1.110   .     S
C787   H1098   1.111   1_445 S
H788   C973    1.111   .     S
C791   H793    1.111   .     S
C791   H794    1.110   .     S
C791   H978    1.111   .     S
H792   C1101   1.111   1_445 S
N795   H796    1.007   .     S
N795   C797    1.445   .     S
N795   N33     1.387   1_556 S
C797   H798    1.112   .     S
C797   H55     1.111   1_556 S
C797   H56     1.101   1_556 S
N801   H802    1.007   .     S
N801   C803    1.445   .     S
C803   H804    1.112   .     S
H805   C59     1.101   1_556 S
H806   C59     1.111   1_556 S
C807   C811    1.431   .     S
C807   O843    1.305   .     A
C807   O841    1.306   .     A
C808   O844    1.305   .     A
C808   O842    1.306   .     A
C808   C812    1.431   .     S
C809   C826    1.417   .     A
C809   C849    1.510   .     S
C810   C825    1.417   .     A
C810   C853    1.510   .     S
C810   C766    1.400   1_655 S
C811   C1060   1.333   1_545 S
C811   H1085   1.087   1_545 S
C812   C935    1.333   .     S
C812   H962    1.087   .     S
C813   C818    1.444   .     S
C813   O845    1.308   .     A
C813   O847    1.309   .     A
C814   C817    1.444   .     S
C814   O848    1.309   .     A
C814   O846    1.308   .     A
C815   H831    1.083   .     S
C815   C817    1.394   .     A
C815   C825    1.403   .     A
C816   H832    1.083   .     S
C816   C818    1.394   .     A
C816   C826    1.403   .     A
C817   C819    1.393   .     A
C818   C820    1.393   .     A
C819   C821    1.393   .     A
C819   H833    1.085   .     S
C820   H834    1.085   .     S
C820   C822    1.393   .     A
C821   C827    1.399   .     A
C821   C823    1.413   .     A
C822   C824    1.413   .     A
C822   C828    1.399   .     A
C823   C825    1.421   .     A
C823   C762    1.403   1_655 S
C824   C826    1.421   .     A
C827   H835    1.085   .     S
C827   C747    1.400   1_655 S
C828   H836    1.085   .     S
Cu829  Cu830   2.740   .     S
Cu829  O844    1.949   .     S
Cu829  O841    1.951   .     S
Cu829  N840    2.059   .     S
Cu829  O848    1.956   .     S
Cu829  O845    1.952   .     S
Cu830  O843    1.949   .     S
Cu830  O847    1.956   .     S
Cu830  O842    1.951   .     S
Cu830  O846    1.952   .     S
Cu830  N839    2.059   .     S
H837   C935    1.087   .     S
H838   C1060   1.087   1_545 S
N840   N95     1.290   1_556 S
N840   N119    1.387   1_556 S
C849   H852    1.111   .     S
C849   H851    1.110   .     S
C849   H1036   1.111   1_545 S
H850   C911    1.111   1_655 S
C853   H855    1.111   .     S
C853   H856    1.110   .     S
C853   H916    1.111   1_655 S
H854   C1039   1.111   1_545 S
N857   H858    1.007   .     S
N857   C859    1.445   .     S
N857   N95     1.387   1_556 S
C859   H860    1.112   .     S
C859   H117    1.111   1_556 S
C859   H118    1.101   1_556 S
N863   H864    1.007   .     S
N863   C865    1.445   .     S
C865   H866    1.112   .     S
H867   C121    1.101   1_556 S
H868   C121    1.111   1_556 S
C869   C873    1.431   .     S
C869   O905    1.305   .     A
C869   O903    1.306   .     A
C870   O906    1.305   .     A
C870   O904    1.306   .     A
C870   C874    1.431   .     S
C871   C888    1.417   .     A
C871   C911    1.510   .     S
C871   C951    1.400   1_455 S
C872   C887    1.417   .     A
C872   C915    1.510   .     S
C872   C952    1.400   .     S
C874   C997    1.333   .     S
C874   H1024   1.087   .     S
C875   C880    1.444   .     S
C875   O907    1.308   .     A
C875   O909    1.309   .     A
C876   C879    1.444   .     S
C876   O910    1.309   .     A
C876   O908    1.308   .     A
C877   H893    1.083   .     S
C877   C879    1.394   .     A
C877   C887    1.403   .     A
C878   H894    1.083   .     S
C878   C880    1.394   .     A
C878   C888    1.403   .     A
C879   C881    1.393   .     A
C880   C882    1.393   .     A
C881   C883    1.393   .     A
C881   H895    1.085   .     S
C882   H896    1.085   .     S
C882   C884    1.393   .     A
C883   C889    1.399   .     A
C883   C885    1.413   .     A
C884   C886    1.413   .     A
C884   C890    1.399   .     A
C885   C887    1.421   .     A
C885   C948    1.403   .     S
C886   C888    1.421   .     A
C886   C947    1.403   1_455 S
C889   H897    1.085   .     S
C889   C933    1.400   .     S
C890   H898    1.085   .     S
C890   C934    1.400   1_455 S
Cu891  Cu892   2.740   .     S
Cu891  O906    1.949   .     S
Cu891  O903    1.951   .     S
Cu891  N902    2.059   .     S
Cu891  O910    1.956   .     S
Cu891  O907    1.952   .     S
Cu892  O905    1.949   .     S
Cu892  O909    1.956   .     S
Cu892  O904    1.951   .     S
Cu892  O908    1.952   .     S
Cu892  N901    2.059   .     S
H899   C997    1.087   .     S
N902   N157    1.290   1_556 S
N902   N181    1.387   1_556 S
C911   H914    1.111   .     S
C911   H913    1.110   .     S
C911   H850    1.111   1_455 S
H912   C1097   1.111   .     S
C915   H917    1.111   .     S
C915   H918    1.110   .     S
C915   H1102   1.111   .     S
H916   C853    1.111   1_455 S
N919   H920    1.007   .     S
N919   C921    1.445   .     S
N919   N157    1.387   1_556 S
C921   H922    1.112   .     S
C921   H179    1.111   1_556 S
C921   H180    1.101   1_556 S
N925   H926    1.007   .     S
N925   C927    1.445   .     S
C927   H928    1.112   .     S
H929   C183    1.101   1_556 S
H930   C183    1.111   1_556 S
C931   C935    1.431   .     S
C931   O967    1.305   .     A
C931   O965    1.306   .     A
C932   O968    1.305   .     A
C932   O966    1.306   .     A
C932   C936    1.431   .     S
C933   C950    1.417   .     A
C933   C973    1.510   .     S
C934   C949    1.417   .     A
C934   C977    1.510   .     S
C934   C890    1.400   1_655 S
C936   C1059   1.333   .     S
C936   H1086   1.087   .     S
C937   C942    1.444   .     S
C937   O969    1.308   .     A
C937   O971    1.309   .     A
C938   C941    1.444   .     S
C938   O972    1.309   .     A
C938   O970    1.308   .     A
C939   H955    1.083   .     S
C939   C941    1.394   .     A
C939   C949    1.403   .     A
C940   H956    1.083   .     S
C940   C942    1.394   .     A
C940   C950    1.403   .     A
C941   C943    1.393   .     A
C942   C944    1.393   .     A
C943   C945    1.393   .     A
C943   H957    1.085   .     S
C944   H958    1.085   .     S
C944   C946    1.393   .     A
C945   C951    1.399   .     A
C945   C947    1.413   .     A
C946   C948    1.413   .     A
C946   C952    1.399   .     A
C947   C949    1.421   .     A
C947   C886    1.403   1_655 S
C948   C950    1.421   .     A
C951   H959    1.085   .     S
C951   C871    1.400   1_655 S
C952   H960    1.085   .     S
Cu953  Cu954   2.740   .     S
Cu953  O968    1.949   .     S
Cu953  O965    1.951   .     S
Cu953  N964    2.059   .     S
Cu953  O972    1.956   .     S
Cu953  O969    1.952   .     S
Cu954  O967    1.949   .     S
Cu954  O971    1.956   .     S
Cu954  O966    1.951   .     S
Cu954  O970    1.952   .     S
Cu954  N963    2.059   .     S
H961   C1059   1.087   .     S
N964   N219    1.290   1_556 S
N964   N243    1.387   1_556 S
C973   H976    1.111   .     S
C973   H975    1.110   .     S
H974   C1035   1.111   1_655 S
C977   H979    1.111   .     S
C977   H980    1.110   .     S
C977   H1040   1.111   1_655 S
N981   H982    1.007   .     S
N981   C983    1.445   .     S
N981   N219    1.387   1_556 S
C983   H984    1.112   .     S
C983   H241    1.111   1_556 S
C983   H242    1.101   1_556 S
N987   H988    1.007   .     S
N987   C989    1.445   .     S
C989   H990    1.112   .     S
H991   C245    1.101   1_556 S
H992   C245    1.111   1_556 S
C993   C997    1.431   .     S
C993   O1029   1.305   .     A
C993   O1027   1.306   .     A
C994   O1030   1.305   .     A
C994   O1028   1.306   .     A
C994   C998    1.431   .     S
C995   C1012   1.417   .     A
C995   C1035   1.510   .     S
C995   C1075   1.400   1_455 S
C996   C1011   1.417   .     A
C996   C1039   1.510   .     S
C996   C1076   1.400   .     S
C998   C749    1.333   1_565 S
C998   H776    1.087   1_565 S
C999   C1004   1.444   .     S
C999   O1031   1.308   .     A
C999   O1033   1.309   .     A
C1000  C1003   1.444   .     S
C1000  O1034   1.309   .     A
C1000  O1032   1.308   .     A
C1001  H1017   1.083   .     S
C1001  C1003   1.394   .     A
C1001  C1011   1.403   .     A
C1002  H1018   1.083   .     S
C1002  C1004   1.394   .     A
C1002  C1012   1.403   .     A
C1003  C1005   1.393   .     A
C1004  C1006   1.393   .     A
C1005  C1007   1.393   .     A
C1005  H1019   1.085   .     S
C1006  H1020   1.085   .     S
C1006  C1008   1.393   .     A
C1007  C1013   1.399   .     A
C1007  C1009   1.413   .     A
C1008  C1010   1.413   .     A
C1008  C1014   1.399   .     A
C1009  C1011   1.421   .     A
C1009  C1072   1.403   .     S
C1010  C1012   1.421   .     A
C1010  C1071   1.403   1_455 S
C1013  H1021   1.085   .     S
C1013  C1057   1.400   .     S
C1014  H1022   1.085   .     S
C1014  C1058   1.400   1_455 S
Cu1015 Cu1016  2.740   .     S
Cu1015 O1030   1.949   .     S
Cu1015 O1027   1.951   .     S
Cu1015 N1026   2.059   .     S
Cu1015 O1034   1.956   .     S
Cu1015 O1031   1.952   .     S
Cu1016 O1029   1.949   .     S
Cu1016 O1033   1.956   .     S
Cu1016 O1028   1.951   .     S
Cu1016 O1032   1.952   .     S
Cu1016 N1025   2.059   .     S
H1023  C749    1.087   1_565 S
N1026  N281    1.290   1_556 S
N1026  N305    1.387   1_556 S
C1035  H1038   1.111   .     S
C1035  H1037   1.110   .     S
C1035  H974    1.111   1_455 S
H1036  C849    1.111   1_565 S
C1039  H1041   1.111   .     S
C1039  H1042   1.110   .     S
C1039  H854    1.111   1_565 S
H1040  C977    1.111   1_455 S
N1043  H1044   1.007   .     S
N1043  C1045   1.445   .     S
N1043  N281    1.387   1_556 S
C1045  H1046   1.112   .     S
C1045  H303    1.111   1_556 S
C1045  H304    1.101   1_556 S
N1049  H1050   1.007   .     S
N1049  C1051   1.445   .     S
C1051  H1052   1.112   .     S
H1053  C307    1.101   1_556 S
H1054  C307    1.111   1_556 S
C1055  C1059   1.431   .     S
C1055  O1091   1.305   .     A
C1055  O1089   1.306   .     A
C1056  O1092   1.305   .     A
C1056  O1090   1.306   .     A
C1056  C1060   1.431   .     S
C1057  C1074   1.417   .     A
C1057  C1097   1.510   .     S
C1058  C1073   1.417   .     A
C1058  C1101   1.510   .     S
C1058  C1014   1.400   1_655 S
C1060  C811    1.333   1_565 S
C1060  H838    1.087   1_565 S
C1061  C1066   1.444   .     S
C1061  O1093   1.308   .     A
C1061  O1095   1.309   .     A
C1062  C1065   1.444   .     S
C1062  O1096   1.309   .     A
C1062  O1094   1.308   .     A
C1063  H1079   1.083   .     S
C1063  C1065   1.394   .     A
C1063  C1073   1.403   .     A
C1064  H1080   1.083   .     S
C1064  C1066   1.394   .     A
C1064  C1074   1.403   .     A
C1065  C1067   1.393   .     A
C1066  C1068   1.393   .     A
C1067  C1069   1.393   .     A
C1067  H1081   1.085   .     S
C1068  H1082   1.085   .     S
C1068  C1070   1.393   .     A
C1069  C1075   1.399   .     A
C1069  C1071   1.413   .     A
C1070  C1072   1.413   .     A
C1070  C1076   1.399   .     A
C1071  C1073   1.421   .     A
C1071  C1010   1.403   1_655 S
C1072  C1074   1.421   .     A
C1075  H1083   1.085   .     S
C1075  C995    1.400   1_655 S
C1076  H1084   1.085   .     S
Cu1077 Cu1078  2.740   .     S
Cu1077 O1092   1.949   .     S
Cu1077 O1089   1.951   .     S
Cu1077 N1088   2.059   .     S
Cu1077 O1096   1.956   .     S
Cu1077 O1093   1.952   .     S
Cu1078 O1091   1.949   .     S
Cu1078 O1095   1.956   .     S
Cu1078 O1090   1.951   .     S
Cu1078 O1094   1.952   .     S
Cu1078 N1087   2.059   .     S
H1085  C811    1.087   1_565 S
N1088  N343    1.290   1_556 S
N1088  N367    1.387   1_556 S
C1097  H1100   1.111   .     S
C1097  H1099   1.110   .     S
H1098  C787    1.111   1_665 S
C1101  H1103   1.111   .     S
C1101  H1104   1.110   .     S
C1101  H792    1.111   1_665 S
N1105  H1106   1.007   .     S
N1105  C1107   1.445   .     S
N1105  N343    1.387   1_556 S
C1107  H1108   1.112   .     S
C1107  H365    1.111   1_556 S
C1107  H366    1.101   1_556 S
N1111  H1112   1.007   .     S
N1111  C1113   1.445   .     S
C1113  H1114   1.112   .     S
H1115  C369    1.101   1_556 S
H1116  C369    1.111   1_556 S
