data_str_m2_o10_o18_pcu_sym.66
_audit_creation_date              2020-01-03
_audit_creation_method            'Materials Studio'
_symmetry_space_group_name_H-M    'P1'
_symmetry_Int_Tables_number       1
_symmetry_cell_setting            triclinic
loop_
_symmetry_equiv_pos_as_xyz
  x,y,z
_cell_length_a                    22.4685
_cell_length_b                    26.1904
_cell_length_c                    31.7786
_cell_angle_alpha                 95.2791
_cell_angle_beta                  75.7847
_cell_angle_gamma                 102.5773
loop_
_atom_site_label
_atom_site_type_symbol
_atom_site_fract_x
_atom_site_fract_y
_atom_site_fract_z
_atom_site_U_iso_or_equiv
_atom_site_adp_type
_atom_site_occupancy
C1     C     0.18098   0.26654   0.25218   0.00000  Uiso   1.00
C2     C     0.20525   0.16981   0.16686   0.00000  Uiso   1.00
C3     C     0.10630   0.15306   0.38032   0.00000  Uiso   1.00
C4     C     0.23042   0.17220   0.11913   0.00000  Uiso   1.00
C5     C     0.03837   0.10071   0.43900   0.00000  Uiso   1.00
C6     C     0.31489   0.19850   0.05612   0.00000  Uiso   1.00
C7     C     0.04976   0.11859   0.39732   0.00000  Uiso   1.00
C8     C     0.29510   0.19015   0.10036   0.00000  Uiso   1.00
C9     C     0.14784   0.17242   0.40748   0.00000  Uiso   1.00
C10    C     0.18893   0.15688   0.09137   0.00000  Uiso   1.00
C11    C     0.14067   0.15087   0.44813   0.00000  Uiso   1.00
C12    C     0.15168   0.06674   0.24890   0.00000  Uiso   1.00
C13    C     0.21030   0.16070   0.04589   0.00000  Uiso   1.00
C14    C     0.08379   0.11476   0.46364   0.00000  Uiso   1.00
C15    C     0.27243   0.18635   0.02947   0.00000  Uiso   1.00
C16    C     0.18705   0.16291   0.47399   0.00000  Uiso   1.00
C17    C     0.17057   0.14258   0.01662   0.00000  Uiso   1.00
C18    C     0.32523   0.24735   0.31047   0.00000  Uiso   1.00
C19    C     0.31402   0.30344   0.31301   0.00000  Uiso   1.00
C20    C     0.25238   0.30913   0.34513   0.00000  Uiso   1.00
C21    C     0.32755   0.07477   0.20392   0.00000  Uiso   1.00
C22    C     0.04093   0.05630   0.16550   0.00000  Uiso   1.00
C23    C     0.11817   0.10115   0.02715   0.00000  Uiso   1.00
C24    C     0.03062   0.33004   0.16245   0.00000  Uiso   1.00
C25    C     0.25050   0.19045   0.45938   0.00000  Uiso   1.00
C26    C     0.07402   0.08973   0.00220   0.00000  Uiso   1.00
C27    C     0.29202   0.19978   0.48653   0.00000  Uiso   1.00
C28    C     0.18761   0.32230   0.25535   0.00000  Uiso   1.00
C29    C     0.14352   0.01084   0.24769   0.00000  Uiso   1.00
C30    C     0.12847   0.16265   0.33314   0.00000  Uiso   1.00
Cl31   Cl    0.02115   0.20456   0.12951   0.00000  Uiso   1.00
Cl32   Cl    0.32599   0.09488   0.36739   0.00000  Uiso   1.00
Cl33   Cl    0.11666   0.05187   0.06173   0.00000  Uiso   1.00
Cl34   Cl    0.28870   0.20830   0.40668   0.00000  Uiso   1.00
Cu35   Cu    0.10737   0.16108   0.24516   0.00000  Uiso   1.00
Cu36   Cu    0.22596   0.17225   0.25483   0.00000  Uiso   1.00
H37    H     0.03363   0.05829   0.01155   0.00000  Uiso   1.00
H38    H     0.28265   0.22115   0.32799   0.00000  Uiso   1.00
H39    H     0.02024   0.33102   0.32316   0.00000  Uiso   1.00
H40    H     0.31318   0.31509   0.28051   0.00000  Uiso   1.00
H41    H     0.21281   0.27818   0.33883   0.00000  Uiso   1.00
H42    H     0.24084   0.01398   0.34159   0.00000  Uiso   1.00
H43    H     0.25648   0.30664   0.37896   0.00000  Uiso   1.00
H44    H     0.28061   0.05535   0.19910   0.00000  Uiso   1.00
H45    H     0.33169   0.06147   0.23518   0.00000  Uiso   1.00
H46    H     0.03393   0.07039   0.13555   0.00000  Uiso   1.00
H47    H     0.08963   0.07268   0.16824   0.00000  Uiso   1.00
H48    H     0.00714   0.21887   0.47404   0.00000  Uiso   1.00
H49    H     0.03167   0.31459   0.19356   0.00000  Uiso   1.00
H50    H     0.06828   0.31770   0.13643   0.00000  Uiso   1.00
H51    H     0.31793   0.31300   0.15464   0.00000  Uiso   1.00
H52    H     0.13952   0.14354   0.10543   0.00000  Uiso   1.00
H53    H     0.18457   0.20482   0.39580   0.00000  Uiso   1.00
H54    H     0.32826   0.07346   0.45137   0.00000  Uiso   1.00
H55    H     0.03046   0.21520   0.04253   0.00000  Uiso   1.00
H56    H     0.22918   0.01230   0.26414   0.00000  Uiso   1.00
H57    H     0.10117   0.32082   0.23984   0.00000  Uiso   1.00
H58    H     0.02986   0.24703   0.32713   0.00000  Uiso   1.00
N59    N     0.31506   0.18068   0.26212   0.00000  Uiso   1.00
N60    N     0.01827   0.15265   0.23788   0.00000  Uiso   1.00
O61    O     0.12815   0.23809   0.24686   0.00000  Uiso   1.00
O62    O     0.33160   0.12910   0.20300   0.00000  Uiso   1.00
O63    O     0.20518   0.09524   0.25314   0.00000  Uiso   1.00
O64    O     0.22829   0.24753   0.25502   0.00000  Uiso   1.00
O65    O     0.10504   0.08580   0.24497   0.00000  Uiso   1.00
O66    O     0.08851   0.15930   0.30854   0.00000  Uiso   1.00
O67    O     0.24482   0.17403   0.19145   0.00000  Uiso   1.00
O68    O     0.18866   0.16874   0.31671   0.00000  Uiso   1.00
O69    O     0.14468   0.16460   0.18329   0.00000  Uiso   1.00
O70    O     0.01158   0.23050   0.26698   0.00000  Uiso   1.00
C71    C     0.51432   0.26654   0.25218   0.00000  Uiso   1.00
C72    C     0.53859   0.16981   0.16686   0.00000  Uiso   1.00
C73    C     0.43963   0.15306   0.38032   0.00000  Uiso   1.00
C74    C     0.56375   0.17220   0.11913   0.00000  Uiso   1.00
C75    C     0.37171   0.10071   0.43900   0.00000  Uiso   1.00
C76    C     0.64822   0.19850   0.05612   0.00000  Uiso   1.00
C77    C     0.38309   0.11859   0.39732   0.00000  Uiso   1.00
C78    C     0.62843   0.19015   0.10036   0.00000  Uiso   1.00
C79    C     0.48118   0.17242   0.40748   0.00000  Uiso   1.00
C80    C     0.52226   0.15688   0.09137   0.00000  Uiso   1.00
C81    C     0.47401   0.15087   0.44813   0.00000  Uiso   1.00
C82    C     0.48502   0.06674   0.24890   0.00000  Uiso   1.00
C83    C     0.54363   0.16070   0.04589   0.00000  Uiso   1.00
C84    C     0.41712   0.11476   0.46364   0.00000  Uiso   1.00
C85    C     0.60576   0.18635   0.02947   0.00000  Uiso   1.00
C86    C     0.52038   0.16291   0.47399   0.00000  Uiso   1.00
C87    C     0.50390   0.14258   0.01662   0.00000  Uiso   1.00
C88    C     0.65856   0.24735   0.31047   0.00000  Uiso   1.00
C89    C     0.64735   0.30344   0.31301   0.00000  Uiso   1.00
C90    C     0.58571   0.30913   0.34513   0.00000  Uiso   1.00
C91    C     0.66088   0.07477   0.20392   0.00000  Uiso   1.00
C92    C     0.37427   0.05630   0.16550   0.00000  Uiso   1.00
C93    C     0.45150   0.10115   0.02715   0.00000  Uiso   1.00
C94    C     0.36395   0.33004   0.16245   0.00000  Uiso   1.00
C95    C     0.58383   0.19045   0.45938   0.00000  Uiso   1.00
C96    C     0.40735   0.08973   0.00220   0.00000  Uiso   1.00
C97    C     0.62536   0.19978   0.48653   0.00000  Uiso   1.00
C98    C     0.52094   0.32230   0.25535   0.00000  Uiso   1.00
C99    C     0.47686   0.01084   0.24769   0.00000  Uiso   1.00
C100   C     0.46180   0.16265   0.33314   0.00000  Uiso   1.00
Cl101  Cl    0.35448   0.20456   0.12951   0.00000  Uiso   1.00
Cl102  Cl    0.65932   0.09488   0.36739   0.00000  Uiso   1.00
Cl103  Cl    0.44999   0.05187   0.06173   0.00000  Uiso   1.00
Cl104  Cl    0.62203   0.20830   0.40668   0.00000  Uiso   1.00
Cu105  Cu    0.44071   0.16108   0.24516   0.00000  Uiso   1.00
Cu106  Cu    0.55929   0.17225   0.25483   0.00000  Uiso   1.00
H107   H     0.36696   0.05829   0.01155   0.00000  Uiso   1.00
H108   H     0.61598   0.22115   0.32799   0.00000  Uiso   1.00
H109   H     0.35358   0.33102   0.32316   0.00000  Uiso   1.00
H110   H     0.64651   0.31509   0.28051   0.00000  Uiso   1.00
H111   H     0.54614   0.27818   0.33883   0.00000  Uiso   1.00
H112   H     0.57417   0.01398   0.34159   0.00000  Uiso   1.00
H113   H     0.58981   0.30664   0.37896   0.00000  Uiso   1.00
H114   H     0.61395   0.05535   0.19910   0.00000  Uiso   1.00
H115   H     0.66502   0.06147   0.23518   0.00000  Uiso   1.00
H116   H     0.36726   0.07039   0.13555   0.00000  Uiso   1.00
H117   H     0.42296   0.07268   0.16824   0.00000  Uiso   1.00
H118   H     0.34048   0.21887   0.47404   0.00000  Uiso   1.00
H119   H     0.36501   0.31459   0.19356   0.00000  Uiso   1.00
H120   H     0.40161   0.31770   0.13643   0.00000  Uiso   1.00
H121   H     0.65126   0.31300   0.15464   0.00000  Uiso   1.00
H122   H     0.47286   0.14354   0.10543   0.00000  Uiso   1.00
H123   H     0.51791   0.20482   0.39580   0.00000  Uiso   1.00
H124   H     0.66159   0.07346   0.45137   0.00000  Uiso   1.00
H125   H     0.36379   0.21520   0.04253   0.00000  Uiso   1.00
H126   H     0.56252   0.01230   0.26414   0.00000  Uiso   1.00
H127   H     0.43450   0.32082   0.23984   0.00000  Uiso   1.00
H128   H     0.36320   0.24703   0.32713   0.00000  Uiso   1.00
N129   N     0.64839   0.18068   0.26212   0.00000  Uiso   1.00
N130   N     0.35161   0.15265   0.23788   0.00000  Uiso   1.00
O131   O     0.46148   0.23809   0.24686   0.00000  Uiso   1.00
O132   O     0.66493   0.12910   0.20300   0.00000  Uiso   1.00
O133   O     0.53852   0.09524   0.25314   0.00000  Uiso   1.00
O134   O     0.56163   0.24753   0.25502   0.00000  Uiso   1.00
O135   O     0.43837   0.08580   0.24497   0.00000  Uiso   1.00
O136   O     0.42185   0.15930   0.30854   0.00000  Uiso   1.00
O137   O     0.57815   0.17403   0.19145   0.00000  Uiso   1.00
O138   O     0.52199   0.16874   0.31671   0.00000  Uiso   1.00
O139   O     0.47801   0.16460   0.18329   0.00000  Uiso   1.00
O140   O     0.34492   0.23050   0.26698   0.00000  Uiso   1.00
C141   C     0.84765   0.26654   0.25218   0.00000  Uiso   1.00
C142   C     0.87192   0.16981   0.16686   0.00000  Uiso   1.00
C143   C     0.77296   0.15306   0.38032   0.00000  Uiso   1.00
C144   C     0.89708   0.17220   0.11913   0.00000  Uiso   1.00
C145   C     0.70504   0.10071   0.43900   0.00000  Uiso   1.00
C146   C     0.98156   0.19850   0.05612   0.00000  Uiso   1.00
C147   C     0.71643   0.11859   0.39732   0.00000  Uiso   1.00
C148   C     0.96177   0.19015   0.10036   0.00000  Uiso   1.00
C149   C     0.81451   0.17242   0.40748   0.00000  Uiso   1.00
C150   C     0.85560   0.15688   0.09137   0.00000  Uiso   1.00
C151   C     0.80734   0.15087   0.44813   0.00000  Uiso   1.00
C152   C     0.81835   0.06674   0.24890   0.00000  Uiso   1.00
C153   C     0.87696   0.16070   0.04589   0.00000  Uiso   1.00
C154   C     0.75045   0.11476   0.46364   0.00000  Uiso   1.00
C155   C     0.93910   0.18635   0.02947   0.00000  Uiso   1.00
C156   C     0.85372   0.16291   0.47399   0.00000  Uiso   1.00
C157   C     0.83724   0.14258   0.01662   0.00000  Uiso   1.00
C158   C     0.99190   0.24735   0.31047   0.00000  Uiso   1.00
C159   C     0.98068   0.30344   0.31301   0.00000  Uiso   1.00
C160   C     0.91904   0.30913   0.34513   0.00000  Uiso   1.00
C161   C     0.99421   0.07477   0.20392   0.00000  Uiso   1.00
C162   C     0.70760   0.05630   0.16550   0.00000  Uiso   1.00
C163   C     0.78483   0.10115   0.02715   0.00000  Uiso   1.00
C164   C     0.69729   0.33004   0.16245   0.00000  Uiso   1.00
C165   C     0.91717   0.19045   0.45938   0.00000  Uiso   1.00
C166   C     0.74068   0.08973   0.00220   0.00000  Uiso   1.00
C167   C     0.95869   0.19978   0.48653   0.00000  Uiso   1.00
C168   C     0.85427   0.32230   0.25535   0.00000  Uiso   1.00
C169   C     0.81019   0.01084   0.24769   0.00000  Uiso   1.00
C170   C     0.79513   0.16265   0.33314   0.00000  Uiso   1.00
Cl171  Cl    0.68782   0.20456   0.12951   0.00000  Uiso   1.00
Cl172  Cl    0.99266   0.09488   0.36739   0.00000  Uiso   1.00
Cl173  Cl    0.78333   0.05187   0.06173   0.00000  Uiso   1.00
Cl174  Cl    0.95536   0.20830   0.40668   0.00000  Uiso   1.00
Cu175  Cu    0.77404   0.16108   0.24516   0.00000  Uiso   1.00
Cu176  Cu    0.89263   0.17225   0.25483   0.00000  Uiso   1.00
H177   H     0.70030   0.05829   0.01155   0.00000  Uiso   1.00
H178   H     0.94931   0.22115   0.32799   0.00000  Uiso   1.00
H179   H     0.68691   0.33102   0.32316   0.00000  Uiso   1.00
H180   H     0.97984   0.31509   0.28051   0.00000  Uiso   1.00
H181   H     0.87948   0.27818   0.33883   0.00000  Uiso   1.00
H182   H     0.90751   0.01398   0.34159   0.00000  Uiso   1.00
H183   H     0.92315   0.30664   0.37896   0.00000  Uiso   1.00
H184   H     0.94728   0.05535   0.19910   0.00000  Uiso   1.00
H185   H     0.99836   0.06147   0.23518   0.00000  Uiso   1.00
H186   H     0.70060   0.07039   0.13555   0.00000  Uiso   1.00
H187   H     0.75630   0.07268   0.16824   0.00000  Uiso   1.00
H188   H     0.67381   0.21887   0.47404   0.00000  Uiso   1.00
H189   H     0.69834   0.31459   0.19356   0.00000  Uiso   1.00
H190   H     0.73495   0.31770   0.13643   0.00000  Uiso   1.00
H191   H     0.98460   0.31300   0.15464   0.00000  Uiso   1.00
H192   H     0.80619   0.14354   0.10543   0.00000  Uiso   1.00
H193   H     0.85124   0.20482   0.39580   0.00000  Uiso   1.00
H194   H     0.99493   0.07346   0.45137   0.00000  Uiso   1.00
H195   H     0.69713   0.21520   0.04253   0.00000  Uiso   1.00
H196   H     0.89585   0.01230   0.26414   0.00000  Uiso   1.00
H197   H     0.76784   0.32082   0.23984   0.00000  Uiso   1.00
H198   H     0.69653   0.24703   0.32713   0.00000  Uiso   1.00
N199   N     0.98173   0.18068   0.26212   0.00000  Uiso   1.00
N200   N     0.68494   0.15265   0.23788   0.00000  Uiso   1.00
O201   O     0.79482   0.23809   0.24686   0.00000  Uiso   1.00
O202   O     0.99826   0.12910   0.20300   0.00000  Uiso   1.00
O203   O     0.87185   0.09524   0.25314   0.00000  Uiso   1.00
O204   O     0.89496   0.24753   0.25502   0.00000  Uiso   1.00
O205   O     0.77171   0.08580   0.24497   0.00000  Uiso   1.00
O206   O     0.75518   0.15930   0.30854   0.00000  Uiso   1.00
O207   O     0.91149   0.17403   0.19145   0.00000  Uiso   1.00
O208   O     0.85532   0.16874   0.31671   0.00000  Uiso   1.00
O209   O     0.81134   0.16460   0.18329   0.00000  Uiso   1.00
O210   O     0.67825   0.23050   0.26698   0.00000  Uiso   1.00
C211   C     0.18098   0.59988   0.25218   0.00000  Uiso   1.00
C212   C     0.20525   0.50315   0.16686   0.00000  Uiso   1.00
C213   C     0.10630   0.48639   0.38032   0.00000  Uiso   1.00
C214   C     0.23042   0.50553   0.11913   0.00000  Uiso   1.00
C215   C     0.03837   0.43404   0.43900   0.00000  Uiso   1.00
C216   C     0.31489   0.53184   0.05612   0.00000  Uiso   1.00
C217   C     0.04976   0.45192   0.39732   0.00000  Uiso   1.00
C218   C     0.29510   0.52348   0.10036   0.00000  Uiso   1.00
C219   C     0.14784   0.50576   0.40748   0.00000  Uiso   1.00
C220   C     0.18893   0.49021   0.09137   0.00000  Uiso   1.00
C221   C     0.14067   0.48420   0.44813   0.00000  Uiso   1.00
C222   C     0.15168   0.40007   0.24890   0.00000  Uiso   1.00
C223   C     0.21030   0.49403   0.04589   0.00000  Uiso   1.00
C224   C     0.08379   0.44810   0.46364   0.00000  Uiso   1.00
C225   C     0.27243   0.51968   0.02947   0.00000  Uiso   1.00
C226   C     0.18705   0.49625   0.47399   0.00000  Uiso   1.00
C227   C     0.17057   0.47591   0.01662   0.00000  Uiso   1.00
C228   C     0.32523   0.58068   0.31047   0.00000  Uiso   1.00
C229   C     0.31402   0.63677   0.31301   0.00000  Uiso   1.00
C230   C     0.25238   0.64246   0.34513   0.00000  Uiso   1.00
C231   C     0.32755   0.40810   0.20392   0.00000  Uiso   1.00
C232   C     0.04093   0.38964   0.16550   0.00000  Uiso   1.00
C233   C     0.11817   0.43449   0.02715   0.00000  Uiso   1.00
C234   C     0.03062   0.66337   0.16245   0.00000  Uiso   1.00
C235   C     0.25050   0.52379   0.45938   0.00000  Uiso   1.00
C236   C     0.07402   0.42306   0.00220   0.00000  Uiso   1.00
C237   C     0.29202   0.53311   0.48653   0.00000  Uiso   1.00
C238   C     0.18761   0.65563   0.25535   0.00000  Uiso   1.00
C239   C     0.14352   0.34417   0.24769   0.00000  Uiso   1.00
C240   C     0.12847   0.49599   0.33314   0.00000  Uiso   1.00
Cl241  Cl    0.02115   0.53789   0.12951   0.00000  Uiso   1.00
Cl242  Cl    0.32599   0.42821   0.36739   0.00000  Uiso   1.00
Cl243  Cl    0.11666   0.38520   0.06173   0.00000  Uiso   1.00
Cl244  Cl    0.28870   0.54164   0.40668   0.00000  Uiso   1.00
Cu245  Cu    0.10737   0.49441   0.24516   0.00000  Uiso   1.00
Cu246  Cu    0.22596   0.50559   0.25483   0.00000  Uiso   1.00
H247   H     0.03363   0.39162   0.01155   0.00000  Uiso   1.00
H248   H     0.28265   0.55448   0.32799   0.00000  Uiso   1.00
H249   H     0.02024   0.66436   0.32316   0.00000  Uiso   1.00
H250   H     0.31318   0.64842   0.28051   0.00000  Uiso   1.00
H251   H     0.21281   0.61152   0.33883   0.00000  Uiso   1.00
H252   H     0.24084   0.34732   0.34159   0.00000  Uiso   1.00
H253   H     0.25648   0.63997   0.37896   0.00000  Uiso   1.00
H254   H     0.28061   0.38869   0.19910   0.00000  Uiso   1.00
H255   H     0.33169   0.39480   0.23518   0.00000  Uiso   1.00
H256   H     0.03393   0.40372   0.13555   0.00000  Uiso   1.00
H257   H     0.08963   0.40601   0.16824   0.00000  Uiso   1.00
H258   H     0.00714   0.55220   0.47404   0.00000  Uiso   1.00
H259   H     0.03167   0.64792   0.19356   0.00000  Uiso   1.00
H260   H     0.06828   0.65104   0.13643   0.00000  Uiso   1.00
H261   H     0.31793   0.64633   0.15464   0.00000  Uiso   1.00
H262   H     0.13952   0.47688   0.10543   0.00000  Uiso   1.00
H263   H     0.18457   0.53815   0.39580   0.00000  Uiso   1.00
H264   H     0.32826   0.40679   0.45137   0.00000  Uiso   1.00
H265   H     0.03046   0.54853   0.04253   0.00000  Uiso   1.00
H266   H     0.22918   0.34563   0.26414   0.00000  Uiso   1.00
H267   H     0.10117   0.65415   0.23984   0.00000  Uiso   1.00
H268   H     0.02986   0.58036   0.32713   0.00000  Uiso   1.00
N269   N     0.31506   0.51401   0.26212   0.00000  Uiso   1.00
N270   N     0.01827   0.48599   0.23788   0.00000  Uiso   1.00
O271   O     0.12815   0.57142   0.24686   0.00000  Uiso   1.00
O272   O     0.33160   0.46243   0.20300   0.00000  Uiso   1.00
O273   O     0.20518   0.42858   0.25314   0.00000  Uiso   1.00
O274   O     0.22829   0.58086   0.25502   0.00000  Uiso   1.00
O275   O     0.10504   0.41914   0.24497   0.00000  Uiso   1.00
O276   O     0.08851   0.49263   0.30854   0.00000  Uiso   1.00
O277   O     0.24482   0.50737   0.19145   0.00000  Uiso   1.00
O278   O     0.18866   0.50207   0.31671   0.00000  Uiso   1.00
O279   O     0.14468   0.49793   0.18329   0.00000  Uiso   1.00
O280   O     0.01158   0.56383   0.26698   0.00000  Uiso   1.00
C281   C     0.51432   0.59988   0.25218   0.00000  Uiso   1.00
C282   C     0.53859   0.50315   0.16686   0.00000  Uiso   1.00
C283   C     0.43963   0.48639   0.38032   0.00000  Uiso   1.00
C284   C     0.56375   0.50553   0.11913   0.00000  Uiso   1.00
C285   C     0.37171   0.43404   0.43900   0.00000  Uiso   1.00
C286   C     0.64822   0.53184   0.05612   0.00000  Uiso   1.00
C287   C     0.38309   0.45192   0.39732   0.00000  Uiso   1.00
C288   C     0.62843   0.52348   0.10036   0.00000  Uiso   1.00
C289   C     0.48118   0.50576   0.40748   0.00000  Uiso   1.00
C290   C     0.52226   0.49021   0.09137   0.00000  Uiso   1.00
C291   C     0.47401   0.48420   0.44813   0.00000  Uiso   1.00
C292   C     0.48502   0.40007   0.24890   0.00000  Uiso   1.00
C293   C     0.54363   0.49403   0.04589   0.00000  Uiso   1.00
C294   C     0.41712   0.44810   0.46364   0.00000  Uiso   1.00
C295   C     0.60576   0.51968   0.02947   0.00000  Uiso   1.00
C296   C     0.52038   0.49625   0.47399   0.00000  Uiso   1.00
C297   C     0.50390   0.47591   0.01662   0.00000  Uiso   1.00
C298   C     0.65856   0.58068   0.31047   0.00000  Uiso   1.00
C299   C     0.64735   0.63677   0.31301   0.00000  Uiso   1.00
C300   C     0.58571   0.64246   0.34513   0.00000  Uiso   1.00
C301   C     0.66088   0.40810   0.20392   0.00000  Uiso   1.00
C302   C     0.37427   0.38964   0.16550   0.00000  Uiso   1.00
C303   C     0.45150   0.43449   0.02715   0.00000  Uiso   1.00
C304   C     0.36395   0.66337   0.16245   0.00000  Uiso   1.00
C305   C     0.58383   0.52379   0.45938   0.00000  Uiso   1.00
C306   C     0.40735   0.42306   0.00220   0.00000  Uiso   1.00
C307   C     0.62536   0.53311   0.48653   0.00000  Uiso   1.00
C308   C     0.52094   0.65563   0.25535   0.00000  Uiso   1.00
C309   C     0.47686   0.34417   0.24769   0.00000  Uiso   1.00
C310   C     0.46180   0.49599   0.33314   0.00000  Uiso   1.00
Cl311  Cl    0.35448   0.53789   0.12951   0.00000  Uiso   1.00
Cl312  Cl    0.65932   0.42821   0.36739   0.00000  Uiso   1.00
Cl313  Cl    0.44999   0.38520   0.06173   0.00000  Uiso   1.00
Cl314  Cl    0.62203   0.54164   0.40668   0.00000  Uiso   1.00
Cu315  Cu    0.44071   0.49441   0.24516   0.00000  Uiso   1.00
Cu316  Cu    0.55929   0.50559   0.25483   0.00000  Uiso   1.00
H317   H     0.36696   0.39162   0.01155   0.00000  Uiso   1.00
H318   H     0.61598   0.55448   0.32799   0.00000  Uiso   1.00
H319   H     0.35358   0.66436   0.32316   0.00000  Uiso   1.00
H320   H     0.64651   0.64842   0.28051   0.00000  Uiso   1.00
H321   H     0.54614   0.61152   0.33883   0.00000  Uiso   1.00
H322   H     0.57417   0.34732   0.34159   0.00000  Uiso   1.00
H323   H     0.58981   0.63997   0.37896   0.00000  Uiso   1.00
H324   H     0.61395   0.38869   0.19910   0.00000  Uiso   1.00
H325   H     0.66502   0.39480   0.23518   0.00000  Uiso   1.00
H326   H     0.36726   0.40372   0.13555   0.00000  Uiso   1.00
H327   H     0.42296   0.40601   0.16824   0.00000  Uiso   1.00
H328   H     0.34048   0.55220   0.47404   0.00000  Uiso   1.00
H329   H     0.36501   0.64792   0.19356   0.00000  Uiso   1.00
H330   H     0.40161   0.65104   0.13643   0.00000  Uiso   1.00
H331   H     0.65126   0.64633   0.15464   0.00000  Uiso   1.00
H332   H     0.47286   0.47688   0.10543   0.00000  Uiso   1.00
H333   H     0.51791   0.53815   0.39580   0.00000  Uiso   1.00
H334   H     0.66159   0.40679   0.45137   0.00000  Uiso   1.00
H335   H     0.36379   0.54853   0.04253   0.00000  Uiso   1.00
H336   H     0.56252   0.34563   0.26414   0.00000  Uiso   1.00
H337   H     0.43450   0.65415   0.23984   0.00000  Uiso   1.00
H338   H     0.36320   0.58036   0.32713   0.00000  Uiso   1.00
N339   N     0.64839   0.51401   0.26212   0.00000  Uiso   1.00
N340   N     0.35161   0.48599   0.23788   0.00000  Uiso   1.00
O341   O     0.46148   0.57142   0.24686   0.00000  Uiso   1.00
O342   O     0.66493   0.46243   0.20300   0.00000  Uiso   1.00
O343   O     0.53852   0.42858   0.25314   0.00000  Uiso   1.00
O344   O     0.56163   0.58086   0.25502   0.00000  Uiso   1.00
O345   O     0.43837   0.41914   0.24497   0.00000  Uiso   1.00
O346   O     0.42185   0.49263   0.30854   0.00000  Uiso   1.00
O347   O     0.57815   0.50737   0.19145   0.00000  Uiso   1.00
O348   O     0.52199   0.50207   0.31671   0.00000  Uiso   1.00
O349   O     0.47801   0.49793   0.18329   0.00000  Uiso   1.00
O350   O     0.34492   0.56383   0.26698   0.00000  Uiso   1.00
C351   C     0.84765   0.59988   0.25218   0.00000  Uiso   1.00
C352   C     0.87192   0.50315   0.16686   0.00000  Uiso   1.00
C353   C     0.77296   0.48639   0.38032   0.00000  Uiso   1.00
C354   C     0.89708   0.50553   0.11913   0.00000  Uiso   1.00
C355   C     0.70504   0.43404   0.43900   0.00000  Uiso   1.00
C356   C     0.98156   0.53184   0.05612   0.00000  Uiso   1.00
C357   C     0.71643   0.45192   0.39732   0.00000  Uiso   1.00
C358   C     0.96177   0.52348   0.10036   0.00000  Uiso   1.00
C359   C     0.81451   0.50576   0.40748   0.00000  Uiso   1.00
C360   C     0.85560   0.49021   0.09137   0.00000  Uiso   1.00
C361   C     0.80734   0.48420   0.44813   0.00000  Uiso   1.00
C362   C     0.81835   0.40007   0.24890   0.00000  Uiso   1.00
C363   C     0.87696   0.49403   0.04589   0.00000  Uiso   1.00
C364   C     0.75045   0.44810   0.46364   0.00000  Uiso   1.00
C365   C     0.93910   0.51968   0.02947   0.00000  Uiso   1.00
C366   C     0.85372   0.49625   0.47399   0.00000  Uiso   1.00
C367   C     0.83724   0.47591   0.01662   0.00000  Uiso   1.00
C368   C     0.99190   0.58068   0.31047   0.00000  Uiso   1.00
C369   C     0.98068   0.63677   0.31301   0.00000  Uiso   1.00
C370   C     0.91904   0.64246   0.34513   0.00000  Uiso   1.00
C371   C     0.99421   0.40810   0.20392   0.00000  Uiso   1.00
C372   C     0.70760   0.38964   0.16550   0.00000  Uiso   1.00
C373   C     0.78483   0.43449   0.02715   0.00000  Uiso   1.00
C374   C     0.69729   0.66337   0.16245   0.00000  Uiso   1.00
C375   C     0.91717   0.52379   0.45938   0.00000  Uiso   1.00
C376   C     0.74068   0.42306   0.00220   0.00000  Uiso   1.00
C377   C     0.95869   0.53311   0.48653   0.00000  Uiso   1.00
C378   C     0.85427   0.65563   0.25535   0.00000  Uiso   1.00
C379   C     0.81019   0.34417   0.24769   0.00000  Uiso   1.00
C380   C     0.79513   0.49599   0.33314   0.00000  Uiso   1.00
Cl381  Cl    0.68782   0.53789   0.12951   0.00000  Uiso   1.00
Cl382  Cl    0.99266   0.42821   0.36739   0.00000  Uiso   1.00
Cl383  Cl    0.78333   0.38520   0.06173   0.00000  Uiso   1.00
Cl384  Cl    0.95536   0.54164   0.40668   0.00000  Uiso   1.00
Cu385  Cu    0.77404   0.49441   0.24516   0.00000  Uiso   1.00
Cu386  Cu    0.89263   0.50559   0.25483   0.00000  Uiso   1.00
H387   H     0.70030   0.39162   0.01155   0.00000  Uiso   1.00
H388   H     0.94931   0.55448   0.32799   0.00000  Uiso   1.00
H389   H     0.68691   0.66436   0.32316   0.00000  Uiso   1.00
H390   H     0.97984   0.64842   0.28051   0.00000  Uiso   1.00
H391   H     0.87948   0.61152   0.33883   0.00000  Uiso   1.00
H392   H     0.90751   0.34732   0.34159   0.00000  Uiso   1.00
H393   H     0.92315   0.63997   0.37896   0.00000  Uiso   1.00
H394   H     0.94728   0.38869   0.19910   0.00000  Uiso   1.00
H395   H     0.99836   0.39480   0.23518   0.00000  Uiso   1.00
H396   H     0.70060   0.40372   0.13555   0.00000  Uiso   1.00
H397   H     0.75630   0.40601   0.16824   0.00000  Uiso   1.00
H398   H     0.67381   0.55220   0.47404   0.00000  Uiso   1.00
H399   H     0.69834   0.64792   0.19356   0.00000  Uiso   1.00
H400   H     0.73495   0.65104   0.13643   0.00000  Uiso   1.00
H401   H     0.98460   0.64633   0.15464   0.00000  Uiso   1.00
H402   H     0.80619   0.47688   0.10543   0.00000  Uiso   1.00
H403   H     0.85124   0.53815   0.39580   0.00000  Uiso   1.00
H404   H     0.99493   0.40679   0.45137   0.00000  Uiso   1.00
H405   H     0.69713   0.54853   0.04253   0.00000  Uiso   1.00
H406   H     0.89585   0.34563   0.26414   0.00000  Uiso   1.00
H407   H     0.76784   0.65415   0.23984   0.00000  Uiso   1.00
H408   H     0.69653   0.58036   0.32713   0.00000  Uiso   1.00
N409   N     0.98173   0.51401   0.26212   0.00000  Uiso   1.00
N410   N     0.68494   0.48599   0.23788   0.00000  Uiso   1.00
O411   O     0.79482   0.57142   0.24686   0.00000  Uiso   1.00
O412   O     0.99826   0.46243   0.20300   0.00000  Uiso   1.00
O413   O     0.87185   0.42858   0.25314   0.00000  Uiso   1.00
O414   O     0.89496   0.58086   0.25502   0.00000  Uiso   1.00
O415   O     0.77171   0.41914   0.24497   0.00000  Uiso   1.00
O416   O     0.75518   0.49263   0.30854   0.00000  Uiso   1.00
O417   O     0.91149   0.50737   0.19145   0.00000  Uiso   1.00
O418   O     0.85532   0.50207   0.31671   0.00000  Uiso   1.00
O419   O     0.81134   0.49793   0.18329   0.00000  Uiso   1.00
O420   O     0.67825   0.56383   0.26698   0.00000  Uiso   1.00
C421   C     0.18098   0.93321   0.25218   0.00000  Uiso   1.00
C422   C     0.20525   0.83648   0.16686   0.00000  Uiso   1.00
C423   C     0.10630   0.81972   0.38032   0.00000  Uiso   1.00
C424   C     0.23042   0.83887   0.11913   0.00000  Uiso   1.00
C425   C     0.03837   0.76737   0.43900   0.00000  Uiso   1.00
C426   C     0.31489   0.86517   0.05612   0.00000  Uiso   1.00
C427   C     0.04976   0.78526   0.39732   0.00000  Uiso   1.00
C428   C     0.29510   0.85682   0.10036   0.00000  Uiso   1.00
C429   C     0.14784   0.83909   0.40748   0.00000  Uiso   1.00
C430   C     0.18893   0.82355   0.09137   0.00000  Uiso   1.00
C431   C     0.14067   0.81753   0.44813   0.00000  Uiso   1.00
C432   C     0.15168   0.73341   0.24890   0.00000  Uiso   1.00
C433   C     0.21030   0.82736   0.04589   0.00000  Uiso   1.00
C434   C     0.08379   0.78143   0.46364   0.00000  Uiso   1.00
C435   C     0.27243   0.85302   0.02947   0.00000  Uiso   1.00
C436   C     0.18705   0.82958   0.47399   0.00000  Uiso   1.00
C437   C     0.17057   0.80924   0.01662   0.00000  Uiso   1.00
C438   C     0.32523   0.91402   0.31047   0.00000  Uiso   1.00
C439   C     0.31402   0.97010   0.31301   0.00000  Uiso   1.00
C440   C     0.25238   0.97579   0.34513   0.00000  Uiso   1.00
C441   C     0.32755   0.74143   0.20392   0.00000  Uiso   1.00
C442   C     0.04093   0.72297   0.16550   0.00000  Uiso   1.00
C443   C     0.11817   0.76782   0.02715   0.00000  Uiso   1.00
C444   C     0.03062   0.99670   0.16245   0.00000  Uiso   1.00
C445   C     0.25050   0.85712   0.45938   0.00000  Uiso   1.00
C446   C     0.07402   0.75640   0.00220   0.00000  Uiso   1.00
C447   C     0.29202   0.86645   0.48653   0.00000  Uiso   1.00
C448   C     0.18761   0.98896   0.25535   0.00000  Uiso   1.00
C449   C     0.14352   0.67750   0.24769   0.00000  Uiso   1.00
C450   C     0.12847   0.82932   0.33314   0.00000  Uiso   1.00
Cl451  Cl    0.02115   0.87123   0.12951   0.00000  Uiso   1.00
Cl452  Cl    0.32599   0.76154   0.36739   0.00000  Uiso   1.00
Cl453  Cl    0.11666   0.71853   0.06173   0.00000  Uiso   1.00
Cl454  Cl    0.28870   0.87497   0.40668   0.00000  Uiso   1.00
Cu455  Cu    0.10737   0.82775   0.24516   0.00000  Uiso   1.00
Cu456  Cu    0.22596   0.83892   0.25483   0.00000  Uiso   1.00
H457   H     0.03363   0.72496   0.01155   0.00000  Uiso   1.00
H458   H     0.28265   0.88782   0.32799   0.00000  Uiso   1.00
H459   H     0.02024   0.99769   0.32316   0.00000  Uiso   1.00
H460   H     0.31318   0.98176   0.28051   0.00000  Uiso   1.00
H461   H     0.21281   0.94485   0.33883   0.00000  Uiso   1.00
H462   H     0.24084   0.68065   0.34159   0.00000  Uiso   1.00
H463   H     0.25648   0.97331   0.37896   0.00000  Uiso   1.00
H464   H     0.28061   0.72202   0.19910   0.00000  Uiso   1.00
H465   H     0.33169   0.72814   0.23518   0.00000  Uiso   1.00
H466   H     0.03393   0.73706   0.13555   0.00000  Uiso   1.00
H467   H     0.08963   0.73935   0.16824   0.00000  Uiso   1.00
H468   H     0.00714   0.88554   0.47404   0.00000  Uiso   1.00
H469   H     0.03167   0.98125   0.19356   0.00000  Uiso   1.00
H470   H     0.06828   0.98437   0.13643   0.00000  Uiso   1.00
H471   H     0.31793   0.97967   0.15464   0.00000  Uiso   1.00
H472   H     0.13952   0.81021   0.10543   0.00000  Uiso   1.00
H473   H     0.18457   0.87148   0.39580   0.00000  Uiso   1.00
H474   H     0.32826   0.74012   0.45137   0.00000  Uiso   1.00
H475   H     0.03046   0.88186   0.04253   0.00000  Uiso   1.00
H476   H     0.22918   0.67896   0.26414   0.00000  Uiso   1.00
H477   H     0.10117   0.98749   0.23984   0.00000  Uiso   1.00
H478   H     0.02986   0.91370   0.32713   0.00000  Uiso   1.00
N479   N     0.31506   0.84735   0.26212   0.00000  Uiso   1.00
N480   N     0.01827   0.81932   0.23788   0.00000  Uiso   1.00
O481   O     0.12815   0.90476   0.24686   0.00000  Uiso   1.00
O482   O     0.33160   0.79576   0.20300   0.00000  Uiso   1.00
O483   O     0.20518   0.76191   0.25314   0.00000  Uiso   1.00
O484   O     0.22829   0.91420   0.25502   0.00000  Uiso   1.00
O485   O     0.10504   0.75247   0.24497   0.00000  Uiso   1.00
O486   O     0.08851   0.82597   0.30854   0.00000  Uiso   1.00
O487   O     0.24482   0.84070   0.19145   0.00000  Uiso   1.00
O488   O     0.18866   0.83540   0.31671   0.00000  Uiso   1.00
O489   O     0.14468   0.83126   0.18329   0.00000  Uiso   1.00
O490   O     0.01158   0.89716   0.26698   0.00000  Uiso   1.00
C491   C     0.51432   0.93321   0.25218   0.00000  Uiso   1.00
C492   C     0.53859   0.83648   0.16686   0.00000  Uiso   1.00
C493   C     0.43963   0.81972   0.38032   0.00000  Uiso   1.00
C494   C     0.56375   0.83887   0.11913   0.00000  Uiso   1.00
C495   C     0.37171   0.76737   0.43900   0.00000  Uiso   1.00
C496   C     0.64822   0.86517   0.05612   0.00000  Uiso   1.00
C497   C     0.38309   0.78526   0.39732   0.00000  Uiso   1.00
C498   C     0.62843   0.85682   0.10036   0.00000  Uiso   1.00
C499   C     0.48118   0.83909   0.40748   0.00000  Uiso   1.00
C500   C     0.52226   0.82355   0.09137   0.00000  Uiso   1.00
C501   C     0.47401   0.81753   0.44813   0.00000  Uiso   1.00
C502   C     0.48502   0.73341   0.24890   0.00000  Uiso   1.00
C503   C     0.54363   0.82736   0.04589   0.00000  Uiso   1.00
C504   C     0.41712   0.78143   0.46364   0.00000  Uiso   1.00
C505   C     0.60576   0.85302   0.02947   0.00000  Uiso   1.00
C506   C     0.52038   0.82958   0.47399   0.00000  Uiso   1.00
C507   C     0.50390   0.80924   0.01662   0.00000  Uiso   1.00
C508   C     0.65856   0.91402   0.31047   0.00000  Uiso   1.00
C509   C     0.64735   0.97010   0.31301   0.00000  Uiso   1.00
C510   C     0.58571   0.97579   0.34513   0.00000  Uiso   1.00
C511   C     0.66088   0.74143   0.20392   0.00000  Uiso   1.00
C512   C     0.37427   0.72297   0.16550   0.00000  Uiso   1.00
C513   C     0.45150   0.76782   0.02715   0.00000  Uiso   1.00
C514   C     0.36395   0.99670   0.16245   0.00000  Uiso   1.00
C515   C     0.58383   0.85712   0.45938   0.00000  Uiso   1.00
C516   C     0.40735   0.75640   0.00220   0.00000  Uiso   1.00
C517   C     0.62536   0.86645   0.48653   0.00000  Uiso   1.00
C518   C     0.52094   0.98896   0.25535   0.00000  Uiso   1.00
C519   C     0.47686   0.67750   0.24769   0.00000  Uiso   1.00
C520   C     0.46180   0.82932   0.33314   0.00000  Uiso   1.00
Cl521  Cl    0.35448   0.87123   0.12951   0.00000  Uiso   1.00
Cl522  Cl    0.65932   0.76154   0.36739   0.00000  Uiso   1.00
Cl523  Cl    0.44999   0.71853   0.06173   0.00000  Uiso   1.00
Cl524  Cl    0.62203   0.87497   0.40668   0.00000  Uiso   1.00
Cu525  Cu    0.44071   0.82775   0.24516   0.00000  Uiso   1.00
Cu526  Cu    0.55929   0.83892   0.25483   0.00000  Uiso   1.00
H527   H     0.36696   0.72496   0.01155   0.00000  Uiso   1.00
H528   H     0.61598   0.88782   0.32799   0.00000  Uiso   1.00
H529   H     0.35358   0.99769   0.32316   0.00000  Uiso   1.00
H530   H     0.64651   0.98176   0.28051   0.00000  Uiso   1.00
H531   H     0.54614   0.94485   0.33883   0.00000  Uiso   1.00
H532   H     0.57417   0.68065   0.34159   0.00000  Uiso   1.00
H533   H     0.58981   0.97331   0.37896   0.00000  Uiso   1.00
H534   H     0.61395   0.72202   0.19910   0.00000  Uiso   1.00
H535   H     0.66502   0.72814   0.23518   0.00000  Uiso   1.00
H536   H     0.36726   0.73706   0.13555   0.00000  Uiso   1.00
H537   H     0.42296   0.73935   0.16824   0.00000  Uiso   1.00
H538   H     0.34048   0.88554   0.47404   0.00000  Uiso   1.00
H539   H     0.36501   0.98125   0.19356   0.00000  Uiso   1.00
H540   H     0.40161   0.98437   0.13643   0.00000  Uiso   1.00
H541   H     0.65126   0.97967   0.15464   0.00000  Uiso   1.00
H542   H     0.47286   0.81021   0.10543   0.00000  Uiso   1.00
H543   H     0.51791   0.87148   0.39580   0.00000  Uiso   1.00
H544   H     0.66159   0.74012   0.45137   0.00000  Uiso   1.00
H545   H     0.36379   0.88186   0.04253   0.00000  Uiso   1.00
H546   H     0.56252   0.67896   0.26414   0.00000  Uiso   1.00
H547   H     0.43450   0.98749   0.23984   0.00000  Uiso   1.00
H548   H     0.36320   0.91370   0.32713   0.00000  Uiso   1.00
N549   N     0.64839   0.84735   0.26212   0.00000  Uiso   1.00
N550   N     0.35161   0.81932   0.23788   0.00000  Uiso   1.00
O551   O     0.46148   0.90476   0.24686   0.00000  Uiso   1.00
O552   O     0.66493   0.79576   0.20300   0.00000  Uiso   1.00
O553   O     0.53852   0.76191   0.25314   0.00000  Uiso   1.00
O554   O     0.56163   0.91420   0.25502   0.00000  Uiso   1.00
O555   O     0.43837   0.75247   0.24497   0.00000  Uiso   1.00
O556   O     0.42185   0.82597   0.30854   0.00000  Uiso   1.00
O557   O     0.57815   0.84070   0.19145   0.00000  Uiso   1.00
O558   O     0.52199   0.83540   0.31671   0.00000  Uiso   1.00
O559   O     0.47801   0.83126   0.18329   0.00000  Uiso   1.00
O560   O     0.34492   0.89716   0.26698   0.00000  Uiso   1.00
C561   C     0.84765   0.93321   0.25218   0.00000  Uiso   1.00
C562   C     0.87192   0.83648   0.16686   0.00000  Uiso   1.00
C563   C     0.77296   0.81972   0.38032   0.00000  Uiso   1.00
C564   C     0.89708   0.83887   0.11913   0.00000  Uiso   1.00
C565   C     0.70504   0.76737   0.43900   0.00000  Uiso   1.00
C566   C     0.98156   0.86517   0.05612   0.00000  Uiso   1.00
C567   C     0.71643   0.78526   0.39732   0.00000  Uiso   1.00
C568   C     0.96177   0.85682   0.10036   0.00000  Uiso   1.00
C569   C     0.81451   0.83909   0.40748   0.00000  Uiso   1.00
C570   C     0.85560   0.82355   0.09137   0.00000  Uiso   1.00
C571   C     0.80734   0.81753   0.44813   0.00000  Uiso   1.00
C572   C     0.81835   0.73341   0.24890   0.00000  Uiso   1.00
C573   C     0.87696   0.82736   0.04589   0.00000  Uiso   1.00
C574   C     0.75045   0.78143   0.46364   0.00000  Uiso   1.00
C575   C     0.93910   0.85302   0.02947   0.00000  Uiso   1.00
C576   C     0.85372   0.82958   0.47399   0.00000  Uiso   1.00
C577   C     0.83724   0.80924   0.01662   0.00000  Uiso   1.00
C578   C     0.99190   0.91402   0.31047   0.00000  Uiso   1.00
C579   C     0.98068   0.97010   0.31301   0.00000  Uiso   1.00
C580   C     0.91904   0.97579   0.34513   0.00000  Uiso   1.00
C581   C     0.99421   0.74143   0.20392   0.00000  Uiso   1.00
C582   C     0.70760   0.72297   0.16550   0.00000  Uiso   1.00
C583   C     0.78483   0.76782   0.02715   0.00000  Uiso   1.00
C584   C     0.69729   0.99670   0.16245   0.00000  Uiso   1.00
C585   C     0.91717   0.85712   0.45938   0.00000  Uiso   1.00
C586   C     0.74068   0.75640   0.00220   0.00000  Uiso   1.00
C587   C     0.95869   0.86645   0.48653   0.00000  Uiso   1.00
C588   C     0.85427   0.98896   0.25535   0.00000  Uiso   1.00
C589   C     0.81019   0.67750   0.24769   0.00000  Uiso   1.00
C590   C     0.79513   0.82932   0.33314   0.00000  Uiso   1.00
Cl591  Cl    0.68782   0.87123   0.12951   0.00000  Uiso   1.00
Cl592  Cl    0.99266   0.76154   0.36739   0.00000  Uiso   1.00
Cl593  Cl    0.78333   0.71853   0.06173   0.00000  Uiso   1.00
Cl594  Cl    0.95536   0.87497   0.40668   0.00000  Uiso   1.00
Cu595  Cu    0.77404   0.82775   0.24516   0.00000  Uiso   1.00
Cu596  Cu    0.89263   0.83892   0.25483   0.00000  Uiso   1.00
H597   H     0.70030   0.72496   0.01155   0.00000  Uiso   1.00
H598   H     0.94931   0.88782   0.32799   0.00000  Uiso   1.00
H599   H     0.68691   0.99769   0.32316   0.00000  Uiso   1.00
H600   H     0.97984   0.98176   0.28051   0.00000  Uiso   1.00
H601   H     0.87948   0.94485   0.33883   0.00000  Uiso   1.00
H602   H     0.90751   0.68065   0.34159   0.00000  Uiso   1.00
H603   H     0.92315   0.97331   0.37896   0.00000  Uiso   1.00
H604   H     0.94728   0.72202   0.19910   0.00000  Uiso   1.00
H605   H     0.99836   0.72814   0.23518   0.00000  Uiso   1.00
H606   H     0.70060   0.73706   0.13555   0.00000  Uiso   1.00
H607   H     0.75630   0.73935   0.16824   0.00000  Uiso   1.00
H608   H     0.67381   0.88554   0.47404   0.00000  Uiso   1.00
H609   H     0.69834   0.98125   0.19356   0.00000  Uiso   1.00
H610   H     0.73495   0.98437   0.13643   0.00000  Uiso   1.00
H611   H     0.98460   0.97967   0.15464   0.00000  Uiso   1.00
H612   H     0.80619   0.81021   0.10543   0.00000  Uiso   1.00
H613   H     0.85124   0.87148   0.39580   0.00000  Uiso   1.00
H614   H     0.99493   0.74012   0.45137   0.00000  Uiso   1.00
H615   H     0.69713   0.88186   0.04253   0.00000  Uiso   1.00
H616   H     0.89585   0.67896   0.26414   0.00000  Uiso   1.00
H617   H     0.76784   0.98749   0.23984   0.00000  Uiso   1.00
H618   H     0.69653   0.91370   0.32713   0.00000  Uiso   1.00
N619   N     0.98173   0.84735   0.26212   0.00000  Uiso   1.00
N620   N     0.68494   0.81932   0.23788   0.00000  Uiso   1.00
O621   O     0.79482   0.90476   0.24686   0.00000  Uiso   1.00
O622   O     0.99826   0.79576   0.20300   0.00000  Uiso   1.00
O623   O     0.87185   0.76191   0.25314   0.00000  Uiso   1.00
O624   O     0.89496   0.91420   0.25502   0.00000  Uiso   1.00
O625   O     0.77171   0.75247   0.24497   0.00000  Uiso   1.00
O626   O     0.75518   0.82597   0.30854   0.00000  Uiso   1.00
O627   O     0.91149   0.84070   0.19145   0.00000  Uiso   1.00
O628   O     0.85532   0.83540   0.31671   0.00000  Uiso   1.00
O629   O     0.81134   0.83126   0.18329   0.00000  Uiso   1.00
O630   O     0.67825   0.89716   0.26698   0.00000  Uiso   1.00
C631   C     0.18098   0.26654   0.75218   0.00000  Uiso   1.00
C632   C     0.20525   0.16981   0.66686   0.00000  Uiso   1.00
C633   C     0.10630   0.15306   0.88032   0.00000  Uiso   1.00
C634   C     0.23042   0.17220   0.61913   0.00000  Uiso   1.00
C635   C     0.03837   0.10071   0.93900   0.00000  Uiso   1.00
C636   C     0.31489   0.19850   0.55612   0.00000  Uiso   1.00
C637   C     0.04976   0.11859   0.89732   0.00000  Uiso   1.00
C638   C     0.29510   0.19015   0.60036   0.00000  Uiso   1.00
C639   C     0.14784   0.17242   0.90748   0.00000  Uiso   1.00
C640   C     0.18893   0.15688   0.59137   0.00000  Uiso   1.00
C641   C     0.14067   0.15087   0.94813   0.00000  Uiso   1.00
C642   C     0.15168   0.06674   0.74890   0.00000  Uiso   1.00
C643   C     0.21030   0.16070   0.54589   0.00000  Uiso   1.00
C644   C     0.08379   0.11476   0.96364   0.00000  Uiso   1.00
C645   C     0.27243   0.18635   0.52947   0.00000  Uiso   1.00
C646   C     0.18705   0.16291   0.97399   0.00000  Uiso   1.00
C647   C     0.17057   0.14258   0.51662   0.00000  Uiso   1.00
C648   C     0.32523   0.24735   0.81047   0.00000  Uiso   1.00
C649   C     0.31402   0.30344   0.81301   0.00000  Uiso   1.00
C650   C     0.25238   0.30913   0.84513   0.00000  Uiso   1.00
C651   C     0.32755   0.07477   0.70392   0.00000  Uiso   1.00
C652   C     0.04093   0.05630   0.66550   0.00000  Uiso   1.00
C653   C     0.11817   0.10115   0.52715   0.00000  Uiso   1.00
C654   C     0.03062   0.33004   0.66245   0.00000  Uiso   1.00
C655   C     0.25050   0.19045   0.95938   0.00000  Uiso   1.00
C656   C     0.07402   0.08973   0.50220   0.00000  Uiso   1.00
C657   C     0.29202   0.19978   0.98653   0.00000  Uiso   1.00
C658   C     0.18761   0.32230   0.75535   0.00000  Uiso   1.00
C659   C     0.14352   0.01084   0.74769   0.00000  Uiso   1.00
C660   C     0.12847   0.16265   0.83314   0.00000  Uiso   1.00
Cl661  Cl    0.02115   0.20456   0.62951   0.00000  Uiso   1.00
Cl662  Cl    0.32599   0.09488   0.86739   0.00000  Uiso   1.00
Cl663  Cl    0.11666   0.05187   0.56173   0.00000  Uiso   1.00
Cl664  Cl    0.28870   0.20830   0.90668   0.00000  Uiso   1.00
Cu665  Cu    0.10737   0.16108   0.74516   0.00000  Uiso   1.00
Cu666  Cu    0.22596   0.17225   0.75483   0.00000  Uiso   1.00
H667   H     0.03363   0.05829   0.51155   0.00000  Uiso   1.00
H668   H     0.28265   0.22115   0.82799   0.00000  Uiso   1.00
H669   H     0.02024   0.33102   0.82316   0.00000  Uiso   1.00
H670   H     0.31318   0.31509   0.78051   0.00000  Uiso   1.00
H671   H     0.21281   0.27818   0.83883   0.00000  Uiso   1.00
H672   H     0.24084   0.01398   0.84159   0.00000  Uiso   1.00
H673   H     0.25648   0.30664   0.87896   0.00000  Uiso   1.00
H674   H     0.28061   0.05535   0.69910   0.00000  Uiso   1.00
H675   H     0.33169   0.06147   0.73518   0.00000  Uiso   1.00
H676   H     0.03393   0.07039   0.63555   0.00000  Uiso   1.00
H677   H     0.08963   0.07268   0.66824   0.00000  Uiso   1.00
H678   H     0.00714   0.21887   0.97404   0.00000  Uiso   1.00
H679   H     0.03167   0.31459   0.69356   0.00000  Uiso   1.00
H680   H     0.06828   0.31770   0.63643   0.00000  Uiso   1.00
H681   H     0.31793   0.31300   0.65464   0.00000  Uiso   1.00
H682   H     0.13952   0.14354   0.60543   0.00000  Uiso   1.00
H683   H     0.18457   0.20482   0.89580   0.00000  Uiso   1.00
H684   H     0.32826   0.07346   0.95137   0.00000  Uiso   1.00
H685   H     0.03046   0.21520   0.54253   0.00000  Uiso   1.00
H686   H     0.22918   0.01230   0.76414   0.00000  Uiso   1.00
H687   H     0.10117   0.32082   0.73984   0.00000  Uiso   1.00
H688   H     0.02986   0.24703   0.82713   0.00000  Uiso   1.00
N689   N     0.31506   0.18068   0.76212   0.00000  Uiso   1.00
N690   N     0.01827   0.15265   0.73788   0.00000  Uiso   1.00
O691   O     0.12815   0.23809   0.74686   0.00000  Uiso   1.00
O692   O     0.33160   0.12910   0.70300   0.00000  Uiso   1.00
O693   O     0.20518   0.09524   0.75314   0.00000  Uiso   1.00
O694   O     0.22829   0.24753   0.75502   0.00000  Uiso   1.00
O695   O     0.10504   0.08580   0.74497   0.00000  Uiso   1.00
O696   O     0.08851   0.15930   0.80854   0.00000  Uiso   1.00
O697   O     0.24482   0.17403   0.69145   0.00000  Uiso   1.00
O698   O     0.18866   0.16874   0.81671   0.00000  Uiso   1.00
O699   O     0.14468   0.16460   0.68329   0.00000  Uiso   1.00
O700   O     0.01158   0.23050   0.76698   0.00000  Uiso   1.00
C701   C     0.51432   0.26654   0.75218   0.00000  Uiso   1.00
C702   C     0.53859   0.16981   0.66686   0.00000  Uiso   1.00
C703   C     0.43963   0.15306   0.88032   0.00000  Uiso   1.00
C704   C     0.56375   0.17220   0.61913   0.00000  Uiso   1.00
C705   C     0.37171   0.10071   0.93900   0.00000  Uiso   1.00
C706   C     0.64822   0.19850   0.55612   0.00000  Uiso   1.00
C707   C     0.38309   0.11859   0.89732   0.00000  Uiso   1.00
C708   C     0.62843   0.19015   0.60036   0.00000  Uiso   1.00
C709   C     0.48118   0.17242   0.90748   0.00000  Uiso   1.00
C710   C     0.52226   0.15688   0.59137   0.00000  Uiso   1.00
C711   C     0.47401   0.15087   0.94813   0.00000  Uiso   1.00
C712   C     0.48502   0.06674   0.74890   0.00000  Uiso   1.00
C713   C     0.54363   0.16070   0.54589   0.00000  Uiso   1.00
C714   C     0.41712   0.11476   0.96364   0.00000  Uiso   1.00
C715   C     0.60576   0.18635   0.52947   0.00000  Uiso   1.00
C716   C     0.52038   0.16291   0.97399   0.00000  Uiso   1.00
C717   C     0.50390   0.14258   0.51662   0.00000  Uiso   1.00
C718   C     0.65856   0.24735   0.81047   0.00000  Uiso   1.00
C719   C     0.64735   0.30344   0.81301   0.00000  Uiso   1.00
C720   C     0.58571   0.30913   0.84513   0.00000  Uiso   1.00
C721   C     0.66088   0.07477   0.70392   0.00000  Uiso   1.00
C722   C     0.37427   0.05630   0.66550   0.00000  Uiso   1.00
C723   C     0.45150   0.10115   0.52715   0.00000  Uiso   1.00
C724   C     0.36395   0.33004   0.66245   0.00000  Uiso   1.00
C725   C     0.58383   0.19045   0.95938   0.00000  Uiso   1.00
C726   C     0.40735   0.08973   0.50220   0.00000  Uiso   1.00
C727   C     0.62536   0.19978   0.98653   0.00000  Uiso   1.00
C728   C     0.52094   0.32230   0.75535   0.00000  Uiso   1.00
C729   C     0.47686   0.01084   0.74769   0.00000  Uiso   1.00
C730   C     0.46180   0.16265   0.83314   0.00000  Uiso   1.00
Cl731  Cl    0.35448   0.20456   0.62951   0.00000  Uiso   1.00
Cl732  Cl    0.65932   0.09488   0.86739   0.00000  Uiso   1.00
Cl733  Cl    0.44999   0.05187   0.56173   0.00000  Uiso   1.00
Cl734  Cl    0.62203   0.20830   0.90668   0.00000  Uiso   1.00
Cu735  Cu    0.44071   0.16108   0.74516   0.00000  Uiso   1.00
Cu736  Cu    0.55929   0.17225   0.75483   0.00000  Uiso   1.00
H737   H     0.36696   0.05829   0.51155   0.00000  Uiso   1.00
H738   H     0.61598   0.22115   0.82799   0.00000  Uiso   1.00
H739   H     0.35358   0.33102   0.82316   0.00000  Uiso   1.00
H740   H     0.64651   0.31509   0.78051   0.00000  Uiso   1.00
H741   H     0.54614   0.27818   0.83883   0.00000  Uiso   1.00
H742   H     0.57417   0.01398   0.84159   0.00000  Uiso   1.00
H743   H     0.58981   0.30664   0.87896   0.00000  Uiso   1.00
H744   H     0.61395   0.05535   0.69910   0.00000  Uiso   1.00
H745   H     0.66502   0.06147   0.73518   0.00000  Uiso   1.00
H746   H     0.36726   0.07039   0.63555   0.00000  Uiso   1.00
H747   H     0.42296   0.07268   0.66824   0.00000  Uiso   1.00
H748   H     0.34048   0.21887   0.97404   0.00000  Uiso   1.00
H749   H     0.36501   0.31459   0.69356   0.00000  Uiso   1.00
H750   H     0.40161   0.31770   0.63643   0.00000  Uiso   1.00
H751   H     0.65126   0.31300   0.65464   0.00000  Uiso   1.00
H752   H     0.47286   0.14354   0.60543   0.00000  Uiso   1.00
H753   H     0.51791   0.20482   0.89580   0.00000  Uiso   1.00
H754   H     0.66159   0.07346   0.95137   0.00000  Uiso   1.00
H755   H     0.36379   0.21520   0.54253   0.00000  Uiso   1.00
H756   H     0.56252   0.01230   0.76414   0.00000  Uiso   1.00
H757   H     0.43450   0.32082   0.73984   0.00000  Uiso   1.00
H758   H     0.36320   0.24703   0.82713   0.00000  Uiso   1.00
N759   N     0.64839   0.18068   0.76212   0.00000  Uiso   1.00
N760   N     0.35161   0.15265   0.73788   0.00000  Uiso   1.00
O761   O     0.46148   0.23809   0.74686   0.00000  Uiso   1.00
O762   O     0.66493   0.12910   0.70300   0.00000  Uiso   1.00
O763   O     0.53852   0.09524   0.75314   0.00000  Uiso   1.00
O764   O     0.56163   0.24753   0.75502   0.00000  Uiso   1.00
O765   O     0.43837   0.08580   0.74497   0.00000  Uiso   1.00
O766   O     0.42185   0.15930   0.80854   0.00000  Uiso   1.00
O767   O     0.57815   0.17403   0.69145   0.00000  Uiso   1.00
O768   O     0.52199   0.16874   0.81671   0.00000  Uiso   1.00
O769   O     0.47801   0.16460   0.68329   0.00000  Uiso   1.00
O770   O     0.34492   0.23050   0.76698   0.00000  Uiso   1.00
C771   C     0.84765   0.26654   0.75218   0.00000  Uiso   1.00
C772   C     0.87192   0.16981   0.66686   0.00000  Uiso   1.00
C773   C     0.77296   0.15306   0.88032   0.00000  Uiso   1.00
C774   C     0.89708   0.17220   0.61913   0.00000  Uiso   1.00
C775   C     0.70504   0.10071   0.93900   0.00000  Uiso   1.00
C776   C     0.98156   0.19850   0.55612   0.00000  Uiso   1.00
C777   C     0.71643   0.11859   0.89732   0.00000  Uiso   1.00
C778   C     0.96177   0.19015   0.60036   0.00000  Uiso   1.00
C779   C     0.81451   0.17242   0.90748   0.00000  Uiso   1.00
C780   C     0.85560   0.15688   0.59137   0.00000  Uiso   1.00
C781   C     0.80734   0.15087   0.94813   0.00000  Uiso   1.00
C782   C     0.81835   0.06674   0.74890   0.00000  Uiso   1.00
C783   C     0.87696   0.16070   0.54589   0.00000  Uiso   1.00
C784   C     0.75045   0.11476   0.96364   0.00000  Uiso   1.00
C785   C     0.93910   0.18635   0.52947   0.00000  Uiso   1.00
C786   C     0.85372   0.16291   0.97399   0.00000  Uiso   1.00
C787   C     0.83724   0.14258   0.51662   0.00000  Uiso   1.00
C788   C     0.99190   0.24735   0.81047   0.00000  Uiso   1.00
C789   C     0.98068   0.30344   0.81301   0.00000  Uiso   1.00
C790   C     0.91904   0.30913   0.84513   0.00000  Uiso   1.00
C791   C     0.99421   0.07477   0.70392   0.00000  Uiso   1.00
C792   C     0.70760   0.05630   0.66550   0.00000  Uiso   1.00
C793   C     0.78483   0.10115   0.52715   0.00000  Uiso   1.00
C794   C     0.69729   0.33004   0.66245   0.00000  Uiso   1.00
C795   C     0.91717   0.19045   0.95938   0.00000  Uiso   1.00
C796   C     0.74068   0.08973   0.50220   0.00000  Uiso   1.00
C797   C     0.95869   0.19978   0.98653   0.00000  Uiso   1.00
C798   C     0.85427   0.32230   0.75535   0.00000  Uiso   1.00
C799   C     0.81019   0.01084   0.74769   0.00000  Uiso   1.00
C800   C     0.79513   0.16265   0.83314   0.00000  Uiso   1.00
Cl801  Cl    0.68782   0.20456   0.62951   0.00000  Uiso   1.00
Cl802  Cl    0.99266   0.09488   0.86739   0.00000  Uiso   1.00
Cl803  Cl    0.78333   0.05187   0.56173   0.00000  Uiso   1.00
Cl804  Cl    0.95536   0.20830   0.90668   0.00000  Uiso   1.00
Cu805  Cu    0.77404   0.16108   0.74516   0.00000  Uiso   1.00
Cu806  Cu    0.89263   0.17225   0.75483   0.00000  Uiso   1.00
H807   H     0.70030   0.05829   0.51155   0.00000  Uiso   1.00
H808   H     0.94931   0.22115   0.82799   0.00000  Uiso   1.00
H809   H     0.68691   0.33102   0.82316   0.00000  Uiso   1.00
H810   H     0.97984   0.31509   0.78051   0.00000  Uiso   1.00
H811   H     0.87948   0.27818   0.83883   0.00000  Uiso   1.00
H812   H     0.90751   0.01398   0.84159   0.00000  Uiso   1.00
H813   H     0.92315   0.30664   0.87896   0.00000  Uiso   1.00
H814   H     0.94728   0.05535   0.69910   0.00000  Uiso   1.00
H815   H     0.99836   0.06147   0.73518   0.00000  Uiso   1.00
H816   H     0.70060   0.07039   0.63555   0.00000  Uiso   1.00
H817   H     0.75630   0.07268   0.66824   0.00000  Uiso   1.00
H818   H     0.67381   0.21887   0.97404   0.00000  Uiso   1.00
H819   H     0.69834   0.31459   0.69356   0.00000  Uiso   1.00
H820   H     0.73495   0.31770   0.63643   0.00000  Uiso   1.00
H821   H     0.98460   0.31300   0.65464   0.00000  Uiso   1.00
H822   H     0.80619   0.14354   0.60543   0.00000  Uiso   1.00
H823   H     0.85124   0.20482   0.89580   0.00000  Uiso   1.00
H824   H     0.99493   0.07346   0.95137   0.00000  Uiso   1.00
H825   H     0.69713   0.21520   0.54253   0.00000  Uiso   1.00
H826   H     0.89585   0.01230   0.76414   0.00000  Uiso   1.00
H827   H     0.76784   0.32082   0.73984   0.00000  Uiso   1.00
H828   H     0.69653   0.24703   0.82713   0.00000  Uiso   1.00
N829   N     0.98173   0.18068   0.76212   0.00000  Uiso   1.00
N830   N     0.68494   0.15265   0.73788   0.00000  Uiso   1.00
O831   O     0.79482   0.23809   0.74686   0.00000  Uiso   1.00
O832   O     0.99826   0.12910   0.70300   0.00000  Uiso   1.00
O833   O     0.87185   0.09524   0.75314   0.00000  Uiso   1.00
O834   O     0.89496   0.24753   0.75502   0.00000  Uiso   1.00
O835   O     0.77171   0.08580   0.74497   0.00000  Uiso   1.00
O836   O     0.75518   0.15930   0.80854   0.00000  Uiso   1.00
O837   O     0.91149   0.17403   0.69145   0.00000  Uiso   1.00
O838   O     0.85532   0.16874   0.81671   0.00000  Uiso   1.00
O839   O     0.81134   0.16460   0.68329   0.00000  Uiso   1.00
O840   O     0.67825   0.23050   0.76698   0.00000  Uiso   1.00
C841   C     0.18098   0.59988   0.75218   0.00000  Uiso   1.00
C842   C     0.20525   0.50315   0.66686   0.00000  Uiso   1.00
C843   C     0.10630   0.48639   0.88032   0.00000  Uiso   1.00
C844   C     0.23042   0.50553   0.61913   0.00000  Uiso   1.00
C845   C     0.03837   0.43404   0.93900   0.00000  Uiso   1.00
C846   C     0.31489   0.53184   0.55612   0.00000  Uiso   1.00
C847   C     0.04976   0.45192   0.89732   0.00000  Uiso   1.00
C848   C     0.29510   0.52348   0.60036   0.00000  Uiso   1.00
C849   C     0.14784   0.50576   0.90748   0.00000  Uiso   1.00
C850   C     0.18893   0.49021   0.59137   0.00000  Uiso   1.00
C851   C     0.14067   0.48420   0.94813   0.00000  Uiso   1.00
C852   C     0.15168   0.40007   0.74890   0.00000  Uiso   1.00
C853   C     0.21030   0.49403   0.54589   0.00000  Uiso   1.00
C854   C     0.08379   0.44810   0.96364   0.00000  Uiso   1.00
C855   C     0.27243   0.51968   0.52947   0.00000  Uiso   1.00
C856   C     0.18705   0.49625   0.97399   0.00000  Uiso   1.00
C857   C     0.17057   0.47591   0.51662   0.00000  Uiso   1.00
C858   C     0.32523   0.58068   0.81047   0.00000  Uiso   1.00
C859   C     0.31402   0.63677   0.81301   0.00000  Uiso   1.00
C860   C     0.25238   0.64246   0.84513   0.00000  Uiso   1.00
C861   C     0.32755   0.40810   0.70392   0.00000  Uiso   1.00
C862   C     0.04093   0.38964   0.66550   0.00000  Uiso   1.00
C863   C     0.11817   0.43449   0.52715   0.00000  Uiso   1.00
C864   C     0.03062   0.66337   0.66245   0.00000  Uiso   1.00
C865   C     0.25050   0.52379   0.95938   0.00000  Uiso   1.00
C866   C     0.07402   0.42306   0.50220   0.00000  Uiso   1.00
C867   C     0.29202   0.53311   0.98653   0.00000  Uiso   1.00
C868   C     0.18761   0.65563   0.75535   0.00000  Uiso   1.00
C869   C     0.14352   0.34417   0.74769   0.00000  Uiso   1.00
C870   C     0.12847   0.49599   0.83314   0.00000  Uiso   1.00
Cl871  Cl    0.02115   0.53789   0.62951   0.00000  Uiso   1.00
Cl872  Cl    0.32599   0.42821   0.86739   0.00000  Uiso   1.00
Cl873  Cl    0.11666   0.38520   0.56173   0.00000  Uiso   1.00
Cl874  Cl    0.28870   0.54164   0.90668   0.00000  Uiso   1.00
Cu875  Cu    0.10737   0.49441   0.74516   0.00000  Uiso   1.00
Cu876  Cu    0.22596   0.50559   0.75483   0.00000  Uiso   1.00
H877   H     0.03363   0.39162   0.51155   0.00000  Uiso   1.00
H878   H     0.28265   0.55448   0.82799   0.00000  Uiso   1.00
H879   H     0.02024   0.66436   0.82316   0.00000  Uiso   1.00
H880   H     0.31318   0.64842   0.78051   0.00000  Uiso   1.00
H881   H     0.21281   0.61152   0.83883   0.00000  Uiso   1.00
H882   H     0.24084   0.34732   0.84159   0.00000  Uiso   1.00
H883   H     0.25648   0.63997   0.87896   0.00000  Uiso   1.00
H884   H     0.28061   0.38869   0.69910   0.00000  Uiso   1.00
H885   H     0.33169   0.39480   0.73518   0.00000  Uiso   1.00
H886   H     0.03393   0.40372   0.63555   0.00000  Uiso   1.00
H887   H     0.08963   0.40601   0.66824   0.00000  Uiso   1.00
H888   H     0.00714   0.55220   0.97404   0.00000  Uiso   1.00
H889   H     0.03167   0.64792   0.69356   0.00000  Uiso   1.00
H890   H     0.06828   0.65104   0.63643   0.00000  Uiso   1.00
H891   H     0.31793   0.64633   0.65464   0.00000  Uiso   1.00
H892   H     0.13952   0.47688   0.60543   0.00000  Uiso   1.00
H893   H     0.18457   0.53815   0.89580   0.00000  Uiso   1.00
H894   H     0.32826   0.40679   0.95137   0.00000  Uiso   1.00
H895   H     0.03046   0.54853   0.54253   0.00000  Uiso   1.00
H896   H     0.22918   0.34563   0.76414   0.00000  Uiso   1.00
H897   H     0.10117   0.65415   0.73984   0.00000  Uiso   1.00
H898   H     0.02986   0.58036   0.82713   0.00000  Uiso   1.00
N899   N     0.31506   0.51401   0.76212   0.00000  Uiso   1.00
N900   N     0.01827   0.48599   0.73788   0.00000  Uiso   1.00
O901   O     0.12815   0.57142   0.74686   0.00000  Uiso   1.00
O902   O     0.33160   0.46243   0.70300   0.00000  Uiso   1.00
O903   O     0.20518   0.42858   0.75314   0.00000  Uiso   1.00
O904   O     0.22829   0.58086   0.75502   0.00000  Uiso   1.00
O905   O     0.10504   0.41914   0.74497   0.00000  Uiso   1.00
O906   O     0.08851   0.49263   0.80854   0.00000  Uiso   1.00
O907   O     0.24482   0.50737   0.69145   0.00000  Uiso   1.00
O908   O     0.18866   0.50207   0.81671   0.00000  Uiso   1.00
O909   O     0.14468   0.49793   0.68329   0.00000  Uiso   1.00
O910   O     0.01158   0.56383   0.76698   0.00000  Uiso   1.00
C911   C     0.51432   0.59988   0.75218   0.00000  Uiso   1.00
C912   C     0.53859   0.50315   0.66686   0.00000  Uiso   1.00
C913   C     0.43963   0.48639   0.88032   0.00000  Uiso   1.00
C914   C     0.56375   0.50553   0.61913   0.00000  Uiso   1.00
C915   C     0.37171   0.43404   0.93900   0.00000  Uiso   1.00
C916   C     0.64822   0.53184   0.55612   0.00000  Uiso   1.00
C917   C     0.38309   0.45192   0.89732   0.00000  Uiso   1.00
C918   C     0.62843   0.52348   0.60036   0.00000  Uiso   1.00
C919   C     0.48118   0.50576   0.90748   0.00000  Uiso   1.00
C920   C     0.52226   0.49021   0.59137   0.00000  Uiso   1.00
C921   C     0.47401   0.48420   0.94813   0.00000  Uiso   1.00
C922   C     0.48502   0.40007   0.74890   0.00000  Uiso   1.00
C923   C     0.54363   0.49403   0.54589   0.00000  Uiso   1.00
C924   C     0.41712   0.44810   0.96364   0.00000  Uiso   1.00
C925   C     0.60576   0.51968   0.52947   0.00000  Uiso   1.00
C926   C     0.52038   0.49625   0.97399   0.00000  Uiso   1.00
C927   C     0.50390   0.47591   0.51662   0.00000  Uiso   1.00
C928   C     0.65856   0.58068   0.81047   0.00000  Uiso   1.00
C929   C     0.64735   0.63677   0.81301   0.00000  Uiso   1.00
C930   C     0.58571   0.64246   0.84513   0.00000  Uiso   1.00
C931   C     0.66088   0.40810   0.70392   0.00000  Uiso   1.00
C932   C     0.37427   0.38964   0.66550   0.00000  Uiso   1.00
C933   C     0.45150   0.43449   0.52715   0.00000  Uiso   1.00
C934   C     0.36395   0.66337   0.66245   0.00000  Uiso   1.00
C935   C     0.58383   0.52379   0.95938   0.00000  Uiso   1.00
C936   C     0.40735   0.42306   0.50220   0.00000  Uiso   1.00
C937   C     0.62536   0.53311   0.98653   0.00000  Uiso   1.00
C938   C     0.52094   0.65563   0.75535   0.00000  Uiso   1.00
C939   C     0.47686   0.34417   0.74769   0.00000  Uiso   1.00
C940   C     0.46180   0.49599   0.83314   0.00000  Uiso   1.00
Cl941  Cl    0.35448   0.53789   0.62951   0.00000  Uiso   1.00
Cl942  Cl    0.65932   0.42821   0.86739   0.00000  Uiso   1.00
Cl943  Cl    0.44999   0.38520   0.56173   0.00000  Uiso   1.00
Cl944  Cl    0.62203   0.54164   0.90668   0.00000  Uiso   1.00
Cu945  Cu    0.44071   0.49441   0.74516   0.00000  Uiso   1.00
Cu946  Cu    0.55929   0.50559   0.75483   0.00000  Uiso   1.00
H947   H     0.36696   0.39162   0.51155   0.00000  Uiso   1.00
H948   H     0.61598   0.55448   0.82799   0.00000  Uiso   1.00
H949   H     0.35358   0.66436   0.82316   0.00000  Uiso   1.00
H950   H     0.64651   0.64842   0.78051   0.00000  Uiso   1.00
H951   H     0.54614   0.61152   0.83883   0.00000  Uiso   1.00
H952   H     0.57417   0.34732   0.84159   0.00000  Uiso   1.00
H953   H     0.58981   0.63997   0.87896   0.00000  Uiso   1.00
H954   H     0.61395   0.38869   0.69910   0.00000  Uiso   1.00
H955   H     0.66502   0.39480   0.73518   0.00000  Uiso   1.00
H956   H     0.36726   0.40372   0.63555   0.00000  Uiso   1.00
H957   H     0.42296   0.40601   0.66824   0.00000  Uiso   1.00
H958   H     0.34048   0.55220   0.97404   0.00000  Uiso   1.00
H959   H     0.36501   0.64792   0.69356   0.00000  Uiso   1.00
H960   H     0.40161   0.65104   0.63643   0.00000  Uiso   1.00
H961   H     0.65126   0.64633   0.65464   0.00000  Uiso   1.00
H962   H     0.47286   0.47688   0.60543   0.00000  Uiso   1.00
H963   H     0.51791   0.53815   0.89580   0.00000  Uiso   1.00
H964   H     0.66159   0.40679   0.95137   0.00000  Uiso   1.00
H965   H     0.36379   0.54853   0.54253   0.00000  Uiso   1.00
H966   H     0.56252   0.34563   0.76414   0.00000  Uiso   1.00
H967   H     0.43450   0.65415   0.73984   0.00000  Uiso   1.00
H968   H     0.36320   0.58036   0.82713   0.00000  Uiso   1.00
N969   N     0.64839   0.51401   0.76212   0.00000  Uiso   1.00
N970   N     0.35161   0.48599   0.73788   0.00000  Uiso   1.00
O971   O     0.46148   0.57142   0.74686   0.00000  Uiso   1.00
O972   O     0.66493   0.46243   0.70300   0.00000  Uiso   1.00
O973   O     0.53852   0.42858   0.75314   0.00000  Uiso   1.00
O974   O     0.56163   0.58086   0.75502   0.00000  Uiso   1.00
O975   O     0.43837   0.41914   0.74497   0.00000  Uiso   1.00
O976   O     0.42185   0.49263   0.80854   0.00000  Uiso   1.00
O977   O     0.57815   0.50737   0.69145   0.00000  Uiso   1.00
O978   O     0.52199   0.50207   0.81671   0.00000  Uiso   1.00
O979   O     0.47801   0.49793   0.68329   0.00000  Uiso   1.00
O980   O     0.34492   0.56383   0.76698   0.00000  Uiso   1.00
C981   C     0.84765   0.59988   0.75218   0.00000  Uiso   1.00
C982   C     0.87192   0.50315   0.66686   0.00000  Uiso   1.00
C983   C     0.77296   0.48639   0.88032   0.00000  Uiso   1.00
C984   C     0.89708   0.50553   0.61913   0.00000  Uiso   1.00
C985   C     0.70504   0.43404   0.93900   0.00000  Uiso   1.00
C986   C     0.98156   0.53184   0.55612   0.00000  Uiso   1.00
C987   C     0.71643   0.45192   0.89732   0.00000  Uiso   1.00
C988   C     0.96177   0.52348   0.60036   0.00000  Uiso   1.00
C989   C     0.81451   0.50576   0.90748   0.00000  Uiso   1.00
C990   C     0.85560   0.49021   0.59137   0.00000  Uiso   1.00
C991   C     0.80734   0.48420   0.94813   0.00000  Uiso   1.00
C992   C     0.81835   0.40007   0.74890   0.00000  Uiso   1.00
C993   C     0.87696   0.49403   0.54589   0.00000  Uiso   1.00
C994   C     0.75045   0.44810   0.96364   0.00000  Uiso   1.00
C995   C     0.93910   0.51968   0.52947   0.00000  Uiso   1.00
C996   C     0.85372   0.49625   0.97399   0.00000  Uiso   1.00
C997   C     0.83724   0.47591   0.51662   0.00000  Uiso   1.00
C998   C     0.99190   0.58068   0.81047   0.00000  Uiso   1.00
C999   C     0.98068   0.63677   0.81301   0.00000  Uiso   1.00
C1000  C     0.91904   0.64246   0.84513   0.00000  Uiso   1.00
C1001  C     0.99421   0.40810   0.70392   0.00000  Uiso   1.00
C1002  C     0.70760   0.38964   0.66550   0.00000  Uiso   1.00
C1003  C     0.78483   0.43449   0.52715   0.00000  Uiso   1.00
C1004  C     0.69729   0.66337   0.66245   0.00000  Uiso   1.00
C1005  C     0.91717   0.52379   0.95938   0.00000  Uiso   1.00
C1006  C     0.74068   0.42306   0.50220   0.00000  Uiso   1.00
C1007  C     0.95869   0.53311   0.98653   0.00000  Uiso   1.00
C1008  C     0.85427   0.65563   0.75535   0.00000  Uiso   1.00
C1009  C     0.81019   0.34417   0.74769   0.00000  Uiso   1.00
C1010  C     0.79513   0.49599   0.83314   0.00000  Uiso   1.00
Cl1011 Cl    0.68782   0.53789   0.62951   0.00000  Uiso   1.00
Cl1012 Cl    0.99266   0.42821   0.86739   0.00000  Uiso   1.00
Cl1013 Cl    0.78333   0.38520   0.56173   0.00000  Uiso   1.00
Cl1014 Cl    0.95536   0.54164   0.90668   0.00000  Uiso   1.00
Cu1015 Cu    0.77404   0.49441   0.74516   0.00000  Uiso   1.00
Cu1016 Cu    0.89263   0.50559   0.75483   0.00000  Uiso   1.00
H1017  H     0.70030   0.39162   0.51155   0.00000  Uiso   1.00
H1018  H     0.94931   0.55448   0.82799   0.00000  Uiso   1.00
H1019  H     0.68691   0.66436   0.82316   0.00000  Uiso   1.00
H1020  H     0.97984   0.64842   0.78051   0.00000  Uiso   1.00
H1021  H     0.87948   0.61152   0.83883   0.00000  Uiso   1.00
H1022  H     0.90751   0.34732   0.84159   0.00000  Uiso   1.00
H1023  H     0.92315   0.63997   0.87896   0.00000  Uiso   1.00
H1024  H     0.94728   0.38869   0.69910   0.00000  Uiso   1.00
H1025  H     0.99836   0.39480   0.73518   0.00000  Uiso   1.00
H1026  H     0.70060   0.40372   0.63555   0.00000  Uiso   1.00
H1027  H     0.75630   0.40601   0.66824   0.00000  Uiso   1.00
H1028  H     0.67381   0.55220   0.97404   0.00000  Uiso   1.00
H1029  H     0.69834   0.64792   0.69356   0.00000  Uiso   1.00
H1030  H     0.73495   0.65104   0.63643   0.00000  Uiso   1.00
H1031  H     0.98460   0.64633   0.65464   0.00000  Uiso   1.00
H1032  H     0.80619   0.47688   0.60543   0.00000  Uiso   1.00
H1033  H     0.85124   0.53815   0.89580   0.00000  Uiso   1.00
H1034  H     0.99493   0.40679   0.95137   0.00000  Uiso   1.00
H1035  H     0.69713   0.54853   0.54253   0.00000  Uiso   1.00
H1036  H     0.89585   0.34563   0.76414   0.00000  Uiso   1.00
H1037  H     0.76784   0.65415   0.73984   0.00000  Uiso   1.00
H1038  H     0.69653   0.58036   0.82713   0.00000  Uiso   1.00
N1039  N     0.98173   0.51401   0.76212   0.00000  Uiso   1.00
N1040  N     0.68494   0.48599   0.73788   0.00000  Uiso   1.00
O1041  O     0.79482   0.57142   0.74686   0.00000  Uiso   1.00
O1042  O     0.99826   0.46243   0.70300   0.00000  Uiso   1.00
O1043  O     0.87185   0.42858   0.75314   0.00000  Uiso   1.00
O1044  O     0.89496   0.58086   0.75502   0.00000  Uiso   1.00
O1045  O     0.77171   0.41914   0.74497   0.00000  Uiso   1.00
O1046  O     0.75518   0.49263   0.80854   0.00000  Uiso   1.00
O1047  O     0.91149   0.50737   0.69145   0.00000  Uiso   1.00
O1048  O     0.85532   0.50207   0.81671   0.00000  Uiso   1.00
O1049  O     0.81134   0.49793   0.68329   0.00000  Uiso   1.00
O1050  O     0.67825   0.56383   0.76698   0.00000  Uiso   1.00
C1051  C     0.18098   0.93321   0.75218   0.00000  Uiso   1.00
C1052  C     0.20525   0.83648   0.66686   0.00000  Uiso   1.00
C1053  C     0.10630   0.81972   0.88032   0.00000  Uiso   1.00
C1054  C     0.23042   0.83887   0.61913   0.00000  Uiso   1.00
C1055  C     0.03837   0.76737   0.93900   0.00000  Uiso   1.00
C1056  C     0.31489   0.86517   0.55612   0.00000  Uiso   1.00
C1057  C     0.04976   0.78526   0.89732   0.00000  Uiso   1.00
C1058  C     0.29510   0.85682   0.60036   0.00000  Uiso   1.00
C1059  C     0.14784   0.83909   0.90748   0.00000  Uiso   1.00
C1060  C     0.18893   0.82355   0.59137   0.00000  Uiso   1.00
C1061  C     0.14067   0.81753   0.94813   0.00000  Uiso   1.00
C1062  C     0.15168   0.73341   0.74890   0.00000  Uiso   1.00
C1063  C     0.21030   0.82736   0.54589   0.00000  Uiso   1.00
C1064  C     0.08379   0.78143   0.96364   0.00000  Uiso   1.00
C1065  C     0.27243   0.85302   0.52947   0.00000  Uiso   1.00
C1066  C     0.18705   0.82958   0.97399   0.00000  Uiso   1.00
C1067  C     0.17057   0.80924   0.51662   0.00000  Uiso   1.00
C1068  C     0.32523   0.91402   0.81047   0.00000  Uiso   1.00
C1069  C     0.31402   0.97010   0.81301   0.00000  Uiso   1.00
C1070  C     0.25238   0.97579   0.84513   0.00000  Uiso   1.00
C1071  C     0.32755   0.74143   0.70392   0.00000  Uiso   1.00
C1072  C     0.04093   0.72297   0.66550   0.00000  Uiso   1.00
C1073  C     0.11817   0.76782   0.52715   0.00000  Uiso   1.00
C1074  C     0.03062   0.99670   0.66245   0.00000  Uiso   1.00
C1075  C     0.25050   0.85712   0.95938   0.00000  Uiso   1.00
C1076  C     0.07402   0.75640   0.50220   0.00000  Uiso   1.00
C1077  C     0.29202   0.86645   0.98653   0.00000  Uiso   1.00
C1078  C     0.18761   0.98896   0.75535   0.00000  Uiso   1.00
C1079  C     0.14352   0.67750   0.74769   0.00000  Uiso   1.00
C1080  C     0.12847   0.82932   0.83314   0.00000  Uiso   1.00
Cl1081 Cl    0.02115   0.87123   0.62951   0.00000  Uiso   1.00
Cl1082 Cl    0.32599   0.76154   0.86739   0.00000  Uiso   1.00
Cl1083 Cl    0.11666   0.71853   0.56173   0.00000  Uiso   1.00
Cl1084 Cl    0.28870   0.87497   0.90668   0.00000  Uiso   1.00
Cu1085 Cu    0.10737   0.82775   0.74516   0.00000  Uiso   1.00
Cu1086 Cu    0.22596   0.83892   0.75483   0.00000  Uiso   1.00
H1087  H     0.03363   0.72496   0.51155   0.00000  Uiso   1.00
H1088  H     0.28265   0.88782   0.82799   0.00000  Uiso   1.00
H1089  H     0.02024   0.99769   0.82316   0.00000  Uiso   1.00
H1090  H     0.31318   0.98176   0.78051   0.00000  Uiso   1.00
H1091  H     0.21281   0.94485   0.83883   0.00000  Uiso   1.00
H1092  H     0.24084   0.68065   0.84159   0.00000  Uiso   1.00
H1093  H     0.25648   0.97331   0.87896   0.00000  Uiso   1.00
H1094  H     0.28061   0.72202   0.69910   0.00000  Uiso   1.00
H1095  H     0.33169   0.72814   0.73518   0.00000  Uiso   1.00
H1096  H     0.03393   0.73706   0.63555   0.00000  Uiso   1.00
H1097  H     0.08963   0.73935   0.66824   0.00000  Uiso   1.00
H1098  H     0.00714   0.88554   0.97404   0.00000  Uiso   1.00
H1099  H     0.03167   0.98125   0.69356   0.00000  Uiso   1.00
H1100  H     0.06828   0.98437   0.63643   0.00000  Uiso   1.00
H1101  H     0.31793   0.97967   0.65464   0.00000  Uiso   1.00
H1102  H     0.13952   0.81021   0.60543   0.00000  Uiso   1.00
H1103  H     0.18457   0.87148   0.89580   0.00000  Uiso   1.00
H1104  H     0.32826   0.74012   0.95137   0.00000  Uiso   1.00
H1105  H     0.03046   0.88186   0.54253   0.00000  Uiso   1.00
H1106  H     0.22918   0.67896   0.76414   0.00000  Uiso   1.00
H1107  H     0.10117   0.98749   0.73984   0.00000  Uiso   1.00
H1108  H     0.02986   0.91370   0.82713   0.00000  Uiso   1.00
N1109  N     0.31506   0.84735   0.76212   0.00000  Uiso   1.00
N1110  N     0.01827   0.81932   0.73788   0.00000  Uiso   1.00
O1111  O     0.12815   0.90476   0.74686   0.00000  Uiso   1.00
O1112  O     0.33160   0.79576   0.70300   0.00000  Uiso   1.00
O1113  O     0.20518   0.76191   0.75314   0.00000  Uiso   1.00
O1114  O     0.22829   0.91420   0.75502   0.00000  Uiso   1.00
O1115  O     0.10504   0.75247   0.74497   0.00000  Uiso   1.00
O1116  O     0.08851   0.82597   0.80854   0.00000  Uiso   1.00
O1117  O     0.24482   0.84070   0.69145   0.00000  Uiso   1.00
O1118  O     0.18866   0.83540   0.81671   0.00000  Uiso   1.00
O1119  O     0.14468   0.83126   0.68329   0.00000  Uiso   1.00
O1120  O     0.01158   0.89716   0.76698   0.00000  Uiso   1.00
C1121  C     0.51432   0.93321   0.75218   0.00000  Uiso   1.00
C1122  C     0.53859   0.83648   0.66686   0.00000  Uiso   1.00
C1123  C     0.43963   0.81972   0.88032   0.00000  Uiso   1.00
C1124  C     0.56375   0.83887   0.61913   0.00000  Uiso   1.00
C1125  C     0.37171   0.76737   0.93900   0.00000  Uiso   1.00
C1126  C     0.64822   0.86517   0.55612   0.00000  Uiso   1.00
C1127  C     0.38309   0.78526   0.89732   0.00000  Uiso   1.00
C1128  C     0.62843   0.85682   0.60036   0.00000  Uiso   1.00
C1129  C     0.48118   0.83909   0.90748   0.00000  Uiso   1.00
C1130  C     0.52226   0.82355   0.59137   0.00000  Uiso   1.00
C1131  C     0.47401   0.81753   0.94813   0.00000  Uiso   1.00
C1132  C     0.48502   0.73341   0.74890   0.00000  Uiso   1.00
C1133  C     0.54363   0.82736   0.54589   0.00000  Uiso   1.00
C1134  C     0.41712   0.78143   0.96364   0.00000  Uiso   1.00
C1135  C     0.60576   0.85302   0.52947   0.00000  Uiso   1.00
C1136  C     0.52038   0.82958   0.97399   0.00000  Uiso   1.00
C1137  C     0.50390   0.80924   0.51662   0.00000  Uiso   1.00
C1138  C     0.65856   0.91402   0.81047   0.00000  Uiso   1.00
C1139  C     0.64735   0.97010   0.81301   0.00000  Uiso   1.00
C1140  C     0.58571   0.97579   0.84513   0.00000  Uiso   1.00
C1141  C     0.66088   0.74143   0.70392   0.00000  Uiso   1.00
C1142  C     0.37427   0.72297   0.66550   0.00000  Uiso   1.00
C1143  C     0.45150   0.76782   0.52715   0.00000  Uiso   1.00
C1144  C     0.36395   0.99670   0.66245   0.00000  Uiso   1.00
C1145  C     0.58383   0.85712   0.95938   0.00000  Uiso   1.00
C1146  C     0.40735   0.75640   0.50220   0.00000  Uiso   1.00
C1147  C     0.62536   0.86645   0.98653   0.00000  Uiso   1.00
C1148  C     0.52094   0.98896   0.75535   0.00000  Uiso   1.00
C1149  C     0.47686   0.67750   0.74769   0.00000  Uiso   1.00
C1150  C     0.46180   0.82932   0.83314   0.00000  Uiso   1.00
Cl1151 Cl    0.35448   0.87123   0.62951   0.00000  Uiso   1.00
Cl1152 Cl    0.65932   0.76154   0.86739   0.00000  Uiso   1.00
Cl1153 Cl    0.44999   0.71853   0.56173   0.00000  Uiso   1.00
Cl1154 Cl    0.62203   0.87497   0.90668   0.00000  Uiso   1.00
Cu1155 Cu    0.44071   0.82775   0.74516   0.00000  Uiso   1.00
Cu1156 Cu    0.55929   0.83892   0.75483   0.00000  Uiso   1.00
H1157  H     0.36696   0.72496   0.51155   0.00000  Uiso   1.00
H1158  H     0.61598   0.88782   0.82799   0.00000  Uiso   1.00
H1159  H     0.35358   0.99769   0.82316   0.00000  Uiso   1.00
H1160  H     0.64651   0.98176   0.78051   0.00000  Uiso   1.00
H1161  H     0.54614   0.94485   0.83883   0.00000  Uiso   1.00
H1162  H     0.57417   0.68065   0.84159   0.00000  Uiso   1.00
H1163  H     0.58981   0.97331   0.87896   0.00000  Uiso   1.00
H1164  H     0.61395   0.72202   0.69910   0.00000  Uiso   1.00
H1165  H     0.66502   0.72814   0.73518   0.00000  Uiso   1.00
H1166  H     0.36726   0.73706   0.63555   0.00000  Uiso   1.00
H1167  H     0.42296   0.73935   0.66824   0.00000  Uiso   1.00
H1168  H     0.34048   0.88554   0.97404   0.00000  Uiso   1.00
H1169  H     0.36501   0.98125   0.69356   0.00000  Uiso   1.00
H1170  H     0.40161   0.98437   0.63643   0.00000  Uiso   1.00
H1171  H     0.65126   0.97967   0.65464   0.00000  Uiso   1.00
H1172  H     0.47286   0.81021   0.60543   0.00000  Uiso   1.00
H1173  H     0.51791   0.87148   0.89580   0.00000  Uiso   1.00
H1174  H     0.66159   0.74012   0.95137   0.00000  Uiso   1.00
H1175  H     0.36379   0.88186   0.54253   0.00000  Uiso   1.00
H1176  H     0.56252   0.67896   0.76414   0.00000  Uiso   1.00
H1177  H     0.43450   0.98749   0.73984   0.00000  Uiso   1.00
H1178  H     0.36320   0.91370   0.82713   0.00000  Uiso   1.00
N1179  N     0.64839   0.84735   0.76212   0.00000  Uiso   1.00
N1180  N     0.35161   0.81932   0.73788   0.00000  Uiso   1.00
O1181  O     0.46148   0.90476   0.74686   0.00000  Uiso   1.00
O1182  O     0.66493   0.79576   0.70300   0.00000  Uiso   1.00
O1183  O     0.53852   0.76191   0.75314   0.00000  Uiso   1.00
O1184  O     0.56163   0.91420   0.75502   0.00000  Uiso   1.00
O1185  O     0.43837   0.75247   0.74497   0.00000  Uiso   1.00
O1186  O     0.42185   0.82597   0.80854   0.00000  Uiso   1.00
O1187  O     0.57815   0.84070   0.69145   0.00000  Uiso   1.00
O1188  O     0.52199   0.83540   0.81671   0.00000  Uiso   1.00
O1189  O     0.47801   0.83126   0.68329   0.00000  Uiso   1.00
O1190  O     0.34492   0.89716   0.76698   0.00000  Uiso   1.00
C1191  C     0.84765   0.93321   0.75218   0.00000  Uiso   1.00
C1192  C     0.87192   0.83648   0.66686   0.00000  Uiso   1.00
C1193  C     0.77296   0.81972   0.88032   0.00000  Uiso   1.00
C1194  C     0.89708   0.83887   0.61913   0.00000  Uiso   1.00
C1195  C     0.70504   0.76737   0.93900   0.00000  Uiso   1.00
C1196  C     0.98156   0.86517   0.55612   0.00000  Uiso   1.00
C1197  C     0.71643   0.78526   0.89732   0.00000  Uiso   1.00
C1198  C     0.96177   0.85682   0.60036   0.00000  Uiso   1.00
C1199  C     0.81451   0.83909   0.90748   0.00000  Uiso   1.00
C1200  C     0.85560   0.82355   0.59137   0.00000  Uiso   1.00
C1201  C     0.80734   0.81753   0.94813   0.00000  Uiso   1.00
C1202  C     0.81835   0.73341   0.74890   0.00000  Uiso   1.00
C1203  C     0.87696   0.82736   0.54589   0.00000  Uiso   1.00
C1204  C     0.75045   0.78143   0.96364   0.00000  Uiso   1.00
C1205  C     0.93910   0.85302   0.52947   0.00000  Uiso   1.00
C1206  C     0.85372   0.82958   0.97399   0.00000  Uiso   1.00
C1207  C     0.83724   0.80924   0.51662   0.00000  Uiso   1.00
C1208  C     0.99190   0.91402   0.81047   0.00000  Uiso   1.00
C1209  C     0.98068   0.97010   0.81301   0.00000  Uiso   1.00
C1210  C     0.91904   0.97579   0.84513   0.00000  Uiso   1.00
C1211  C     0.99421   0.74143   0.70392   0.00000  Uiso   1.00
C1212  C     0.70760   0.72297   0.66550   0.00000  Uiso   1.00
C1213  C     0.78483   0.76782   0.52715   0.00000  Uiso   1.00
C1214  C     0.69729   0.99670   0.66245   0.00000  Uiso   1.00
C1215  C     0.91717   0.85712   0.95938   0.00000  Uiso   1.00
C1216  C     0.74068   0.75640   0.50220   0.00000  Uiso   1.00
C1217  C     0.95869   0.86645   0.98653   0.00000  Uiso   1.00
C1218  C     0.85427   0.98896   0.75535   0.00000  Uiso   1.00
C1219  C     0.81019   0.67750   0.74769   0.00000  Uiso   1.00
C1220  C     0.79513   0.82932   0.83314   0.00000  Uiso   1.00
Cl1221 Cl    0.68782   0.87123   0.62951   0.00000  Uiso   1.00
Cl1222 Cl    0.99266   0.76154   0.86739   0.00000  Uiso   1.00
Cl1223 Cl    0.78333   0.71853   0.56173   0.00000  Uiso   1.00
Cl1224 Cl    0.95536   0.87497   0.90668   0.00000  Uiso   1.00
Cu1225 Cu    0.77404   0.82775   0.74516   0.00000  Uiso   1.00
Cu1226 Cu    0.89263   0.83892   0.75483   0.00000  Uiso   1.00
H1227  H     0.70030   0.72496   0.51155   0.00000  Uiso   1.00
H1228  H     0.94931   0.88782   0.82799   0.00000  Uiso   1.00
H1229  H     0.68691   0.99769   0.82316   0.00000  Uiso   1.00
H1230  H     0.97984   0.98176   0.78051   0.00000  Uiso   1.00
H1231  H     0.87948   0.94485   0.83883   0.00000  Uiso   1.00
H1232  H     0.90751   0.68065   0.84159   0.00000  Uiso   1.00
H1233  H     0.92315   0.97331   0.87896   0.00000  Uiso   1.00
H1234  H     0.94728   0.72202   0.69910   0.00000  Uiso   1.00
H1235  H     0.99836   0.72814   0.73518   0.00000  Uiso   1.00
H1236  H     0.70060   0.73706   0.63555   0.00000  Uiso   1.00
H1237  H     0.75630   0.73935   0.66824   0.00000  Uiso   1.00
H1238  H     0.67381   0.88554   0.97404   0.00000  Uiso   1.00
H1239  H     0.69834   0.98125   0.69356   0.00000  Uiso   1.00
H1240  H     0.73495   0.98437   0.63643   0.00000  Uiso   1.00
H1241  H     0.98460   0.97967   0.65464   0.00000  Uiso   1.00
H1242  H     0.80619   0.81021   0.60543   0.00000  Uiso   1.00
H1243  H     0.85124   0.87148   0.89580   0.00000  Uiso   1.00
H1244  H     0.99493   0.74012   0.95137   0.00000  Uiso   1.00
H1245  H     0.69713   0.88186   0.54253   0.00000  Uiso   1.00
H1246  H     0.89585   0.67896   0.76414   0.00000  Uiso   1.00
H1247  H     0.76784   0.98749   0.73984   0.00000  Uiso   1.00
H1248  H     0.69653   0.91370   0.82713   0.00000  Uiso   1.00
N1249  N     0.98173   0.84735   0.76212   0.00000  Uiso   1.00
N1250  N     0.68494   0.81932   0.73788   0.00000  Uiso   1.00
O1251  O     0.79482   0.90476   0.74686   0.00000  Uiso   1.00
O1252  O     0.99826   0.79576   0.70300   0.00000  Uiso   1.00
O1253  O     0.87185   0.76191   0.75314   0.00000  Uiso   1.00
O1254  O     0.89496   0.91420   0.75502   0.00000  Uiso   1.00
O1255  O     0.77171   0.75247   0.74497   0.00000  Uiso   1.00
O1256  O     0.75518   0.82597   0.80854   0.00000  Uiso   1.00
O1257  O     0.91149   0.84070   0.69145   0.00000  Uiso   1.00
O1258  O     0.85532   0.83540   0.81671   0.00000  Uiso   1.00
O1259  O     0.81134   0.83126   0.68329   0.00000  Uiso   1.00
O1260  O     0.67825   0.89716   0.76698   0.00000  Uiso   1.00
loop_
_geom_bond_atom_site_label_1
_geom_bond_atom_site_label_2
_geom_bond_distance
_geom_bond_site_symmetry_2
_ccdc_geom_bond_type
C1     C28     1.432   .     S
C1     O64     1.293   .     A
C1     O61     1.297   .     A
C2     O69     1.314   .     A
C2     C4      1.485   .     S
C2     O67     1.302   .     A
C3     C30     1.486   .     S
C3     C9      1.408   .     A
C3     C7      1.405   .     A
C4     C8      1.420   .     A
C4     C10     1.409   .     A
C5     C14     1.402   .     A
C5     C7      1.391   .     A
C5     H194    1.085   1_455 S
C6     C8      1.389   .     A
C6     C15     1.394   .     A
C6     H125    1.085   .     S
C7     Cl172   1.755   1_455 S
C8     Cl101   1.762   .     S
C9     C11     1.416   .     A
C9     H53     1.068   .     S
C10    H52     1.082   .     S
C10    C13     1.412   .     A
C11    C14     1.421   .     A
C11    C16     1.446   .     A
C12    C29     1.433   .     S
C12    O65     1.291   .     A
C12    O63     1.300   .     A
C13    C17     1.425   .     A
C13    C15     1.404   .     A
C14    C656    1.390   .     S
C15    C657    1.381   1_554 S
C16    C25     1.434   .     A
C16    C647    1.434   .     S
C17    C23     1.412   .     A
C17    C646    1.434   1_554 S
C18    H38     1.104   .     S
C18    C19     1.535   .     S
C18    H128    1.111   .     S
C18    O140    1.405   .     S
C19    H40     1.109   .     S
C19    C20     1.533   .     S
C19    H109    1.111   .     S
C20    H41     1.109   .     S
C20    H43     1.110   .     S
C20    H252    1.108   .     S
C21    H45     1.114   .     S
C21    H44     1.107   .     S
C21    O62     1.408   .     S
C21    C92     1.520   .     S
C22    H47     1.106   .     S
C22    H46     1.109   .     S
C22    C161    1.520   1_455 S
C22    C444    1.525   1_545 S
C23    C26     1.384   .     A
C23    Cl33    1.760   .     S
C24    H50     1.109   .     S
C24    H49     1.109   .     S
C24    C232    1.525   .     S
C24    H191    1.111   1_455 S
C25    Cl34    1.739   .     S
C25    C27     1.390   .     A
C26    H37     1.085   .     S
C26    C644    1.390   1_554 S
C27    C645    1.381   .     S
C27    H118    1.086   .     S
C28    C239    1.327   .     S
C28    H266    1.083   .     S
C29    C448    1.327   1_545 S
C29    H477    1.085   1_545 S
C30    O66     1.312   .     A
C30    O68     1.304   .     A
Cl31   C148    1.762   1_455 S
Cl32   C77     1.755   .     S
Cu35   Cu36    2.707   .     S
Cu35   O61     1.968   .     S
Cu35   O65     1.960   .     S
Cu35   O69     1.941   .     S
Cu35   N60     2.034   .     S
Cu35   O66     1.957   .     S
Cu36   O68     1.941   .     S
Cu36   N59     2.034   .     S
Cu36   O67     1.957   .     S
Cu36   O64     1.960   .     S
Cu36   O63     1.968   .     S
H39    C159    1.111   1_455 S
H42    C440    1.108   1_545 S
H48    C167    1.086   1_455 S
H51    C94     1.111   .     S
H54    C75     1.085   .     S
H55    C146    1.085   1_455 S
H56    C448    1.083   1_545 S
H57    C239    1.085   .     S
H58    C158    1.111   1_455 S
N59    N130    1.286   .     S
N59    O140    1.345   .     S
N60    N199    1.286   1_455 S
N60    O202    1.345   1_455 S
O62    N130    1.345   .     S
O70    N199    1.345   1_455 S
O70    C158    1.405   1_455 S
C71    C98     1.432   .     S
C71    O134    1.293   .     A
C71    O131    1.297   .     A
C72    O139    1.314   .     A
C72    C74     1.485   .     S
C72    O137    1.302   .     A
C73    C100    1.486   .     S
C73    C79     1.408   .     A
C73    C77     1.405   .     A
C74    C78     1.420   .     A
C74    C80     1.409   .     A
C75    C84     1.402   .     A
C75    C77     1.391   .     A
C76    C78     1.389   .     A
C76    C85     1.394   .     A
C76    H195    1.085   .     S
C78    Cl171   1.762   .     S
C79    C81     1.416   .     A
C79    H123    1.068   .     S
C80    H122    1.082   .     S
C80    C83     1.412   .     A
C81    C84     1.421   .     A
C81    C86     1.446   .     A
C82    C99     1.433   .     S
C82    O135    1.291   .     A
C82    O133    1.300   .     A
C83    C87     1.425   .     A
C83    C85     1.404   .     A
C84    C726    1.390   .     S
C85    C727    1.381   1_554 S
C86    C95     1.434   .     A
C86    C717    1.434   .     S
C87    C93     1.412   .     A
C87    C716    1.434   1_554 S
C88    H108    1.104   .     S
C88    C89     1.535   .     S
C88    H198    1.111   .     S
C88    O210    1.405   .     S
C89    H110    1.109   .     S
C89    C90     1.533   .     S
C89    H179    1.111   .     S
C90    H111    1.109   .     S
C90    H113    1.110   .     S
C90    H322    1.108   .     S
C91    H115    1.114   .     S
C91    H114    1.107   .     S
C91    O132    1.408   .     S
C91    C162    1.520   .     S
C92    H117    1.106   .     S
C92    H116    1.109   .     S
C92    C514    1.525   1_545 S
C93    C96     1.384   .     A
C93    Cl103   1.760   .     S
C94    H120    1.109   .     S
C94    H119    1.109   .     S
C94    C302    1.525   .     S
C95    Cl104   1.739   .     S
C95    C97     1.390   .     A
C96    H107    1.085   .     S
C96    C714    1.390   1_554 S
C97    C715    1.381   .     S
C97    H188    1.086   .     S
C98    C309    1.327   .     S
C98    H336    1.083   .     S
C99    C518    1.327   1_545 S
C99    H547    1.085   1_545 S
C100   O136    1.312   .     A
C100   O138    1.304   .     A
Cl102  C147    1.755   .     S
Cu105  Cu106   2.707   .     S
Cu105  O131    1.968   .     S
Cu105  O135    1.960   .     S
Cu105  O139    1.941   .     S
Cu105  N130    2.034   .     S
Cu105  O136    1.957   .     S
Cu106  O138    1.941   .     S
Cu106  N129    2.034   .     S
Cu106  O137    1.957   .     S
Cu106  O134    1.960   .     S
Cu106  O133    1.968   .     S
H112   C510    1.108   1_545 S
H121   C164    1.111   .     S
H124   C145    1.085   .     S
H126   C518    1.083   1_545 S
H127   C309    1.085   .     S
N129   N200    1.286   .     S
N129   O210    1.345   .     S
O132   N200    1.345   .     S
C141   C168    1.432   .     S
C141   O204    1.293   .     A
C141   O201    1.297   .     A
C142   O209    1.314   .     A
C142   C144    1.485   .     S
C142   O207    1.302   .     A
C143   C170    1.486   .     S
C143   C149    1.408   .     A
C143   C147    1.405   .     A
C144   C148    1.420   .     A
C144   C150    1.409   .     A
C145   C154    1.402   .     A
C145   C147    1.391   .     A
C146   C148    1.389   .     A
C146   C155    1.394   .     A
C146   H55     1.085   1_655 S
C148   Cl31    1.762   1_655 S
C149   C151    1.416   .     A
C149   H193    1.068   .     S
C150   H192    1.082   .     S
C150   C153    1.412   .     A
C151   C154    1.421   .     A
C151   C156    1.446   .     A
C152   C169    1.433   .     S
C152   O205    1.291   .     A
C152   O203    1.300   .     A
C153   C157    1.425   .     A
C153   C155    1.404   .     A
C154   C796    1.390   .     S
C155   C797    1.381   1_554 S
C156   C165    1.434   .     A
C156   C787    1.434   .     S
C157   C163    1.412   .     A
C157   C786    1.434   1_554 S
C158   H178    1.104   .     S
C158   C159    1.535   .     S
C158   H58     1.111   1_655 S
C158   O70     1.405   1_655 S
C159   H180    1.109   .     S
C159   C160    1.533   .     S
C159   H39     1.111   1_655 S
C160   H181    1.109   .     S
C160   H183    1.110   .     S
C160   H392    1.108   .     S
C161   H185    1.114   .     S
C161   H184    1.107   .     S
C161   O202    1.408   .     S
C161   C22     1.520   1_655 S
C162   H187    1.106   .     S
C162   H186    1.109   .     S
C162   C584    1.525   1_545 S
C163   C166    1.384   .     A
C163   Cl173   1.760   .     S
C164   H190    1.109   .     S
C164   H189    1.109   .     S
C164   C372    1.525   .     S
C165   Cl174   1.739   .     S
C165   C167    1.390   .     A
C166   H177    1.085   .     S
C166   C784    1.390   1_554 S
C167   C785    1.381   .     S
C167   H48     1.086   1_655 S
C168   C379    1.327   .     S
C168   H406    1.083   .     S
C169   C588    1.327   1_545 S
C169   H617    1.085   1_545 S
C170   O206    1.312   .     A
C170   O208    1.304   .     A
Cl172  C7      1.755   1_655 S
Cu175  Cu176   2.707   .     S
Cu175  O201    1.968   .     S
Cu175  O205    1.960   .     S
Cu175  O209    1.941   .     S
Cu175  N200    2.034   .     S
Cu175  O206    1.957   .     S
Cu176  O208    1.941   .     S
Cu176  N199    2.034   .     S
Cu176  O207    1.957   .     S
Cu176  O204    1.960   .     S
Cu176  O203    1.968   .     S
H182   C580    1.108   1_545 S
H191   C24     1.111   1_655 S
H194   C5      1.085   1_655 S
H196   C588    1.083   1_545 S
H197   C379    1.085   .     S
N199   N60     1.286   1_655 S
N199   O70     1.345   1_655 S
O202   N60     1.345   1_655 S
C211   C238    1.432   .     S
C211   O274    1.293   .     A
C211   O271    1.297   .     A
C212   O279    1.314   .     A
C212   C214    1.485   .     S
C212   O277    1.302   .     A
C213   C240    1.486   .     S
C213   C219    1.408   .     A
C213   C217    1.405   .     A
C214   C218    1.420   .     A
C214   C220    1.409   .     A
C215   C224    1.402   .     A
C215   C217    1.391   .     A
C215   H404    1.085   1_455 S
C216   C218    1.389   .     A
C216   C225    1.394   .     A
C216   H335    1.085   .     S
C217   Cl382   1.755   1_455 S
C218   Cl311   1.762   .     S
C219   C221    1.416   .     A
C219   H263    1.068   .     S
C220   H262    1.082   .     S
C220   C223    1.412   .     A
C221   C224    1.421   .     A
C221   C226    1.446   .     A
C222   C239    1.433   .     S
C222   O275    1.291   .     A
C222   O273    1.300   .     A
C223   C227    1.425   .     A
C223   C225    1.404   .     A
C224   C866    1.390   .     S
C225   C867    1.381   1_554 S
C226   C235    1.434   .     A
C226   C857    1.434   .     S
C227   C233    1.412   .     A
C227   C856    1.434   1_554 S
C228   H248    1.104   .     S
C228   C229    1.535   .     S
C228   H338    1.111   .     S
C228   O350    1.405   .     S
C229   H250    1.109   .     S
C229   C230    1.533   .     S
C229   H319    1.111   .     S
C230   H251    1.109   .     S
C230   H253    1.110   .     S
C230   H462    1.108   .     S
C231   H255    1.114   .     S
C231   H254    1.107   .     S
C231   O272    1.408   .     S
C231   C302    1.520   .     S
C232   H257    1.106   .     S
C232   H256    1.109   .     S
C232   C371    1.520   1_455 S
C233   C236    1.384   .     A
C233   Cl243   1.760   .     S
C234   H260    1.109   .     S
C234   H259    1.109   .     S
C234   C442    1.525   .     S
C234   H401    1.111   1_455 S
C235   Cl244   1.739   .     S
C235   C237    1.390   .     A
C236   H247    1.085   .     S
C236   C854    1.390   1_554 S
C237   C855    1.381   .     S
C237   H328    1.086   .     S
C238   C449    1.327   .     S
C238   H476    1.083   .     S
C240   O276    1.312   .     A
C240   O278    1.304   .     A
Cl241  C358    1.762   1_455 S
Cl242  C287    1.755   .     S
Cu245  Cu246   2.707   .     S
Cu245  O271    1.968   .     S
Cu245  O275    1.960   .     S
Cu245  O279    1.941   .     S
Cu245  N270    2.034   .     S
Cu245  O276    1.957   .     S
Cu246  O278    1.941   .     S
Cu246  N269    2.034   .     S
Cu246  O277    1.957   .     S
Cu246  O274    1.960   .     S
Cu246  O273    1.968   .     S
H249   C369    1.111   1_455 S
H258   C377    1.086   1_455 S
H261   C304    1.111   .     S
H264   C285    1.085   .     S
H265   C356    1.085   1_455 S
H267   C449    1.085   .     S
H268   C368    1.111   1_455 S
N269   N340    1.286   .     S
N269   O350    1.345   .     S
N270   N409    1.286   1_455 S
N270   O412    1.345   1_455 S
O272   N340    1.345   .     S
O280   N409    1.345   1_455 S
O280   C368    1.405   1_455 S
C281   C308    1.432   .     S
C281   O344    1.293   .     A
C281   O341    1.297   .     A
C282   O349    1.314   .     A
C282   C284    1.485   .     S
C282   O347    1.302   .     A
C283   C310    1.486   .     S
C283   C289    1.408   .     A
C283   C287    1.405   .     A
C284   C288    1.420   .     A
C284   C290    1.409   .     A
C285   C294    1.402   .     A
C285   C287    1.391   .     A
C286   C288    1.389   .     A
C286   C295    1.394   .     A
C286   H405    1.085   .     S
C288   Cl381   1.762   .     S
C289   C291    1.416   .     A
C289   H333    1.068   .     S
C290   H332    1.082   .     S
C290   C293    1.412   .     A
C291   C294    1.421   .     A
C291   C296    1.446   .     A
C292   C309    1.433   .     S
C292   O345    1.291   .     A
C292   O343    1.300   .     A
C293   C297    1.425   .     A
C293   C295    1.404   .     A
C294   C936    1.390   .     S
C295   C937    1.381   1_554 S
C296   C305    1.434   .     A
C296   C927    1.434   .     S
C297   C303    1.412   .     A
C297   C926    1.434   1_554 S
C298   H318    1.104   .     S
C298   C299    1.535   .     S
C298   H408    1.111   .     S
C298   O420    1.405   .     S
C299   H320    1.109   .     S
C299   C300    1.533   .     S
C299   H389    1.111   .     S
C300   H321    1.109   .     S
C300   H323    1.110   .     S
C300   H532    1.108   .     S
C301   H325    1.114   .     S
C301   H324    1.107   .     S
C301   O342    1.408   .     S
C301   C372    1.520   .     S
C302   H327    1.106   .     S
C302   H326    1.109   .     S
C303   C306    1.384   .     A
C303   Cl313   1.760   .     S
C304   H330    1.109   .     S
C304   H329    1.109   .     S
C304   C512    1.525   .     S
C305   Cl314   1.739   .     S
C305   C307    1.390   .     A
C306   H317    1.085   .     S
C306   C924    1.390   1_554 S
C307   C925    1.381   .     S
C307   H398    1.086   .     S
C308   C519    1.327   .     S
C308   H546    1.083   .     S
C310   O346    1.312   .     A
C310   O348    1.304   .     A
Cl312  C357    1.755   .     S
Cu315  Cu316   2.707   .     S
Cu315  O341    1.968   .     S
Cu315  O345    1.960   .     S
Cu315  O349    1.941   .     S
Cu315  N340    2.034   .     S
Cu315  O346    1.957   .     S
Cu316  O348    1.941   .     S
Cu316  N339    2.034   .     S
Cu316  O347    1.957   .     S
Cu316  O344    1.960   .     S
Cu316  O343    1.968   .     S
H331   C374    1.111   .     S
H334   C355    1.085   .     S
H337   C519    1.085   .     S
N339   N410    1.286   .     S
N339   O420    1.345   .     S
O342   N410    1.345   .     S
C351   C378    1.432   .     S
C351   O414    1.293   .     A
C351   O411    1.297   .     A
C352   O419    1.314   .     A
C352   C354    1.485   .     S
C352   O417    1.302   .     A
C353   C380    1.486   .     S
C353   C359    1.408   .     A
C353   C357    1.405   .     A
C354   C358    1.420   .     A
C354   C360    1.409   .     A
C355   C364    1.402   .     A
C355   C357    1.391   .     A
C356   C358    1.389   .     A
C356   C365    1.394   .     A
C356   H265    1.085   1_655 S
C358   Cl241   1.762   1_655 S
C359   C361    1.416   .     A
C359   H403    1.068   .     S
C360   H402    1.082   .     S
C360   C363    1.412   .     A
C361   C364    1.421   .     A
C361   C366    1.446   .     A
C362   C379    1.433   .     S
C362   O415    1.291   .     A
C362   O413    1.300   .     A
C363   C367    1.425   .     A
C363   C365    1.404   .     A
C364   C1006   1.390   .     S
C365   C1007   1.381   1_554 S
C366   C375    1.434   .     A
C366   C997    1.434   .     S
C367   C373    1.412   .     A
C367   C996    1.434   1_554 S
C368   H388    1.104   .     S
C368   C369    1.535   .     S
C368   H268    1.111   1_655 S
C368   O280    1.405   1_655 S
C369   H390    1.109   .     S
C369   C370    1.533   .     S
C369   H249    1.111   1_655 S
C370   H391    1.109   .     S
C370   H393    1.110   .     S
C370   H602    1.108   .     S
C371   H395    1.114   .     S
C371   H394    1.107   .     S
C371   O412    1.408   .     S
C371   C232    1.520   1_655 S
C372   H397    1.106   .     S
C372   H396    1.109   .     S
C373   C376    1.384   .     A
C373   Cl383   1.760   .     S
C374   H400    1.109   .     S
C374   H399    1.109   .     S
C374   C582    1.525   .     S
C375   Cl384   1.739   .     S
C375   C377    1.390   .     A
C376   H387    1.085   .     S
C376   C994    1.390   1_554 S
C377   C995    1.381   .     S
C377   H258    1.086   1_655 S
C378   C589    1.327   .     S
C378   H616    1.083   .     S
C380   O416    1.312   .     A
C380   O418    1.304   .     A
Cl382  C217    1.755   1_655 S
Cu385  Cu386   2.707   .     S
Cu385  O411    1.968   .     S
Cu385  O415    1.960   .     S
Cu385  O419    1.941   .     S
Cu385  N410    2.034   .     S
Cu385  O416    1.957   .     S
Cu386  O418    1.941   .     S
Cu386  N409    2.034   .     S
Cu386  O417    1.957   .     S
Cu386  O414    1.960   .     S
Cu386  O413    1.968   .     S
H401   C234    1.111   1_655 S
H404   C215    1.085   1_655 S
H407   C589    1.085   .     S
N409   N270    1.286   1_655 S
N409   O280    1.345   1_655 S
O412   N270    1.345   1_655 S
C421   C448    1.432   .     S
C421   O484    1.293   .     A
C421   O481    1.297   .     A
C422   O489    1.314   .     A
C422   C424    1.485   .     S
C422   O487    1.302   .     A
C423   C450    1.486   .     S
C423   C429    1.408   .     A
C423   C427    1.405   .     A
C424   C428    1.420   .     A
C424   C430    1.409   .     A
C425   C434    1.402   .     A
C425   C427    1.391   .     A
C425   H614    1.085   1_455 S
C426   C428    1.389   .     A
C426   C435    1.394   .     A
C426   H545    1.085   .     S
C427   Cl592   1.755   1_455 S
C428   Cl521   1.762   .     S
C429   C431    1.416   .     A
C429   H473    1.068   .     S
C430   H472    1.082   .     S
C430   C433    1.412   .     A
C431   C434    1.421   .     A
C431   C436    1.446   .     A
C432   C449    1.433   .     S
C432   O485    1.291   .     A
C432   O483    1.300   .     A
C433   C437    1.425   .     A
C433   C435    1.404   .     A
C434   C1076   1.390   .     S
C435   C1077   1.381   1_554 S
C436   C445    1.434   .     A
C436   C1067   1.434   .     S
C437   C443    1.412   .     A
C437   C1066   1.434   1_554 S
C438   H458    1.104   .     S
C438   C439    1.535   .     S
C438   H548    1.111   .     S
C438   O560    1.405   .     S
C439   H460    1.109   .     S
C439   C440    1.533   .     S
C439   H529    1.111   .     S
C440   H461    1.109   .     S
C440   H463    1.110   .     S
C440   H42     1.108   1_565 S
C441   H465    1.114   .     S
C441   H464    1.107   .     S
C441   O482    1.408   .     S
C441   C512    1.520   .     S
C442   H467    1.106   .     S
C442   H466    1.109   .     S
C442   C581    1.520   1_455 S
C443   C446    1.384   .     A
C443   Cl453   1.760   .     S
C444   H470    1.109   .     S
C444   H469    1.109   .     S
C444   C22     1.525   1_565 S
C444   H611    1.111   1_455 S
C445   Cl454   1.739   .     S
C445   C447    1.390   .     A
C446   H457    1.085   .     S
C446   C1064   1.390   1_554 S
C447   C1065   1.381   .     S
C447   H538    1.086   .     S
C448   C29     1.327   1_565 S
C448   H56     1.083   1_565 S
C450   O486    1.312   .     A
C450   O488    1.304   .     A
Cl451  C568    1.762   1_455 S
Cl452  C497    1.755   .     S
Cu455  Cu456   2.707   .     S
Cu455  O481    1.968   .     S
Cu455  O485    1.960   .     S
Cu455  O489    1.941   .     S
Cu455  N480    2.034   .     S
Cu455  O486    1.957   .     S
Cu456  O488    1.941   .     S
Cu456  N479    2.034   .     S
Cu456  O487    1.957   .     S
Cu456  O484    1.960   .     S
Cu456  O483    1.968   .     S
H459   C579    1.111   1_455 S
H468   C587    1.086   1_455 S
H471   C514    1.111   .     S
H474   C495    1.085   .     S
H475   C566    1.085   1_455 S
H477   C29     1.085   1_565 S
H478   C578    1.111   1_455 S
N479   N550    1.286   .     S
N479   O560    1.345   .     S
N480   N619    1.286   1_455 S
N480   O622    1.345   1_455 S
O482   N550    1.345   .     S
O490   N619    1.345   1_455 S
O490   C578    1.405   1_455 S
C491   C518    1.432   .     S
C491   O554    1.293   .     A
C491   O551    1.297   .     A
C492   O559    1.314   .     A
C492   C494    1.485   .     S
C492   O557    1.302   .     A
C493   C520    1.486   .     S
C493   C499    1.408   .     A
C493   C497    1.405   .     A
C494   C498    1.420   .     A
C494   C500    1.409   .     A
C495   C504    1.402   .     A
C495   C497    1.391   .     A
C496   C498    1.389   .     A
C496   C505    1.394   .     A
C496   H615    1.085   .     S
C498   Cl591   1.762   .     S
C499   C501    1.416   .     A
C499   H543    1.068   .     S
C500   H542    1.082   .     S
C500   C503    1.412   .     A
C501   C504    1.421   .     A
C501   C506    1.446   .     A
C502   C519    1.433   .     S
C502   O555    1.291   .     A
C502   O553    1.300   .     A
C503   C507    1.425   .     A
C503   C505    1.404   .     A
C504   C1146   1.390   .     S
C505   C1147   1.381   1_554 S
C506   C515    1.434   .     A
C506   C1137   1.434   .     S
C507   C513    1.412   .     A
C507   C1136   1.434   1_554 S
C508   H528    1.104   .     S
C508   C509    1.535   .     S
C508   H618    1.111   .     S
C508   O630    1.405   .     S
C509   H530    1.109   .     S
C509   C510    1.533   .     S
C509   H599    1.111   .     S
C510   H531    1.109   .     S
C510   H533    1.110   .     S
C510   H112    1.108   1_565 S
C511   H535    1.114   .     S
C511   H534    1.107   .     S
C511   O552    1.408   .     S
C511   C582    1.520   .     S
C512   H537    1.106   .     S
C512   H536    1.109   .     S
C513   C516    1.384   .     A
C513   Cl523   1.760   .     S
C514   H540    1.109   .     S
C514   H539    1.109   .     S
C514   C92     1.525   1_565 S
C515   Cl524   1.739   .     S
C515   C517    1.390   .     A
C516   H527    1.085   .     S
C516   C1134   1.390   1_554 S
C517   C1135   1.381   .     S
C517   H608    1.086   .     S
C518   C99     1.327   1_565 S
C518   H126    1.083   1_565 S
C520   O556    1.312   .     A
C520   O558    1.304   .     A
Cl522  C567    1.755   .     S
Cu525  Cu526   2.707   .     S
Cu525  O551    1.968   .     S
Cu525  O555    1.960   .     S
Cu525  O559    1.941   .     S
Cu525  N550    2.034   .     S
Cu525  O556    1.957   .     S
Cu526  O558    1.941   .     S
Cu526  N549    2.034   .     S
Cu526  O557    1.957   .     S
Cu526  O554    1.960   .     S
Cu526  O553    1.968   .     S
H541   C584    1.111   .     S
H544   C565    1.085   .     S
H547   C99     1.085   1_565 S
N549   N620    1.286   .     S
N549   O630    1.345   .     S
O552   N620    1.345   .     S
C561   C588    1.432   .     S
C561   O624    1.293   .     A
C561   O621    1.297   .     A
C562   O629    1.314   .     A
C562   C564    1.485   .     S
C562   O627    1.302   .     A
C563   C590    1.486   .     S
C563   C569    1.408   .     A
C563   C567    1.405   .     A
C564   C568    1.420   .     A
C564   C570    1.409   .     A
C565   C574    1.402   .     A
C565   C567    1.391   .     A
C566   C568    1.389   .     A
C566   C575    1.394   .     A
C566   H475    1.085   1_655 S
C568   Cl451   1.762   1_655 S
C569   C571    1.416   .     A
C569   H613    1.068   .     S
C570   H612    1.082   .     S
C570   C573    1.412   .     A
C571   C574    1.421   .     A
C571   C576    1.446   .     A
C572   C589    1.433   .     S
C572   O625    1.291   .     A
C572   O623    1.300   .     A
C573   C577    1.425   .     A
C573   C575    1.404   .     A
C574   C1216   1.390   .     S
C575   C1217   1.381   1_554 S
C576   C585    1.434   .     A
C576   C1207   1.434   .     S
C577   C583    1.412   .     A
C577   C1206   1.434   1_554 S
C578   H598    1.104   .     S
C578   C579    1.535   .     S
C578   H478    1.111   1_655 S
C578   O490    1.405   1_655 S
C579   H600    1.109   .     S
C579   C580    1.533   .     S
C579   H459    1.111   1_655 S
C580   H601    1.109   .     S
C580   H603    1.110   .     S
C580   H182    1.108   1_565 S
C581   H605    1.114   .     S
C581   H604    1.107   .     S
C581   O622    1.408   .     S
C581   C442    1.520   1_655 S
C582   H607    1.106   .     S
C582   H606    1.109   .     S
C583   C586    1.384   .     A
C583   Cl593   1.760   .     S
C584   H610    1.109   .     S
C584   H609    1.109   .     S
C584   C162    1.525   1_565 S
C585   Cl594   1.739   .     S
C585   C587    1.390   .     A
C586   H597    1.085   .     S
C586   C1204   1.390   1_554 S
C587   C1205   1.381   .     S
C587   H468    1.086   1_655 S
C588   C169    1.327   1_565 S
C588   H196    1.083   1_565 S
C590   O626    1.312   .     A
C590   O628    1.304   .     A
Cl592  C427    1.755   1_655 S
Cu595  Cu596   2.707   .     S
Cu595  O621    1.968   .     S
Cu595  O625    1.960   .     S
Cu595  O629    1.941   .     S
Cu595  N620    2.034   .     S
Cu595  O626    1.957   .     S
Cu596  O628    1.941   .     S
Cu596  N619    2.034   .     S
Cu596  O627    1.957   .     S
Cu596  O624    1.960   .     S
Cu596  O623    1.968   .     S
H611   C444    1.111   1_655 S
H614   C425    1.085   1_655 S
H617   C169    1.085   1_565 S
N619   N480    1.286   1_655 S
N619   O490    1.345   1_655 S
O622   N480    1.345   1_655 S
C631   C658    1.432   .     S
C631   O694    1.293   .     A
C631   O691    1.297   .     A
C632   O699    1.314   .     A
C632   C634    1.485   .     S
C632   O697    1.302   .     A
C633   C660    1.486   .     S
C633   C639    1.408   .     A
C633   C637    1.405   .     A
C634   C638    1.420   .     A
C634   C640    1.409   .     A
C635   C644    1.402   .     A
C635   C637    1.391   .     A
C635   H824    1.085   1_455 S
C636   C638    1.389   .     A
C636   C645    1.394   .     A
C636   H755    1.085   .     S
C637   Cl802   1.755   1_455 S
C638   Cl731   1.762   .     S
C639   C641    1.416   .     A
C639   H683    1.068   .     S
C640   H682    1.082   .     S
C640   C643    1.412   .     A
C641   C644    1.421   .     A
C641   C646    1.446   .     A
C642   C659    1.433   .     S
C642   O695    1.291   .     A
C642   O693    1.300   .     A
C643   C647    1.425   .     A
C643   C645    1.404   .     A
C644   C26     1.390   1_556 S
C646   C655    1.434   .     A
C646   C17     1.434   1_556 S
C647   C653    1.412   .     A
C648   H668    1.104   .     S
C648   C649    1.535   .     S
C648   H758    1.111   .     S
C648   O770    1.405   .     S
C649   H670    1.109   .     S
C649   C650    1.533   .     S
C649   H739    1.111   .     S
C650   H671    1.109   .     S
C650   H673    1.110   .     S
C650   H882    1.108   .     S
C651   H675    1.114   .     S
C651   H674    1.107   .     S
C651   O692    1.408   .     S
C651   C722    1.520   .     S
C652   H677    1.106   .     S
C652   H676    1.109   .     S
C652   C791    1.520   1_455 S
C652   C1074   1.525   1_545 S
C653   C656    1.384   .     A
C653   Cl663   1.760   .     S
C654   H680    1.109   .     S
C654   H679    1.109   .     S
C654   C862    1.525   .     S
C654   H821    1.111   1_455 S
C655   Cl664   1.739   .     S
C655   C657    1.390   .     A
C656   H667    1.085   .     S
C657   C15     1.381   1_556 S
C657   H748    1.086   .     S
C658   C869    1.327   .     S
C658   H896    1.083   .     S
C659   C1078   1.327   1_545 S
C659   H1107   1.085   1_545 S
C660   O696    1.312   .     A
C660   O698    1.304   .     A
Cl661  C778    1.762   1_455 S
Cl662  C707    1.755   .     S
Cu665  Cu666   2.707   .     S
Cu665  O691    1.968   .     S
Cu665  O695    1.960   .     S
Cu665  O699    1.941   .     S
Cu665  N690    2.034   .     S
Cu665  O696    1.957   .     S
Cu666  O698    1.941   .     S
Cu666  N689    2.034   .     S
Cu666  O697    1.957   .     S
Cu666  O694    1.960   .     S
Cu666  O693    1.968   .     S
H669   C789    1.111   1_455 S
H672   C1070   1.108   1_545 S
H678   C797    1.086   1_455 S
H681   C724    1.111   .     S
H684   C705    1.085   .     S
H685   C776    1.085   1_455 S
H686   C1078   1.083   1_545 S
H687   C869    1.085   .     S
H688   C788    1.111   1_455 S
N689   N760    1.286   .     S
N689   O770    1.345   .     S
N690   N829    1.286   1_455 S
N690   O832    1.345   1_455 S
O692   N760    1.345   .     S
O700   N829    1.345   1_455 S
O700   C788    1.405   1_455 S
C701   C728    1.432   .     S
C701   O764    1.293   .     A
C701   O761    1.297   .     A
C702   O769    1.314   .     A
C702   C704    1.485   .     S
C702   O767    1.302   .     A
C703   C730    1.486   .     S
C703   C709    1.408   .     A
C703   C707    1.405   .     A
C704   C708    1.420   .     A
C704   C710    1.409   .     A
C705   C714    1.402   .     A
C705   C707    1.391   .     A
C706   C708    1.389   .     A
C706   C715    1.394   .     A
C706   H825    1.085   .     S
C708   Cl801   1.762   .     S
C709   C711    1.416   .     A
C709   H753    1.068   .     S
C710   H752    1.082   .     S
C710   C713    1.412   .     A
C711   C714    1.421   .     A
C711   C716    1.446   .     A
C712   C729    1.433   .     S
C712   O765    1.291   .     A
C712   O763    1.300   .     A
C713   C717    1.425   .     A
C713   C715    1.404   .     A
C714   C96     1.390   1_556 S
C716   C725    1.434   .     A
C716   C87     1.434   1_556 S
C717   C723    1.412   .     A
C718   H738    1.104   .     S
C718   C719    1.535   .     S
C718   H828    1.111   .     S
C718   O840    1.405   .     S
C719   H740    1.109   .     S
C719   C720    1.533   .     S
C719   H809    1.111   .     S
C720   H741    1.109   .     S
C720   H743    1.110   .     S
C720   H952    1.108   .     S
C721   H745    1.114   .     S
C721   H744    1.107   .     S
C721   O762    1.408   .     S
C721   C792    1.520   .     S
C722   H747    1.106   .     S
C722   H746    1.109   .     S
C722   C1144   1.525   1_545 S
C723   C726    1.384   .     A
C723   Cl733   1.760   .     S
C724   H750    1.109   .     S
C724   H749    1.109   .     S
C724   C932    1.525   .     S
C725   Cl734   1.739   .     S
C725   C727    1.390   .     A
C726   H737    1.085   .     S
C727   C85     1.381   1_556 S
C727   H818    1.086   .     S
C728   C939    1.327   .     S
C728   H966    1.083   .     S
C729   C1148   1.327   1_545 S
C729   H1177   1.085   1_545 S
C730   O766    1.312   .     A
C730   O768    1.304   .     A
Cl732  C777    1.755   .     S
Cu735  Cu736   2.707   .     S
Cu735  O761    1.968   .     S
Cu735  O765    1.960   .     S
Cu735  O769    1.941   .     S
Cu735  N760    2.034   .     S
Cu735  O766    1.957   .     S
Cu736  O768    1.941   .     S
Cu736  N759    2.034   .     S
Cu736  O767    1.957   .     S
Cu736  O764    1.960   .     S
Cu736  O763    1.968   .     S
H742   C1140   1.108   1_545 S
H751   C794    1.111   .     S
H754   C775    1.085   .     S
H756   C1148   1.083   1_545 S
H757   C939    1.085   .     S
N759   N830    1.286   .     S
N759   O840    1.345   .     S
O762   N830    1.345   .     S
C771   C798    1.432   .     S
C771   O834    1.293   .     A
C771   O831    1.297   .     A
C772   O839    1.314   .     A
C772   C774    1.485   .     S
C772   O837    1.302   .     A
C773   C800    1.486   .     S
C773   C779    1.408   .     A
C773   C777    1.405   .     A
C774   C778    1.420   .     A
C774   C780    1.409   .     A
C775   C784    1.402   .     A
C775   C777    1.391   .     A
C776   C778    1.389   .     A
C776   C785    1.394   .     A
C776   H685    1.085   1_655 S
C778   Cl661   1.762   1_655 S
C779   C781    1.416   .     A
C779   H823    1.068   .     S
C780   H822    1.082   .     S
C780   C783    1.412   .     A
C781   C784    1.421   .     A
C781   C786    1.446   .     A
C782   C799    1.433   .     S
C782   O835    1.291   .     A
C782   O833    1.300   .     A
C783   C787    1.425   .     A
C783   C785    1.404   .     A
C784   C166    1.390   1_556 S
C786   C795    1.434   .     A
C786   C157    1.434   1_556 S
C787   C793    1.412   .     A
C788   H808    1.104   .     S
C788   C789    1.535   .     S
C788   H688    1.111   1_655 S
C788   O700    1.405   1_655 S
C789   H810    1.109   .     S
C789   C790    1.533   .     S
C789   H669    1.111   1_655 S
C790   H811    1.109   .     S
C790   H813    1.110   .     S
C790   H1022   1.108   .     S
C791   H815    1.114   .     S
C791   H814    1.107   .     S
C791   O832    1.408   .     S
C791   C652    1.520   1_655 S
C792   H817    1.106   .     S
C792   H816    1.109   .     S
C792   C1214   1.525   1_545 S
C793   C796    1.384   .     A
C793   Cl803   1.760   .     S
C794   H820    1.109   .     S
C794   H819    1.109   .     S
C794   C1002   1.525   .     S
C795   Cl804   1.739   .     S
C795   C797    1.390   .     A
C796   H807    1.085   .     S
C797   C155    1.381   1_556 S
C797   H678    1.086   1_655 S
C798   C1009   1.327   .     S
C798   H1036   1.083   .     S
C799   C1218   1.327   1_545 S
C799   H1247   1.085   1_545 S
C800   O836    1.312   .     A
C800   O838    1.304   .     A
Cl802  C637    1.755   1_655 S
Cu805  Cu806   2.707   .     S
Cu805  O831    1.968   .     S
Cu805  O835    1.960   .     S
Cu805  O839    1.941   .     S
Cu805  N830    2.034   .     S
Cu805  O836    1.957   .     S
Cu806  O838    1.941   .     S
Cu806  N829    2.034   .     S
Cu806  O837    1.957   .     S
Cu806  O834    1.960   .     S
Cu806  O833    1.968   .     S
H812   C1210   1.108   1_545 S
H821   C654    1.111   1_655 S
H824   C635    1.085   1_655 S
H826   C1218   1.083   1_545 S
H827   C1009   1.085   .     S
N829   N690    1.286   1_655 S
N829   O700    1.345   1_655 S
O832   N690    1.345   1_655 S
C841   C868    1.432   .     S
C841   O904    1.293   .     A
C841   O901    1.297   .     A
C842   O909    1.314   .     A
C842   C844    1.485   .     S
C842   O907    1.302   .     A
C843   C870    1.486   .     S
C843   C849    1.408   .     A
C843   C847    1.405   .     A
C844   C848    1.420   .     A
C844   C850    1.409   .     A
C845   C854    1.402   .     A
C845   C847    1.391   .     A
C845   H1034   1.085   1_455 S
C846   C848    1.389   .     A
C846   C855    1.394   .     A
C846   H965    1.085   .     S
C847   Cl1012  1.755   1_455 S
C848   Cl941   1.762   .     S
C849   C851    1.416   .     A
C849   H893    1.068   .     S
C850   H892    1.082   .     S
C850   C853    1.412   .     A
C851   C854    1.421   .     A
C851   C856    1.446   .     A
C852   C869    1.433   .     S
C852   O905    1.291   .     A
C852   O903    1.300   .     A
C853   C857    1.425   .     A
C853   C855    1.404   .     A
C854   C236    1.390   1_556 S
C856   C865    1.434   .     A
C856   C227    1.434   1_556 S
C857   C863    1.412   .     A
C858   H878    1.104   .     S
C858   C859    1.535   .     S
C858   H968    1.111   .     S
C858   O980    1.405   .     S
C859   H880    1.109   .     S
C859   C860    1.533   .     S
C859   H949    1.111   .     S
C860   H881    1.109   .     S
C860   H883    1.110   .     S
C860   H1092   1.108   .     S
C861   H885    1.114   .     S
C861   H884    1.107   .     S
C861   O902    1.408   .     S
C861   C932    1.520   .     S
C862   H887    1.106   .     S
C862   H886    1.109   .     S
C862   C1001   1.520   1_455 S
C863   C866    1.384   .     A
C863   Cl873   1.760   .     S
C864   H890    1.109   .     S
C864   H889    1.109   .     S
C864   C1072   1.525   .     S
C864   H1031   1.111   1_455 S
C865   Cl874   1.739   .     S
C865   C867    1.390   .     A
C866   H877    1.085   .     S
C867   C225    1.381   1_556 S
C867   H958    1.086   .     S
C868   C1079   1.327   .     S
C868   H1106   1.083   .     S
C870   O906    1.312   .     A
C870   O908    1.304   .     A
Cl871  C988    1.762   1_455 S
Cl872  C917    1.755   .     S
Cu875  Cu876   2.707   .     S
Cu875  O901    1.968   .     S
Cu875  O905    1.960   .     S
Cu875  O909    1.941   .     S
Cu875  N900    2.034   .     S
Cu875  O906    1.957   .     S
Cu876  O908    1.941   .     S
Cu876  N899    2.034   .     S
Cu876  O907    1.957   .     S
Cu876  O904    1.960   .     S
Cu876  O903    1.968   .     S
H879   C999    1.111   1_455 S
H888   C1007   1.086   1_455 S
H891   C934    1.111   .     S
H894   C915    1.085   .     S
H895   C986    1.085   1_455 S
H897   C1079   1.085   .     S
H898   C998    1.111   1_455 S
N899   N970    1.286   .     S
N899   O980    1.345   .     S
N900   N1039   1.286   1_455 S
N900   O1042   1.345   1_455 S
O902   N970    1.345   .     S
O910   N1039   1.345   1_455 S
O910   C998    1.405   1_455 S
C911   C938    1.432   .     S
C911   O974    1.293   .     A
C911   O971    1.297   .     A
C912   O979    1.314   .     A
C912   C914    1.485   .     S
C912   O977    1.302   .     A
C913   C940    1.486   .     S
C913   C919    1.408   .     A
C913   C917    1.405   .     A
C914   C918    1.420   .     A
C914   C920    1.409   .     A
C915   C924    1.402   .     A
C915   C917    1.391   .     A
C916   C918    1.389   .     A
C916   C925    1.394   .     A
C916   H1035   1.085   .     S
C918   Cl1011  1.762   .     S
C919   C921    1.416   .     A
C919   H963    1.068   .     S
C920   H962    1.082   .     S
C920   C923    1.412   .     A
C921   C924    1.421   .     A
C921   C926    1.446   .     A
C922   C939    1.433   .     S
C922   O975    1.291   .     A
C922   O973    1.300   .     A
C923   C927    1.425   .     A
C923   C925    1.404   .     A
C924   C306    1.390   1_556 S
C926   C935    1.434   .     A
C926   C297    1.434   1_556 S
C927   C933    1.412   .     A
C928   H948    1.104   .     S
C928   C929    1.535   .     S
C928   H1038   1.111   .     S
C928   O1050   1.405   .     S
C929   H950    1.109   .     S
C929   C930    1.533   .     S
C929   H1019   1.111   .     S
C930   H951    1.109   .     S
C930   H953    1.110   .     S
C930   H1162   1.108   .     S
C931   H955    1.114   .     S
C931   H954    1.107   .     S
C931   O972    1.408   .     S
C931   C1002   1.520   .     S
C932   H957    1.106   .     S
C932   H956    1.109   .     S
C933   C936    1.384   .     A
C933   Cl943   1.760   .     S
C934   H960    1.109   .     S
C934   H959    1.109   .     S
C934   C1142   1.525   .     S
C935   Cl944   1.739   .     S
C935   C937    1.390   .     A
C936   H947    1.085   .     S
C937   C295    1.381   1_556 S
C937   H1028   1.086   .     S
C938   C1149   1.327   .     S
C938   H1176   1.083   .     S
C940   O976    1.312   .     A
C940   O978    1.304   .     A
Cl942  C987    1.755   .     S
Cu945  Cu946   2.707   .     S
Cu945  O971    1.968   .     S
Cu945  O975    1.960   .     S
Cu945  O979    1.941   .     S
Cu945  N970    2.034   .     S
Cu945  O976    1.957   .     S
Cu946  O978    1.941   .     S
Cu946  N969    2.034   .     S
Cu946  O977    1.957   .     S
Cu946  O974    1.960   .     S
Cu946  O973    1.968   .     S
H961   C1004   1.111   .     S
H964   C985    1.085   .     S
H967   C1149   1.085   .     S
N969   N1040   1.286   .     S
N969   O1050   1.345   .     S
O972   N1040   1.345   .     S
C981   C1008   1.432   .     S
C981   O1044   1.293   .     A
C981   O1041   1.297   .     A
C982   O1049   1.314   .     A
C982   C984    1.485   .     S
C982   O1047   1.302   .     A
C983   C1010   1.486   .     S
C983   C989    1.408   .     A
C983   C987    1.405   .     A
C984   C988    1.420   .     A
C984   C990    1.409   .     A
C985   C994    1.402   .     A
C985   C987    1.391   .     A
C986   C988    1.389   .     A
C986   C995    1.394   .     A
C986   H895    1.085   1_655 S
C988   Cl871   1.762   1_655 S
C989   C991    1.416   .     A
C989   H1033   1.068   .     S
C990   H1032   1.082   .     S
C990   C993    1.412   .     A
C991   C994    1.421   .     A
C991   C996    1.446   .     A
C992   C1009   1.433   .     S
C992   O1045   1.291   .     A
C992   O1043   1.300   .     A
C993   C997    1.425   .     A
C993   C995    1.404   .     A
C994   C376    1.390   1_556 S
C996   C1005   1.434   .     A
C996   C367    1.434   1_556 S
C997   C1003   1.412   .     A
C998   H1018   1.104   .     S
C998   C999    1.535   .     S
C998   H898    1.111   1_655 S
C998   O910    1.405   1_655 S
C999   H1020   1.109   .     S
C999   C1000   1.533   .     S
C999   H879    1.111   1_655 S
C1000  H1021   1.109   .     S
C1000  H1023   1.110   .     S
C1000  H1232   1.108   .     S
C1001  H1025   1.114   .     S
C1001  H1024   1.107   .     S
C1001  O1042   1.408   .     S
C1001  C862    1.520   1_655 S
C1002  H1027   1.106   .     S
C1002  H1026   1.109   .     S
C1003  C1006   1.384   .     A
C1003  Cl1013  1.760   .     S
C1004  H1030   1.109   .     S
C1004  H1029   1.109   .     S
C1004  C1212   1.525   .     S
C1005  Cl1014  1.739   .     S
C1005  C1007   1.390   .     A
C1006  H1017   1.085   .     S
C1007  C365    1.381   1_556 S
C1007  H888    1.086   1_655 S
C1008  C1219   1.327   .     S
C1008  H1246   1.083   .     S
C1010  O1046   1.312   .     A
C1010  O1048   1.304   .     A
Cl1012 C847    1.755   1_655 S
Cu1015 Cu1016  2.707   .     S
Cu1015 O1041   1.968   .     S
Cu1015 O1045   1.960   .     S
Cu1015 O1049   1.941   .     S
Cu1015 N1040   2.034   .     S
Cu1015 O1046   1.957   .     S
Cu1016 O1048   1.941   .     S
Cu1016 N1039   2.034   .     S
Cu1016 O1047   1.957   .     S
Cu1016 O1044   1.960   .     S
Cu1016 O1043   1.968   .     S
H1031  C864    1.111   1_655 S
H1034  C845    1.085   1_655 S
H1037  C1219   1.085   .     S
N1039  N900    1.286   1_655 S
N1039  O910    1.345   1_655 S
O1042  N900    1.345   1_655 S
C1051  C1078   1.432   .     S
C1051  O1114   1.293   .     A
C1051  O1111   1.297   .     A
C1052  O1119   1.314   .     A
C1052  C1054   1.485   .     S
C1052  O1117   1.302   .     A
C1053  C1080   1.486   .     S
C1053  C1059   1.408   .     A
C1053  C1057   1.405   .     A
C1054  C1058   1.420   .     A
C1054  C1060   1.409   .     A
C1055  C1064   1.402   .     A
C1055  C1057   1.391   .     A
C1055  H1244   1.085   1_455 S
C1056  C1058   1.389   .     A
C1056  C1065   1.394   .     A
C1056  H1175   1.085   .     S
C1057  Cl1222  1.755   1_455 S
C1058  Cl1151  1.762   .     S
C1059  C1061   1.416   .     A
C1059  H1103   1.068   .     S
C1060  H1102   1.082   .     S
C1060  C1063   1.412   .     A
C1061  C1064   1.421   .     A
C1061  C1066   1.446   .     A
C1062  C1079   1.433   .     S
C1062  O1115   1.291   .     A
C1062  O1113   1.300   .     A
C1063  C1067   1.425   .     A
C1063  C1065   1.404   .     A
C1064  C446    1.390   1_556 S
C1066  C1075   1.434   .     A
C1066  C437    1.434   1_556 S
C1067  C1073   1.412   .     A
C1068  H1088   1.104   .     S
C1068  C1069   1.535   .     S
C1068  H1178   1.111   .     S
C1068  O1190   1.405   .     S
C1069  H1090   1.109   .     S
C1069  C1070   1.533   .     S
C1069  H1159   1.111   .     S
C1070  H1091   1.109   .     S
C1070  H1093   1.110   .     S
C1070  H672    1.108   1_565 S
C1071  H1095   1.114   .     S
C1071  H1094   1.107   .     S
C1071  O1112   1.408   .     S
C1071  C1142   1.520   .     S
C1072  H1097   1.106   .     S
C1072  H1096   1.109   .     S
C1072  C1211   1.520   1_455 S
C1073  C1076   1.384   .     A
C1073  Cl1083  1.760   .     S
C1074  H1100   1.109   .     S
C1074  H1099   1.109   .     S
C1074  C652    1.525   1_565 S
C1074  H1241   1.111   1_455 S
C1075  Cl1084  1.739   .     S
C1075  C1077   1.390   .     A
C1076  H1087   1.085   .     S
C1077  C435    1.381   1_556 S
C1077  H1168   1.086   .     S
C1078  C659    1.327   1_565 S
C1078  H686    1.083   1_565 S
C1080  O1116   1.312   .     A
C1080  O1118   1.304   .     A
Cl1081 C1198   1.762   1_455 S
Cl1082 C1127   1.755   .     S
Cu1085 Cu1086  2.707   .     S
Cu1085 O1111   1.968   .     S
Cu1085 O1115   1.960   .     S
Cu1085 O1119   1.941   .     S
Cu1085 N1110   2.034   .     S
Cu1085 O1116   1.957   .     S
Cu1086 O1118   1.941   .     S
Cu1086 N1109   2.034   .     S
Cu1086 O1117   1.957   .     S
Cu1086 O1114   1.960   .     S
Cu1086 O1113   1.968   .     S
H1089  C1209   1.111   1_455 S
H1098  C1217   1.086   1_455 S
H1101  C1144   1.111   .     S
H1104  C1125   1.085   .     S
H1105  C1196   1.085   1_455 S
H1107  C659    1.085   1_565 S
H1108  C1208   1.111   1_455 S
N1109  N1180   1.286   .     S
N1109  O1190   1.345   .     S
N1110  N1249   1.286   1_455 S
N1110  O1252   1.345   1_455 S
O1112  N1180   1.345   .     S
O1120  N1249   1.345   1_455 S
O1120  C1208   1.405   1_455 S
C1121  C1148   1.432   .     S
C1121  O1184   1.293   .     A
C1121  O1181   1.297   .     A
C1122  O1189   1.314   .     A
C1122  C1124   1.485   .     S
C1122  O1187   1.302   .     A
C1123  C1150   1.486   .     S
C1123  C1129   1.408   .     A
C1123  C1127   1.405   .     A
C1124  C1128   1.420   .     A
C1124  C1130   1.409   .     A
C1125  C1134   1.402   .     A
C1125  C1127   1.391   .     A
C1126  C1128   1.389   .     A
C1126  C1135   1.394   .     A
C1126  H1245   1.085   .     S
C1128  Cl1221  1.762   .     S
C1129  C1131   1.416   .     A
C1129  H1173   1.068   .     S
C1130  H1172   1.082   .     S
C1130  C1133   1.412   .     A
C1131  C1134   1.421   .     A
C1131  C1136   1.446   .     A
C1132  C1149   1.433   .     S
C1132  O1185   1.291   .     A
C1132  O1183   1.300   .     A
C1133  C1137   1.425   .     A
C1133  C1135   1.404   .     A
C1134  C516    1.390   1_556 S
C1136  C1145   1.434   .     A
C1136  C507    1.434   1_556 S
C1137  C1143   1.412   .     A
C1138  H1158   1.104   .     S
C1138  C1139   1.535   .     S
C1138  H1248   1.111   .     S
C1138  O1260   1.405   .     S
C1139  H1160   1.109   .     S
C1139  C1140   1.533   .     S
C1139  H1229   1.111   .     S
C1140  H1161   1.109   .     S
C1140  H1163   1.110   .     S
C1140  H742    1.108   1_565 S
C1141  H1165   1.114   .     S
C1141  H1164   1.107   .     S
C1141  O1182   1.408   .     S
C1141  C1212   1.520   .     S
C1142  H1167   1.106   .     S
C1142  H1166   1.109   .     S
C1143  C1146   1.384   .     A
C1143  Cl1153  1.760   .     S
C1144  H1170   1.109   .     S
C1144  H1169   1.109   .     S
C1144  C722    1.525   1_565 S
C1145  Cl1154  1.739   .     S
C1145  C1147   1.390   .     A
C1146  H1157   1.085   .     S
C1147  C505    1.381   1_556 S
C1147  H1238   1.086   .     S
C1148  C729    1.327   1_565 S
C1148  H756    1.083   1_565 S
C1150  O1186   1.312   .     A
C1150  O1188   1.304   .     A
Cl1152 C1197   1.755   .     S
Cu1155 Cu1156  2.707   .     S
Cu1155 O1181   1.968   .     S
Cu1155 O1185   1.960   .     S
Cu1155 O1189   1.941   .     S
Cu1155 N1180   2.034   .     S
Cu1155 O1186   1.957   .     S
Cu1156 O1188   1.941   .     S
Cu1156 N1179   2.034   .     S
Cu1156 O1187   1.957   .     S
Cu1156 O1184   1.960   .     S
Cu1156 O1183   1.968   .     S
H1171  C1214   1.111   .     S
H1174  C1195   1.085   .     S
H1177  C729    1.085   1_565 S
N1179  N1250   1.286   .     S
N1179  O1260   1.345   .     S
O1182  N1250   1.345   .     S
C1191  C1218   1.432   .     S
C1191  O1254   1.293   .     A
C1191  O1251   1.297   .     A
C1192  O1259   1.314   .     A
C1192  C1194   1.485   .     S
C1192  O1257   1.302   .     A
C1193  C1220   1.486   .     S
C1193  C1199   1.408   .     A
C1193  C1197   1.405   .     A
C1194  C1198   1.420   .     A
C1194  C1200   1.409   .     A
C1195  C1204   1.402   .     A
C1195  C1197   1.391   .     A
C1196  C1198   1.389   .     A
C1196  C1205   1.394   .     A
C1196  H1105   1.085   1_655 S
C1198  Cl1081  1.762   1_655 S
C1199  C1201   1.416   .     A
C1199  H1243   1.068   .     S
C1200  H1242   1.082   .     S
C1200  C1203   1.412   .     A
C1201  C1204   1.421   .     A
C1201  C1206   1.446   .     A
C1202  C1219   1.433   .     S
C1202  O1255   1.291   .     A
C1202  O1253   1.300   .     A
C1203  C1207   1.425   .     A
C1203  C1205   1.404   .     A
C1204  C586    1.390   1_556 S
C1206  C1215   1.434   .     A
C1206  C577    1.434   1_556 S
C1207  C1213   1.412   .     A
C1208  H1228   1.104   .     S
C1208  C1209   1.535   .     S
C1208  H1108   1.111   1_655 S
C1208  O1120   1.405   1_655 S
C1209  H1230   1.109   .     S
C1209  C1210   1.533   .     S
C1209  H1089   1.111   1_655 S
C1210  H1231   1.109   .     S
C1210  H1233   1.110   .     S
C1210  H812    1.108   1_565 S
C1211  H1235   1.114   .     S
C1211  H1234   1.107   .     S
C1211  O1252   1.408   .     S
C1211  C1072   1.520   1_655 S
C1212  H1237   1.106   .     S
C1212  H1236   1.109   .     S
C1213  C1216   1.384   .     A
C1213  Cl1223  1.760   .     S
C1214  H1240   1.109   .     S
C1214  H1239   1.109   .     S
C1214  C792    1.525   1_565 S
C1215  Cl1224  1.739   .     S
C1215  C1217   1.390   .     A
C1216  H1227   1.085   .     S
C1217  C575    1.381   1_556 S
C1217  H1098   1.086   1_655 S
C1218  C799    1.327   1_565 S
C1218  H826    1.083   1_565 S
C1220  O1256   1.312   .     A
C1220  O1258   1.304   .     A
Cl1222 C1057   1.755   1_655 S
Cu1225 Cu1226  2.707   .     S
Cu1225 O1251   1.968   .     S
Cu1225 O1255   1.960   .     S
Cu1225 O1259   1.941   .     S
Cu1225 N1250   2.034   .     S
Cu1225 O1256   1.957   .     S
Cu1226 O1258   1.941   .     S
Cu1226 N1249   2.034   .     S
Cu1226 O1257   1.957   .     S
Cu1226 O1254   1.960   .     S
Cu1226 O1253   1.968   .     S
H1241  C1074   1.111   1_655 S
H1244  C1055   1.085   1_655 S
H1247  C799    1.085   1_565 S
N1249  N1110   1.286   1_655 S
N1249  O1120   1.345   1_655 S
O1252  N1110   1.345   1_655 S
