data_str_m2_o1_o2_pcu_sym.6
_audit_creation_date              2020-01-03
_audit_creation_method            'Materials Studio'
_symmetry_space_group_name_H-M    'P1'
_symmetry_Int_Tables_number       1
_symmetry_cell_setting            triclinic
loop_
_symmetry_equiv_pos_as_xyz
  x,y,z
_cell_length_a                    32.4094
_cell_length_b                    28.5708
_cell_length_c                    30.2720
_cell_angle_alpha                 90.0454
_cell_angle_beta                  90.1709
_cell_angle_gamma                 89.9964
loop_
_atom_site_label
_atom_site_type_symbol
_atom_site_fract_x
_atom_site_fract_y
_atom_site_fract_z
_atom_site_U_iso_or_equiv
_atom_site_adp_type
_atom_site_occupancy
C1     C     0.08754   0.16666   0.24994   0.00000  Uiso   1.00
C2     C     0.31169   0.19017   0.21609   0.00000  Uiso   1.00
C3     C     0.31192   0.14323   0.28399   0.00000  Uiso   1.00
C4     C     0.02147   0.19005   0.21598   0.00000  Uiso   1.00
C5     C     0.17794   0.20681   0.04761   0.00000  Uiso   1.00
C6     C     0.17819   0.12656   0.45245   0.00000  Uiso   1.00
C7     C     0.15321   0.20662   0.45227   0.00000  Uiso   1.00
C8     C     0.15332   0.12661   0.04764   0.00000  Uiso   1.00
C9     C     0.17787   0.20693   0.09352   0.00000  Uiso   1.00
C10    C     0.17819   0.12647   0.40654   0.00000  Uiso   1.00
C11    C     0.15384   0.20676   0.40636   0.00000  Uiso   1.00
C12    C     0.24581   0.16667   0.25006   0.00000  Uiso   1.00
C13    C     0.15390   0.12649   0.09355   0.00000  Uiso   1.00
C14    C     0.16612   0.16668   0.11674   0.00000  Uiso   1.00
C15    C     0.16625   0.16665   0.38326   0.00000  Uiso   1.00
C16    C     0.16556   0.16669   0.02428   0.00000  Uiso   1.00
C17    C     0.16559   0.16660   0.47570   0.00000  Uiso   1.00
C18    C     0.29048   0.16669   0.25005   0.00000  Uiso   1.00
C19    C     0.04289   0.16665   0.24996   0.00000  Uiso   1.00
C20    C     0.04423   0.12056   0.31958   0.00000  Uiso   1.00
C21    C     0.28922   0.21313   0.18061   0.00000  Uiso   1.00
C22    C     0.28971   0.12056   0.31968   0.00000  Uiso   1.00
C23    C     0.16651   0.16666   0.16497   0.00000  Uiso   1.00
C24    C     0.04373   0.21248   0.18018   0.00000  Uiso   1.00
C25    C     0.16659   0.16667   0.33503   0.00000  Uiso   1.00
C26    C     0.14146   0.02478   0.22206   0.00000  Uiso   1.00
C27    C     0.19187   0.30855   0.27794   0.00000  Uiso   1.00
C28    C     0.19186   0.02482   0.27795   0.00000  Uiso   1.00
C29    C     0.14147   0.30852   0.22206   0.00000  Uiso   1.00
C30    C     0.02170   0.14324   0.28396   0.00000  Uiso   1.00
Cu31   Cu    0.16667   0.21355   0.25000   0.00000  Uiso   1.00
Cu32   Cu    0.16667   0.11978   0.25000   0.00000  Uiso   1.00
H33    H     0.12126   0.04344   0.19967   0.00000  Uiso   1.00
H34    H     0.18809   0.09520   0.38931   0.00000  Uiso   1.00
H35    H     0.14409   0.23800   0.38897   0.00000  Uiso   1.00
H36    H     0.14427   0.09520   0.11088   0.00000  Uiso   1.00
H37    H     0.21208   0.28989   0.30032   0.00000  Uiso   1.00
H38    H     0.21204   0.04351   0.30035   0.00000  Uiso   1.00
H39    H     0.12128   0.28983   0.19967   0.00000  Uiso   1.00
H40    H     0.18820   0.23790   0.03042   0.00000  Uiso   1.00
H41    H     0.18858   0.09553   0.46972   0.00000  Uiso   1.00
H42    H     0.14261   0.23764   0.46938   0.00000  Uiso   1.00
H43    H     0.14289   0.09552   0.03045   0.00000  Uiso   1.00
H44    H     0.18760   0.23827   0.11081   0.00000  Uiso   1.00
N45    N     0.16667   0.28402   0.25000   0.00000  Uiso   1.00
N46    N     0.16667   0.04931   0.25000   0.00000  Uiso   1.00
N47    N     0.06222   0.10254   0.34794   0.00000  Uiso   1.00
N48    N     0.27132   0.23143   0.15234   0.00000  Uiso   1.00
N49    N     0.27206   0.10254   0.34816   0.00000  Uiso   1.00
N50    N     0.06148   0.23027   0.15163   0.00000  Uiso   1.00
O51    O     0.10655   0.20625   0.24999   0.00000  Uiso   1.00
O52    O     0.22679   0.12709   0.25000   0.00000  Uiso   1.00
O53    O     0.22679   0.20625   0.25000   0.00000  Uiso   1.00
O54    O     0.10655   0.12709   0.24999   0.00000  Uiso   1.00
O55    O     0.16666   0.20626   0.18573   0.00000  Uiso   1.00
O56    O     0.16667   0.12707   0.31427   0.00000  Uiso   1.00
O57    O     0.16667   0.20626   0.31427   0.00000  Uiso   1.00
O58    O     0.16666   0.12707   0.18573   0.00000  Uiso   1.00
C59    C     0.42087   0.16666   0.24994   0.00000  Uiso   1.00
C60    C     0.64502   0.19017   0.21609   0.00000  Uiso   1.00
C61    C     0.64525   0.14323   0.28399   0.00000  Uiso   1.00
C62    C     0.35480   0.19005   0.21598   0.00000  Uiso   1.00
C63    C     0.51127   0.20681   0.04761   0.00000  Uiso   1.00
C64    C     0.51153   0.12656   0.45245   0.00000  Uiso   1.00
C65    C     0.48654   0.20662   0.45227   0.00000  Uiso   1.00
C66    C     0.48665   0.12661   0.04764   0.00000  Uiso   1.00
C67    C     0.51121   0.20693   0.09352   0.00000  Uiso   1.00
C68    C     0.51152   0.12647   0.40654   0.00000  Uiso   1.00
C69    C     0.48717   0.20676   0.40636   0.00000  Uiso   1.00
C70    C     0.57914   0.16667   0.25006   0.00000  Uiso   1.00
C71    C     0.48723   0.12649   0.09355   0.00000  Uiso   1.00
C72    C     0.49945   0.16668   0.11674   0.00000  Uiso   1.00
C73    C     0.49958   0.16665   0.38326   0.00000  Uiso   1.00
C74    C     0.49889   0.16669   0.02428   0.00000  Uiso   1.00
C75    C     0.49892   0.16660   0.47570   0.00000  Uiso   1.00
C76    C     0.62381   0.16669   0.25005   0.00000  Uiso   1.00
C77    C     0.37622   0.16665   0.24996   0.00000  Uiso   1.00
C78    C     0.37757   0.12056   0.31958   0.00000  Uiso   1.00
C79    C     0.62255   0.21313   0.18061   0.00000  Uiso   1.00
C80    C     0.62304   0.12056   0.31968   0.00000  Uiso   1.00
C81    C     0.49984   0.16666   0.16497   0.00000  Uiso   1.00
C82    C     0.37707   0.21248   0.18018   0.00000  Uiso   1.00
C83    C     0.49992   0.16667   0.33503   0.00000  Uiso   1.00
C84    C     0.47479   0.02478   0.22206   0.00000  Uiso   1.00
C85    C     0.52521   0.30855   0.27794   0.00000  Uiso   1.00
C86    C     0.52520   0.02482   0.27795   0.00000  Uiso   1.00
C87    C     0.47480   0.30852   0.22206   0.00000  Uiso   1.00
C88    C     0.35504   0.14324   0.28396   0.00000  Uiso   1.00
Cu89   Cu    0.50000   0.21355   0.25000   0.00000  Uiso   1.00
Cu90   Cu    0.50000   0.11978   0.25000   0.00000  Uiso   1.00
H91    H     0.45460   0.04344   0.19967   0.00000  Uiso   1.00
H92    H     0.52142   0.09520   0.38931   0.00000  Uiso   1.00
H93    H     0.47742   0.23800   0.38897   0.00000  Uiso   1.00
H94    H     0.47760   0.09520   0.11088   0.00000  Uiso   1.00
H95    H     0.54541   0.28989   0.30032   0.00000  Uiso   1.00
H96    H     0.54538   0.04351   0.30035   0.00000  Uiso   1.00
H97    H     0.45461   0.28983   0.19967   0.00000  Uiso   1.00
H98    H     0.52153   0.23790   0.03042   0.00000  Uiso   1.00
H99    H     0.52191   0.09553   0.46972   0.00000  Uiso   1.00
H100   H     0.47595   0.23764   0.46938   0.00000  Uiso   1.00
H101   H     0.47623   0.09552   0.03045   0.00000  Uiso   1.00
H102   H     0.52093   0.23827   0.11081   0.00000  Uiso   1.00
N103   N     0.50000   0.28402   0.25000   0.00000  Uiso   1.00
N104   N     0.50000   0.04931   0.25000   0.00000  Uiso   1.00
N105   N     0.39555   0.10254   0.34794   0.00000  Uiso   1.00
N106   N     0.60466   0.23143   0.15234   0.00000  Uiso   1.00
N107   N     0.60539   0.10254   0.34816   0.00000  Uiso   1.00
N108   N     0.39481   0.23027   0.15163   0.00000  Uiso   1.00
O109   O     0.43988   0.20625   0.24999   0.00000  Uiso   1.00
O110   O     0.56012   0.12709   0.25000   0.00000  Uiso   1.00
O111   O     0.56012   0.20625   0.25000   0.00000  Uiso   1.00
O112   O     0.43988   0.12709   0.24999   0.00000  Uiso   1.00
O113   O     0.50000   0.20626   0.18573   0.00000  Uiso   1.00
O114   O     0.50000   0.12707   0.31427   0.00000  Uiso   1.00
O115   O     0.50000   0.20626   0.31427   0.00000  Uiso   1.00
O116   O     0.50000   0.12707   0.18573   0.00000  Uiso   1.00
C117   C     0.75421   0.16666   0.24994   0.00000  Uiso   1.00
C118   C     0.97835   0.19017   0.21609   0.00000  Uiso   1.00
C119   C     0.97859   0.14323   0.28399   0.00000  Uiso   1.00
C120   C     0.68814   0.19005   0.21598   0.00000  Uiso   1.00
C121   C     0.84460   0.20681   0.04761   0.00000  Uiso   1.00
C122   C     0.84486   0.12656   0.45245   0.00000  Uiso   1.00
C123   C     0.81987   0.20662   0.45227   0.00000  Uiso   1.00
C124   C     0.81999   0.12661   0.04764   0.00000  Uiso   1.00
C125   C     0.84454   0.20693   0.09352   0.00000  Uiso   1.00
C126   C     0.84485   0.12647   0.40654   0.00000  Uiso   1.00
C127   C     0.82051   0.20676   0.40636   0.00000  Uiso   1.00
C128   C     0.91247   0.16667   0.25006   0.00000  Uiso   1.00
C129   C     0.82056   0.12649   0.09355   0.00000  Uiso   1.00
C130   C     0.83279   0.16668   0.11674   0.00000  Uiso   1.00
C131   C     0.83291   0.16665   0.38326   0.00000  Uiso   1.00
C132   C     0.83222   0.16669   0.02428   0.00000  Uiso   1.00
C133   C     0.83226   0.16660   0.47570   0.00000  Uiso   1.00
C134   C     0.95715   0.16669   0.25005   0.00000  Uiso   1.00
C135   C     0.70956   0.16665   0.24996   0.00000  Uiso   1.00
C136   C     0.71090   0.12056   0.31958   0.00000  Uiso   1.00
C137   C     0.95588   0.21313   0.18061   0.00000  Uiso   1.00
C138   C     0.95638   0.12056   0.31968   0.00000  Uiso   1.00
C139   C     0.83318   0.16666   0.16497   0.00000  Uiso   1.00
C140   C     0.71040   0.21248   0.18018   0.00000  Uiso   1.00
C141   C     0.83325   0.16667   0.33503   0.00000  Uiso   1.00
C142   C     0.80813   0.02478   0.22206   0.00000  Uiso   1.00
C143   C     0.85854   0.30855   0.27794   0.00000  Uiso   1.00
C144   C     0.85853   0.02482   0.27795   0.00000  Uiso   1.00
C145   C     0.80813   0.30852   0.22206   0.00000  Uiso   1.00
C146   C     0.68837   0.14324   0.28396   0.00000  Uiso   1.00
Cu147  Cu    0.83333   0.21355   0.25000   0.00000  Uiso   1.00
Cu148  Cu    0.83333   0.11978   0.25000   0.00000  Uiso   1.00
H149   H     0.78793   0.04344   0.19967   0.00000  Uiso   1.00
H150   H     0.85476   0.09520   0.38931   0.00000  Uiso   1.00
H151   H     0.81076   0.23800   0.38897   0.00000  Uiso   1.00
H152   H     0.81094   0.09520   0.11088   0.00000  Uiso   1.00
H153   H     0.87874   0.28989   0.30032   0.00000  Uiso   1.00
H154   H     0.87871   0.04351   0.30035   0.00000  Uiso   1.00
H155   H     0.78795   0.28983   0.19967   0.00000  Uiso   1.00
H156   H     0.85486   0.23790   0.03042   0.00000  Uiso   1.00
H157   H     0.85525   0.09553   0.46972   0.00000  Uiso   1.00
H158   H     0.80928   0.23764   0.46938   0.00000  Uiso   1.00
H159   H     0.80956   0.09552   0.03045   0.00000  Uiso   1.00
H160   H     0.85426   0.23827   0.11081   0.00000  Uiso   1.00
N161   N     0.83333   0.28402   0.25000   0.00000  Uiso   1.00
N162   N     0.83333   0.04931   0.25000   0.00000  Uiso   1.00
N163   N     0.72889   0.10254   0.34794   0.00000  Uiso   1.00
N164   N     0.93799   0.23143   0.15234   0.00000  Uiso   1.00
N165   N     0.93872   0.10254   0.34816   0.00000  Uiso   1.00
N166   N     0.72814   0.23027   0.15163   0.00000  Uiso   1.00
O167   O     0.77321   0.20625   0.24999   0.00000  Uiso   1.00
O168   O     0.89345   0.12709   0.25000   0.00000  Uiso   1.00
O169   O     0.89345   0.20625   0.25000   0.00000  Uiso   1.00
O170   O     0.77321   0.12709   0.24999   0.00000  Uiso   1.00
O171   O     0.83333   0.20626   0.18573   0.00000  Uiso   1.00
O172   O     0.83334   0.12707   0.31427   0.00000  Uiso   1.00
O173   O     0.83334   0.20626   0.31427   0.00000  Uiso   1.00
O174   O     0.83333   0.12707   0.18573   0.00000  Uiso   1.00
C175   C     0.08754   0.50000   0.24994   0.00000  Uiso   1.00
C176   C     0.31169   0.52350   0.21609   0.00000  Uiso   1.00
C177   C     0.31192   0.47657   0.28399   0.00000  Uiso   1.00
C178   C     0.02147   0.52338   0.21598   0.00000  Uiso   1.00
C179   C     0.17794   0.54014   0.04761   0.00000  Uiso   1.00
C180   C     0.17819   0.45990   0.45245   0.00000  Uiso   1.00
C181   C     0.15321   0.53995   0.45227   0.00000  Uiso   1.00
C182   C     0.15332   0.45994   0.04764   0.00000  Uiso   1.00
C183   C     0.17787   0.54026   0.09352   0.00000  Uiso   1.00
C184   C     0.17819   0.45980   0.40654   0.00000  Uiso   1.00
C185   C     0.15384   0.54009   0.40636   0.00000  Uiso   1.00
C186   C     0.24581   0.50000   0.25006   0.00000  Uiso   1.00
C187   C     0.15390   0.45983   0.09355   0.00000  Uiso   1.00
C188   C     0.16612   0.50001   0.11674   0.00000  Uiso   1.00
C189   C     0.16625   0.49999   0.38326   0.00000  Uiso   1.00
C190   C     0.16556   0.50002   0.02428   0.00000  Uiso   1.00
C191   C     0.16559   0.49993   0.47570   0.00000  Uiso   1.00
C192   C     0.29048   0.50002   0.25005   0.00000  Uiso   1.00
C193   C     0.04289   0.49998   0.24996   0.00000  Uiso   1.00
C194   C     0.04423   0.45389   0.31958   0.00000  Uiso   1.00
C195   C     0.28922   0.54646   0.18061   0.00000  Uiso   1.00
C196   C     0.28971   0.45389   0.31968   0.00000  Uiso   1.00
C197   C     0.16651   0.49999   0.16497   0.00000  Uiso   1.00
C198   C     0.04373   0.54581   0.18018   0.00000  Uiso   1.00
C199   C     0.16659   0.50001   0.33503   0.00000  Uiso   1.00
C200   C     0.14146   0.35811   0.22206   0.00000  Uiso   1.00
C201   C     0.19187   0.64189   0.27794   0.00000  Uiso   1.00
C202   C     0.19186   0.35815   0.27795   0.00000  Uiso   1.00
C203   C     0.14147   0.64185   0.22206   0.00000  Uiso   1.00
C204   C     0.02170   0.47658   0.28396   0.00000  Uiso   1.00
Cu205  Cu    0.16667   0.54689   0.25000   0.00000  Uiso   1.00
Cu206  Cu    0.16667   0.45311   0.25000   0.00000  Uiso   1.00
H207   H     0.12126   0.37678   0.19967   0.00000  Uiso   1.00
H208   H     0.18809   0.42853   0.38931   0.00000  Uiso   1.00
H209   H     0.14409   0.57133   0.38897   0.00000  Uiso   1.00
H210   H     0.14427   0.42854   0.11088   0.00000  Uiso   1.00
H211   H     0.21208   0.62323   0.30032   0.00000  Uiso   1.00
H212   H     0.21204   0.37684   0.30035   0.00000  Uiso   1.00
H213   H     0.12128   0.62316   0.19967   0.00000  Uiso   1.00
H214   H     0.18820   0.57123   0.03042   0.00000  Uiso   1.00
H215   H     0.18858   0.42886   0.46972   0.00000  Uiso   1.00
H216   H     0.14261   0.57098   0.46938   0.00000  Uiso   1.00
H217   H     0.14289   0.42885   0.03045   0.00000  Uiso   1.00
H218   H     0.18760   0.57160   0.11081   0.00000  Uiso   1.00
N219   N     0.16667   0.61736   0.25000   0.00000  Uiso   1.00
N220   N     0.16667   0.38264   0.25000   0.00000  Uiso   1.00
N221   N     0.06222   0.43587   0.34794   0.00000  Uiso   1.00
N222   N     0.27132   0.56476   0.15234   0.00000  Uiso   1.00
N223   N     0.27206   0.43587   0.34816   0.00000  Uiso   1.00
N224   N     0.06148   0.56361   0.15163   0.00000  Uiso   1.00
O225   O     0.10655   0.53958   0.24999   0.00000  Uiso   1.00
O226   O     0.22679   0.46042   0.25000   0.00000  Uiso   1.00
O227   O     0.22679   0.53958   0.25000   0.00000  Uiso   1.00
O228   O     0.10655   0.46042   0.24999   0.00000  Uiso   1.00
O229   O     0.16666   0.53959   0.18573   0.00000  Uiso   1.00
O230   O     0.16667   0.46041   0.31427   0.00000  Uiso   1.00
O231   O     0.16667   0.53959   0.31427   0.00000  Uiso   1.00
O232   O     0.16666   0.46041   0.18573   0.00000  Uiso   1.00
C233   C     0.42087   0.50000   0.24994   0.00000  Uiso   1.00
C234   C     0.64502   0.52350   0.21609   0.00000  Uiso   1.00
C235   C     0.64525   0.47657   0.28399   0.00000  Uiso   1.00
C236   C     0.35480   0.52338   0.21598   0.00000  Uiso   1.00
C237   C     0.51127   0.54014   0.04761   0.00000  Uiso   1.00
C238   C     0.51153   0.45990   0.45245   0.00000  Uiso   1.00
C239   C     0.48654   0.53995   0.45227   0.00000  Uiso   1.00
C240   C     0.48665   0.45994   0.04764   0.00000  Uiso   1.00
C241   C     0.51121   0.54026   0.09352   0.00000  Uiso   1.00
C242   C     0.51152   0.45980   0.40654   0.00000  Uiso   1.00
C243   C     0.48717   0.54009   0.40636   0.00000  Uiso   1.00
C244   C     0.57914   0.50000   0.25006   0.00000  Uiso   1.00
C245   C     0.48723   0.45983   0.09355   0.00000  Uiso   1.00
C246   C     0.49945   0.50001   0.11674   0.00000  Uiso   1.00
C247   C     0.49958   0.49999   0.38326   0.00000  Uiso   1.00
C248   C     0.49889   0.50002   0.02428   0.00000  Uiso   1.00
C249   C     0.49892   0.49993   0.47570   0.00000  Uiso   1.00
C250   C     0.62381   0.50002   0.25005   0.00000  Uiso   1.00
C251   C     0.37622   0.49998   0.24996   0.00000  Uiso   1.00
C252   C     0.37757   0.45389   0.31958   0.00000  Uiso   1.00
C253   C     0.62255   0.54646   0.18061   0.00000  Uiso   1.00
C254   C     0.62304   0.45389   0.31968   0.00000  Uiso   1.00
C255   C     0.49984   0.49999   0.16497   0.00000  Uiso   1.00
C256   C     0.37707   0.54581   0.18018   0.00000  Uiso   1.00
C257   C     0.49992   0.50001   0.33503   0.00000  Uiso   1.00
C258   C     0.47479   0.35811   0.22206   0.00000  Uiso   1.00
C259   C     0.52521   0.64189   0.27794   0.00000  Uiso   1.00
C260   C     0.52520   0.35815   0.27795   0.00000  Uiso   1.00
C261   C     0.47480   0.64185   0.22206   0.00000  Uiso   1.00
C262   C     0.35504   0.47658   0.28396   0.00000  Uiso   1.00
Cu263  Cu    0.50000   0.54689   0.25000   0.00000  Uiso   1.00
Cu264  Cu    0.50000   0.45311   0.25000   0.00000  Uiso   1.00
H265   H     0.45460   0.37678   0.19967   0.00000  Uiso   1.00
H266   H     0.52142   0.42853   0.38931   0.00000  Uiso   1.00
H267   H     0.47742   0.57133   0.38897   0.00000  Uiso   1.00
H268   H     0.47760   0.42854   0.11088   0.00000  Uiso   1.00
H269   H     0.54541   0.62323   0.30032   0.00000  Uiso   1.00
H270   H     0.54538   0.37684   0.30035   0.00000  Uiso   1.00
H271   H     0.45461   0.62316   0.19967   0.00000  Uiso   1.00
H272   H     0.52153   0.57123   0.03042   0.00000  Uiso   1.00
H273   H     0.52191   0.42886   0.46972   0.00000  Uiso   1.00
H274   H     0.47595   0.57098   0.46938   0.00000  Uiso   1.00
H275   H     0.47623   0.42885   0.03045   0.00000  Uiso   1.00
H276   H     0.52093   0.57160   0.11081   0.00000  Uiso   1.00
N277   N     0.50000   0.61736   0.25000   0.00000  Uiso   1.00
N278   N     0.50000   0.38264   0.25000   0.00000  Uiso   1.00
N279   N     0.39555   0.43587   0.34794   0.00000  Uiso   1.00
N280   N     0.60466   0.56476   0.15234   0.00000  Uiso   1.00
N281   N     0.60539   0.43587   0.34816   0.00000  Uiso   1.00
N282   N     0.39481   0.56361   0.15163   0.00000  Uiso   1.00
O283   O     0.43988   0.53958   0.24999   0.00000  Uiso   1.00
O284   O     0.56012   0.46042   0.25000   0.00000  Uiso   1.00
O285   O     0.56012   0.53958   0.25000   0.00000  Uiso   1.00
O286   O     0.43988   0.46042   0.24999   0.00000  Uiso   1.00
O287   O     0.50000   0.53959   0.18573   0.00000  Uiso   1.00
O288   O     0.50000   0.46041   0.31427   0.00000  Uiso   1.00
O289   O     0.50000   0.53959   0.31427   0.00000  Uiso   1.00
O290   O     0.50000   0.46041   0.18573   0.00000  Uiso   1.00
C291   C     0.75421   0.50000   0.24994   0.00000  Uiso   1.00
C292   C     0.97835   0.52350   0.21609   0.00000  Uiso   1.00
C293   C     0.97859   0.47657   0.28399   0.00000  Uiso   1.00
C294   C     0.68814   0.52338   0.21598   0.00000  Uiso   1.00
C295   C     0.84460   0.54014   0.04761   0.00000  Uiso   1.00
C296   C     0.84486   0.45990   0.45245   0.00000  Uiso   1.00
C297   C     0.81987   0.53995   0.45227   0.00000  Uiso   1.00
C298   C     0.81999   0.45994   0.04764   0.00000  Uiso   1.00
C299   C     0.84454   0.54026   0.09352   0.00000  Uiso   1.00
C300   C     0.84485   0.45980   0.40654   0.00000  Uiso   1.00
C301   C     0.82051   0.54009   0.40636   0.00000  Uiso   1.00
C302   C     0.91247   0.50000   0.25006   0.00000  Uiso   1.00
C303   C     0.82056   0.45983   0.09355   0.00000  Uiso   1.00
C304   C     0.83279   0.50001   0.11674   0.00000  Uiso   1.00
C305   C     0.83291   0.49999   0.38326   0.00000  Uiso   1.00
C306   C     0.83222   0.50002   0.02428   0.00000  Uiso   1.00
C307   C     0.83226   0.49993   0.47570   0.00000  Uiso   1.00
C308   C     0.95715   0.50002   0.25005   0.00000  Uiso   1.00
C309   C     0.70956   0.49998   0.24996   0.00000  Uiso   1.00
C310   C     0.71090   0.45389   0.31958   0.00000  Uiso   1.00
C311   C     0.95588   0.54646   0.18061   0.00000  Uiso   1.00
C312   C     0.95638   0.45389   0.31968   0.00000  Uiso   1.00
C313   C     0.83318   0.49999   0.16497   0.00000  Uiso   1.00
C314   C     0.71040   0.54581   0.18018   0.00000  Uiso   1.00
C315   C     0.83325   0.50001   0.33503   0.00000  Uiso   1.00
C316   C     0.80813   0.35811   0.22206   0.00000  Uiso   1.00
C317   C     0.85854   0.64189   0.27794   0.00000  Uiso   1.00
C318   C     0.85853   0.35815   0.27795   0.00000  Uiso   1.00
C319   C     0.80813   0.64185   0.22206   0.00000  Uiso   1.00
C320   C     0.68837   0.47658   0.28396   0.00000  Uiso   1.00
Cu321  Cu    0.83333   0.54689   0.25000   0.00000  Uiso   1.00
Cu322  Cu    0.83333   0.45311   0.25000   0.00000  Uiso   1.00
H323   H     0.78793   0.37678   0.19967   0.00000  Uiso   1.00
H324   H     0.85476   0.42853   0.38931   0.00000  Uiso   1.00
H325   H     0.81076   0.57133   0.38897   0.00000  Uiso   1.00
H326   H     0.81094   0.42854   0.11088   0.00000  Uiso   1.00
H327   H     0.87874   0.62323   0.30032   0.00000  Uiso   1.00
H328   H     0.87871   0.37684   0.30035   0.00000  Uiso   1.00
H329   H     0.78795   0.62316   0.19967   0.00000  Uiso   1.00
H330   H     0.85486   0.57123   0.03042   0.00000  Uiso   1.00
H331   H     0.85525   0.42886   0.46972   0.00000  Uiso   1.00
H332   H     0.80928   0.57098   0.46938   0.00000  Uiso   1.00
H333   H     0.80956   0.42885   0.03045   0.00000  Uiso   1.00
H334   H     0.85426   0.57160   0.11081   0.00000  Uiso   1.00
N335   N     0.83333   0.61736   0.25000   0.00000  Uiso   1.00
N336   N     0.83333   0.38264   0.25000   0.00000  Uiso   1.00
N337   N     0.72889   0.43587   0.34794   0.00000  Uiso   1.00
N338   N     0.93799   0.56476   0.15234   0.00000  Uiso   1.00
N339   N     0.93872   0.43587   0.34816   0.00000  Uiso   1.00
N340   N     0.72814   0.56361   0.15163   0.00000  Uiso   1.00
O341   O     0.77321   0.53958   0.24999   0.00000  Uiso   1.00
O342   O     0.89345   0.46042   0.25000   0.00000  Uiso   1.00
O343   O     0.89345   0.53958   0.25000   0.00000  Uiso   1.00
O344   O     0.77321   0.46042   0.24999   0.00000  Uiso   1.00
O345   O     0.83333   0.53959   0.18573   0.00000  Uiso   1.00
O346   O     0.83334   0.46041   0.31427   0.00000  Uiso   1.00
O347   O     0.83334   0.53959   0.31427   0.00000  Uiso   1.00
O348   O     0.83333   0.46041   0.18573   0.00000  Uiso   1.00
C349   C     0.08754   0.83333   0.24994   0.00000  Uiso   1.00
C350   C     0.31169   0.85683   0.21609   0.00000  Uiso   1.00
C351   C     0.31192   0.80990   0.28399   0.00000  Uiso   1.00
C352   C     0.02147   0.85671   0.21598   0.00000  Uiso   1.00
C353   C     0.17794   0.87347   0.04761   0.00000  Uiso   1.00
C354   C     0.17819   0.79323   0.45245   0.00000  Uiso   1.00
C355   C     0.15321   0.87328   0.45227   0.00000  Uiso   1.00
C356   C     0.15332   0.79328   0.04764   0.00000  Uiso   1.00
C357   C     0.17787   0.87359   0.09352   0.00000  Uiso   1.00
C358   C     0.17819   0.79313   0.40654   0.00000  Uiso   1.00
C359   C     0.15384   0.87342   0.40636   0.00000  Uiso   1.00
C360   C     0.24581   0.83334   0.25006   0.00000  Uiso   1.00
C361   C     0.15390   0.79316   0.09355   0.00000  Uiso   1.00
C362   C     0.16612   0.83334   0.11674   0.00000  Uiso   1.00
C363   C     0.16625   0.83332   0.38326   0.00000  Uiso   1.00
C364   C     0.16556   0.83335   0.02428   0.00000  Uiso   1.00
C365   C     0.16559   0.83327   0.47570   0.00000  Uiso   1.00
C366   C     0.29048   0.83336   0.25005   0.00000  Uiso   1.00
C367   C     0.04289   0.83331   0.24996   0.00000  Uiso   1.00
C368   C     0.04423   0.78723   0.31958   0.00000  Uiso   1.00
C369   C     0.28922   0.87980   0.18061   0.00000  Uiso   1.00
C370   C     0.28971   0.78723   0.31968   0.00000  Uiso   1.00
C371   C     0.16651   0.83333   0.16497   0.00000  Uiso   1.00
C372   C     0.04373   0.87915   0.18018   0.00000  Uiso   1.00
C373   C     0.16659   0.83334   0.33503   0.00000  Uiso   1.00
C374   C     0.14146   0.69145   0.22206   0.00000  Uiso   1.00
C375   C     0.19187   0.97522   0.27794   0.00000  Uiso   1.00
C376   C     0.19186   0.69149   0.27795   0.00000  Uiso   1.00
C377   C     0.14147   0.97518   0.22206   0.00000  Uiso   1.00
C378   C     0.02170   0.80991   0.28396   0.00000  Uiso   1.00
Cu379  Cu    0.16667   0.88022   0.25000   0.00000  Uiso   1.00
Cu380  Cu    0.16667   0.78645   0.25000   0.00000  Uiso   1.00
H381   H     0.12126   0.71011   0.19967   0.00000  Uiso   1.00
H382   H     0.18809   0.76187   0.38931   0.00000  Uiso   1.00
H383   H     0.14409   0.90467   0.38897   0.00000  Uiso   1.00
H384   H     0.14427   0.76187   0.11088   0.00000  Uiso   1.00
H385   H     0.21208   0.95656   0.30032   0.00000  Uiso   1.00
H386   H     0.21204   0.71017   0.30035   0.00000  Uiso   1.00
H387   H     0.12128   0.95649   0.19967   0.00000  Uiso   1.00
H388   H     0.18820   0.90457   0.03042   0.00000  Uiso   1.00
H389   H     0.18858   0.76219   0.46972   0.00000  Uiso   1.00
H390   H     0.14261   0.90431   0.46938   0.00000  Uiso   1.00
H391   H     0.14289   0.76218   0.03045   0.00000  Uiso   1.00
H392   H     0.18760   0.90493   0.11081   0.00000  Uiso   1.00
N393   N     0.16667   0.95069   0.25000   0.00000  Uiso   1.00
N394   N     0.16667   0.71598   0.25000   0.00000  Uiso   1.00
N395   N     0.06222   0.76920   0.34794   0.00000  Uiso   1.00
N396   N     0.27132   0.89809   0.15234   0.00000  Uiso   1.00
N397   N     0.27206   0.76920   0.34816   0.00000  Uiso   1.00
N398   N     0.06148   0.89694   0.15163   0.00000  Uiso   1.00
O399   O     0.10655   0.87291   0.24999   0.00000  Uiso   1.00
O400   O     0.22679   0.79375   0.25000   0.00000  Uiso   1.00
O401   O     0.22679   0.87291   0.25000   0.00000  Uiso   1.00
O402   O     0.10655   0.79375   0.24999   0.00000  Uiso   1.00
O403   O     0.16666   0.87293   0.18573   0.00000  Uiso   1.00
O404   O     0.16667   0.79374   0.31427   0.00000  Uiso   1.00
O405   O     0.16667   0.87293   0.31427   0.00000  Uiso   1.00
O406   O     0.16666   0.79374   0.18573   0.00000  Uiso   1.00
C407   C     0.42087   0.83333   0.24994   0.00000  Uiso   1.00
C408   C     0.64502   0.85683   0.21609   0.00000  Uiso   1.00
C409   C     0.64525   0.80990   0.28399   0.00000  Uiso   1.00
C410   C     0.35480   0.85671   0.21598   0.00000  Uiso   1.00
C411   C     0.51127   0.87347   0.04761   0.00000  Uiso   1.00
C412   C     0.51153   0.79323   0.45245   0.00000  Uiso   1.00
C413   C     0.48654   0.87328   0.45227   0.00000  Uiso   1.00
C414   C     0.48665   0.79328   0.04764   0.00000  Uiso   1.00
C415   C     0.51121   0.87359   0.09352   0.00000  Uiso   1.00
C416   C     0.51152   0.79313   0.40654   0.00000  Uiso   1.00
C417   C     0.48717   0.87342   0.40636   0.00000  Uiso   1.00
C418   C     0.57914   0.83334   0.25006   0.00000  Uiso   1.00
C419   C     0.48723   0.79316   0.09355   0.00000  Uiso   1.00
C420   C     0.49945   0.83334   0.11674   0.00000  Uiso   1.00
C421   C     0.49958   0.83332   0.38326   0.00000  Uiso   1.00
C422   C     0.49889   0.83335   0.02428   0.00000  Uiso   1.00
C423   C     0.49892   0.83327   0.47570   0.00000  Uiso   1.00
C424   C     0.62381   0.83336   0.25005   0.00000  Uiso   1.00
C425   C     0.37622   0.83331   0.24996   0.00000  Uiso   1.00
C426   C     0.37757   0.78723   0.31958   0.00000  Uiso   1.00
C427   C     0.62255   0.87980   0.18061   0.00000  Uiso   1.00
C428   C     0.62304   0.78723   0.31968   0.00000  Uiso   1.00
C429   C     0.49984   0.83333   0.16497   0.00000  Uiso   1.00
C430   C     0.37707   0.87915   0.18018   0.00000  Uiso   1.00
C431   C     0.49992   0.83334   0.33503   0.00000  Uiso   1.00
C432   C     0.47479   0.69145   0.22206   0.00000  Uiso   1.00
C433   C     0.52521   0.97522   0.27794   0.00000  Uiso   1.00
C434   C     0.52520   0.69149   0.27795   0.00000  Uiso   1.00
C435   C     0.47480   0.97518   0.22206   0.00000  Uiso   1.00
C436   C     0.35504   0.80991   0.28396   0.00000  Uiso   1.00
Cu437  Cu    0.50000   0.88022   0.25000   0.00000  Uiso   1.00
Cu438  Cu    0.50000   0.78645   0.25000   0.00000  Uiso   1.00
H439   H     0.45460   0.71011   0.19967   0.00000  Uiso   1.00
H440   H     0.52142   0.76187   0.38931   0.00000  Uiso   1.00
H441   H     0.47742   0.90467   0.38897   0.00000  Uiso   1.00
H442   H     0.47760   0.76187   0.11088   0.00000  Uiso   1.00
H443   H     0.54541   0.95656   0.30032   0.00000  Uiso   1.00
H444   H     0.54538   0.71017   0.30035   0.00000  Uiso   1.00
H445   H     0.45461   0.95649   0.19967   0.00000  Uiso   1.00
H446   H     0.52153   0.90457   0.03042   0.00000  Uiso   1.00
H447   H     0.52191   0.76219   0.46972   0.00000  Uiso   1.00
H448   H     0.47595   0.90431   0.46938   0.00000  Uiso   1.00
H449   H     0.47623   0.76218   0.03045   0.00000  Uiso   1.00
H450   H     0.52093   0.90493   0.11081   0.00000  Uiso   1.00
N451   N     0.50000   0.95069   0.25000   0.00000  Uiso   1.00
N452   N     0.50000   0.71598   0.25000   0.00000  Uiso   1.00
N453   N     0.39555   0.76920   0.34794   0.00000  Uiso   1.00
N454   N     0.60466   0.89809   0.15234   0.00000  Uiso   1.00
N455   N     0.60539   0.76920   0.34816   0.00000  Uiso   1.00
N456   N     0.39481   0.89694   0.15163   0.00000  Uiso   1.00
O457   O     0.43988   0.87291   0.24999   0.00000  Uiso   1.00
O458   O     0.56012   0.79375   0.25000   0.00000  Uiso   1.00
O459   O     0.56012   0.87291   0.25000   0.00000  Uiso   1.00
O460   O     0.43988   0.79375   0.24999   0.00000  Uiso   1.00
O461   O     0.50000   0.87293   0.18573   0.00000  Uiso   1.00
O462   O     0.50000   0.79374   0.31427   0.00000  Uiso   1.00
O463   O     0.50000   0.87293   0.31427   0.00000  Uiso   1.00
O464   O     0.50000   0.79374   0.18573   0.00000  Uiso   1.00
C465   C     0.75421   0.83333   0.24994   0.00000  Uiso   1.00
C466   C     0.97835   0.85683   0.21609   0.00000  Uiso   1.00
C467   C     0.97859   0.80990   0.28399   0.00000  Uiso   1.00
C468   C     0.68814   0.85671   0.21598   0.00000  Uiso   1.00
C469   C     0.84460   0.87347   0.04761   0.00000  Uiso   1.00
C470   C     0.84486   0.79323   0.45245   0.00000  Uiso   1.00
C471   C     0.81987   0.87328   0.45227   0.00000  Uiso   1.00
C472   C     0.81999   0.79328   0.04764   0.00000  Uiso   1.00
C473   C     0.84454   0.87359   0.09352   0.00000  Uiso   1.00
C474   C     0.84485   0.79313   0.40654   0.00000  Uiso   1.00
C475   C     0.82051   0.87342   0.40636   0.00000  Uiso   1.00
C476   C     0.91247   0.83334   0.25006   0.00000  Uiso   1.00
C477   C     0.82056   0.79316   0.09355   0.00000  Uiso   1.00
C478   C     0.83279   0.83334   0.11674   0.00000  Uiso   1.00
C479   C     0.83291   0.83332   0.38326   0.00000  Uiso   1.00
C480   C     0.83222   0.83335   0.02428   0.00000  Uiso   1.00
C481   C     0.83226   0.83327   0.47570   0.00000  Uiso   1.00
C482   C     0.95715   0.83336   0.25005   0.00000  Uiso   1.00
C483   C     0.70956   0.83331   0.24996   0.00000  Uiso   1.00
C484   C     0.71090   0.78723   0.31958   0.00000  Uiso   1.00
C485   C     0.95588   0.87980   0.18061   0.00000  Uiso   1.00
C486   C     0.95638   0.78723   0.31968   0.00000  Uiso   1.00
C487   C     0.83318   0.83333   0.16497   0.00000  Uiso   1.00
C488   C     0.71040   0.87915   0.18018   0.00000  Uiso   1.00
C489   C     0.83325   0.83334   0.33503   0.00000  Uiso   1.00
C490   C     0.80813   0.69145   0.22206   0.00000  Uiso   1.00
C491   C     0.85854   0.97522   0.27794   0.00000  Uiso   1.00
C492   C     0.85853   0.69149   0.27795   0.00000  Uiso   1.00
C493   C     0.80813   0.97518   0.22206   0.00000  Uiso   1.00
C494   C     0.68837   0.80991   0.28396   0.00000  Uiso   1.00
Cu495  Cu    0.83333   0.88022   0.25000   0.00000  Uiso   1.00
Cu496  Cu    0.83333   0.78645   0.25000   0.00000  Uiso   1.00
H497   H     0.78793   0.71011   0.19967   0.00000  Uiso   1.00
H498   H     0.85476   0.76187   0.38931   0.00000  Uiso   1.00
H499   H     0.81076   0.90467   0.38897   0.00000  Uiso   1.00
H500   H     0.81094   0.76187   0.11088   0.00000  Uiso   1.00
H501   H     0.87874   0.95656   0.30032   0.00000  Uiso   1.00
H502   H     0.87871   0.71017   0.30035   0.00000  Uiso   1.00
H503   H     0.78795   0.95649   0.19967   0.00000  Uiso   1.00
H504   H     0.85486   0.90457   0.03042   0.00000  Uiso   1.00
H505   H     0.85525   0.76219   0.46972   0.00000  Uiso   1.00
H506   H     0.80928   0.90431   0.46938   0.00000  Uiso   1.00
H507   H     0.80956   0.76218   0.03045   0.00000  Uiso   1.00
H508   H     0.85426   0.90493   0.11081   0.00000  Uiso   1.00
N509   N     0.83333   0.95069   0.25000   0.00000  Uiso   1.00
N510   N     0.83333   0.71598   0.25000   0.00000  Uiso   1.00
N511   N     0.72889   0.76920   0.34794   0.00000  Uiso   1.00
N512   N     0.93799   0.89809   0.15234   0.00000  Uiso   1.00
N513   N     0.93872   0.76920   0.34816   0.00000  Uiso   1.00
N514   N     0.72814   0.89694   0.15163   0.00000  Uiso   1.00
O515   O     0.77321   0.87291   0.24999   0.00000  Uiso   1.00
O516   O     0.89345   0.79375   0.25000   0.00000  Uiso   1.00
O517   O     0.89345   0.87291   0.25000   0.00000  Uiso   1.00
O518   O     0.77321   0.79375   0.24999   0.00000  Uiso   1.00
O519   O     0.83333   0.87293   0.18573   0.00000  Uiso   1.00
O520   O     0.83334   0.79374   0.31427   0.00000  Uiso   1.00
O521   O     0.83334   0.87293   0.31427   0.00000  Uiso   1.00
O522   O     0.83333   0.79374   0.18573   0.00000  Uiso   1.00
C523   C     0.08754   0.16666   0.74994   0.00000  Uiso   1.00
C524   C     0.31169   0.19017   0.71609   0.00000  Uiso   1.00
C525   C     0.31192   0.14323   0.78399   0.00000  Uiso   1.00
C526   C     0.02147   0.19005   0.71598   0.00000  Uiso   1.00
C527   C     0.17794   0.20681   0.54761   0.00000  Uiso   1.00
C528   C     0.17819   0.12656   0.95245   0.00000  Uiso   1.00
C529   C     0.15321   0.20662   0.95227   0.00000  Uiso   1.00
C530   C     0.15332   0.12661   0.54764   0.00000  Uiso   1.00
C531   C     0.17787   0.20693   0.59352   0.00000  Uiso   1.00
C532   C     0.17819   0.12647   0.90654   0.00000  Uiso   1.00
C533   C     0.15384   0.20676   0.90636   0.00000  Uiso   1.00
C534   C     0.24581   0.16667   0.75006   0.00000  Uiso   1.00
C535   C     0.15390   0.12649   0.59355   0.00000  Uiso   1.00
C536   C     0.16612   0.16668   0.61674   0.00000  Uiso   1.00
C537   C     0.16625   0.16665   0.88326   0.00000  Uiso   1.00
C538   C     0.16556   0.16669   0.52428   0.00000  Uiso   1.00
C539   C     0.16559   0.16660   0.97570   0.00000  Uiso   1.00
C540   C     0.29048   0.16669   0.75005   0.00000  Uiso   1.00
C541   C     0.04289   0.16665   0.74996   0.00000  Uiso   1.00
C542   C     0.04423   0.12056   0.81958   0.00000  Uiso   1.00
C543   C     0.28922   0.21313   0.68061   0.00000  Uiso   1.00
C544   C     0.28971   0.12056   0.81968   0.00000  Uiso   1.00
C545   C     0.16651   0.16666   0.66497   0.00000  Uiso   1.00
C546   C     0.04373   0.21248   0.68018   0.00000  Uiso   1.00
C547   C     0.16659   0.16667   0.83503   0.00000  Uiso   1.00
C548   C     0.14146   0.02478   0.72206   0.00000  Uiso   1.00
C549   C     0.19187   0.30855   0.77794   0.00000  Uiso   1.00
C550   C     0.19186   0.02482   0.77795   0.00000  Uiso   1.00
C551   C     0.14147   0.30852   0.72206   0.00000  Uiso   1.00
C552   C     0.02170   0.14324   0.78396   0.00000  Uiso   1.00
Cu553  Cu    0.16667   0.21355   0.75000   0.00000  Uiso   1.00
Cu554  Cu    0.16667   0.11978   0.75000   0.00000  Uiso   1.00
H555   H     0.12126   0.04344   0.69967   0.00000  Uiso   1.00
H556   H     0.18809   0.09520   0.88931   0.00000  Uiso   1.00
H557   H     0.14409   0.23800   0.88897   0.00000  Uiso   1.00
H558   H     0.14427   0.09520   0.61088   0.00000  Uiso   1.00
H559   H     0.21208   0.28989   0.80032   0.00000  Uiso   1.00
H560   H     0.21204   0.04351   0.80035   0.00000  Uiso   1.00
H561   H     0.12128   0.28983   0.69967   0.00000  Uiso   1.00
H562   H     0.18820   0.23790   0.53042   0.00000  Uiso   1.00
H563   H     0.18858   0.09553   0.96972   0.00000  Uiso   1.00
H564   H     0.14261   0.23764   0.96938   0.00000  Uiso   1.00
H565   H     0.14289   0.09552   0.53045   0.00000  Uiso   1.00
H566   H     0.18760   0.23827   0.61081   0.00000  Uiso   1.00
N567   N     0.16667   0.28402   0.75000   0.00000  Uiso   1.00
N568   N     0.16667   0.04931   0.75000   0.00000  Uiso   1.00
N569   N     0.06222   0.10254   0.84794   0.00000  Uiso   1.00
N570   N     0.27132   0.23143   0.65234   0.00000  Uiso   1.00
N571   N     0.27206   0.10254   0.84816   0.00000  Uiso   1.00
N572   N     0.06148   0.23027   0.65163   0.00000  Uiso   1.00
O573   O     0.10655   0.20625   0.74999   0.00000  Uiso   1.00
O574   O     0.22679   0.12709   0.75000   0.00000  Uiso   1.00
O575   O     0.22679   0.20625   0.75000   0.00000  Uiso   1.00
O576   O     0.10655   0.12709   0.74999   0.00000  Uiso   1.00
O577   O     0.16666   0.20626   0.68573   0.00000  Uiso   1.00
O578   O     0.16667   0.12707   0.81427   0.00000  Uiso   1.00
O579   O     0.16667   0.20626   0.81427   0.00000  Uiso   1.00
O580   O     0.16666   0.12707   0.68573   0.00000  Uiso   1.00
C581   C     0.42087   0.16666   0.74994   0.00000  Uiso   1.00
C582   C     0.64502   0.19017   0.71609   0.00000  Uiso   1.00
C583   C     0.64525   0.14323   0.78399   0.00000  Uiso   1.00
C584   C     0.35480   0.19005   0.71598   0.00000  Uiso   1.00
C585   C     0.51127   0.20681   0.54761   0.00000  Uiso   1.00
C586   C     0.51153   0.12656   0.95245   0.00000  Uiso   1.00
C587   C     0.48654   0.20662   0.95227   0.00000  Uiso   1.00
C588   C     0.48665   0.12661   0.54764   0.00000  Uiso   1.00
C589   C     0.51121   0.20693   0.59352   0.00000  Uiso   1.00
C590   C     0.51152   0.12647   0.90654   0.00000  Uiso   1.00
C591   C     0.48717   0.20676   0.90636   0.00000  Uiso   1.00
C592   C     0.57914   0.16667   0.75006   0.00000  Uiso   1.00
C593   C     0.48723   0.12649   0.59355   0.00000  Uiso   1.00
C594   C     0.49945   0.16668   0.61674   0.00000  Uiso   1.00
C595   C     0.49958   0.16665   0.88326   0.00000  Uiso   1.00
C596   C     0.49889   0.16669   0.52428   0.00000  Uiso   1.00
C597   C     0.49892   0.16660   0.97570   0.00000  Uiso   1.00
C598   C     0.62381   0.16669   0.75005   0.00000  Uiso   1.00
C599   C     0.37622   0.16665   0.74996   0.00000  Uiso   1.00
C600   C     0.37757   0.12056   0.81958   0.00000  Uiso   1.00
C601   C     0.62255   0.21313   0.68061   0.00000  Uiso   1.00
C602   C     0.62304   0.12056   0.81968   0.00000  Uiso   1.00
C603   C     0.49984   0.16666   0.66497   0.00000  Uiso   1.00
C604   C     0.37707   0.21248   0.68018   0.00000  Uiso   1.00
C605   C     0.49992   0.16667   0.83503   0.00000  Uiso   1.00
C606   C     0.47479   0.02478   0.72206   0.00000  Uiso   1.00
C607   C     0.52521   0.30855   0.77794   0.00000  Uiso   1.00
C608   C     0.52520   0.02482   0.77795   0.00000  Uiso   1.00
C609   C     0.47480   0.30852   0.72206   0.00000  Uiso   1.00
C610   C     0.35504   0.14324   0.78396   0.00000  Uiso   1.00
Cu611  Cu    0.50000   0.21355   0.75000   0.00000  Uiso   1.00
Cu612  Cu    0.50000   0.11978   0.75000   0.00000  Uiso   1.00
H613   H     0.45460   0.04344   0.69967   0.00000  Uiso   1.00
H614   H     0.52142   0.09520   0.88931   0.00000  Uiso   1.00
H615   H     0.47742   0.23800   0.88897   0.00000  Uiso   1.00
H616   H     0.47760   0.09520   0.61088   0.00000  Uiso   1.00
H617   H     0.54541   0.28989   0.80032   0.00000  Uiso   1.00
H618   H     0.54538   0.04351   0.80035   0.00000  Uiso   1.00
H619   H     0.45461   0.28983   0.69967   0.00000  Uiso   1.00
H620   H     0.52153   0.23790   0.53042   0.00000  Uiso   1.00
H621   H     0.52191   0.09553   0.96972   0.00000  Uiso   1.00
H622   H     0.47595   0.23764   0.96938   0.00000  Uiso   1.00
H623   H     0.47623   0.09552   0.53045   0.00000  Uiso   1.00
H624   H     0.52093   0.23827   0.61081   0.00000  Uiso   1.00
N625   N     0.50000   0.28402   0.75000   0.00000  Uiso   1.00
N626   N     0.50000   0.04931   0.75000   0.00000  Uiso   1.00
N627   N     0.39555   0.10254   0.84794   0.00000  Uiso   1.00
N628   N     0.60466   0.23143   0.65234   0.00000  Uiso   1.00
N629   N     0.60539   0.10254   0.84816   0.00000  Uiso   1.00
N630   N     0.39481   0.23027   0.65163   0.00000  Uiso   1.00
O631   O     0.43988   0.20625   0.74999   0.00000  Uiso   1.00
O632   O     0.56012   0.12709   0.75000   0.00000  Uiso   1.00
O633   O     0.56012   0.20625   0.75000   0.00000  Uiso   1.00
O634   O     0.43988   0.12709   0.74999   0.00000  Uiso   1.00
O635   O     0.50000   0.20626   0.68573   0.00000  Uiso   1.00
O636   O     0.50000   0.12707   0.81427   0.00000  Uiso   1.00
O637   O     0.50000   0.20626   0.81427   0.00000  Uiso   1.00
O638   O     0.50000   0.12707   0.68573   0.00000  Uiso   1.00
C639   C     0.75421   0.16666   0.74994   0.00000  Uiso   1.00
C640   C     0.97835   0.19017   0.71609   0.00000  Uiso   1.00
C641   C     0.97859   0.14323   0.78399   0.00000  Uiso   1.00
C642   C     0.68814   0.19005   0.71598   0.00000  Uiso   1.00
C643   C     0.84460   0.20681   0.54761   0.00000  Uiso   1.00
C644   C     0.84486   0.12656   0.95245   0.00000  Uiso   1.00
C645   C     0.81987   0.20662   0.95227   0.00000  Uiso   1.00
C646   C     0.81999   0.12661   0.54764   0.00000  Uiso   1.00
C647   C     0.84454   0.20693   0.59352   0.00000  Uiso   1.00
C648   C     0.84485   0.12647   0.90654   0.00000  Uiso   1.00
C649   C     0.82051   0.20676   0.90636   0.00000  Uiso   1.00
C650   C     0.91247   0.16667   0.75006   0.00000  Uiso   1.00
C651   C     0.82056   0.12649   0.59355   0.00000  Uiso   1.00
C652   C     0.83279   0.16668   0.61674   0.00000  Uiso   1.00
C653   C     0.83291   0.16665   0.88326   0.00000  Uiso   1.00
C654   C     0.83222   0.16669   0.52428   0.00000  Uiso   1.00
C655   C     0.83226   0.16660   0.97570   0.00000  Uiso   1.00
C656   C     0.95715   0.16669   0.75005   0.00000  Uiso   1.00
C657   C     0.70956   0.16665   0.74996   0.00000  Uiso   1.00
C658   C     0.71090   0.12056   0.81958   0.00000  Uiso   1.00
C659   C     0.95588   0.21313   0.68061   0.00000  Uiso   1.00
C660   C     0.95638   0.12056   0.81968   0.00000  Uiso   1.00
C661   C     0.83318   0.16666   0.66497   0.00000  Uiso   1.00
C662   C     0.71040   0.21248   0.68018   0.00000  Uiso   1.00
C663   C     0.83325   0.16667   0.83503   0.00000  Uiso   1.00
C664   C     0.80813   0.02478   0.72206   0.00000  Uiso   1.00
C665   C     0.85854   0.30855   0.77794   0.00000  Uiso   1.00
C666   C     0.85853   0.02482   0.77795   0.00000  Uiso   1.00
C667   C     0.80813   0.30852   0.72206   0.00000  Uiso   1.00
C668   C     0.68837   0.14324   0.78396   0.00000  Uiso   1.00
Cu669  Cu    0.83333   0.21355   0.75000   0.00000  Uiso   1.00
Cu670  Cu    0.83333   0.11978   0.75000   0.00000  Uiso   1.00
H671   H     0.78793   0.04344   0.69967   0.00000  Uiso   1.00
H672   H     0.85476   0.09520   0.88931   0.00000  Uiso   1.00
H673   H     0.81076   0.23800   0.88897   0.00000  Uiso   1.00
H674   H     0.81094   0.09520   0.61088   0.00000  Uiso   1.00
H675   H     0.87874   0.28989   0.80032   0.00000  Uiso   1.00
H676   H     0.87871   0.04351   0.80035   0.00000  Uiso   1.00
H677   H     0.78795   0.28983   0.69967   0.00000  Uiso   1.00
H678   H     0.85486   0.23790   0.53042   0.00000  Uiso   1.00
H679   H     0.85525   0.09553   0.96972   0.00000  Uiso   1.00
H680   H     0.80928   0.23764   0.96938   0.00000  Uiso   1.00
H681   H     0.80956   0.09552   0.53045   0.00000  Uiso   1.00
H682   H     0.85426   0.23827   0.61081   0.00000  Uiso   1.00
N683   N     0.83333   0.28402   0.75000   0.00000  Uiso   1.00
N684   N     0.83333   0.04931   0.75000   0.00000  Uiso   1.00
N685   N     0.72889   0.10254   0.84794   0.00000  Uiso   1.00
N686   N     0.93799   0.23143   0.65234   0.00000  Uiso   1.00
N687   N     0.93872   0.10254   0.84816   0.00000  Uiso   1.00
N688   N     0.72814   0.23027   0.65163   0.00000  Uiso   1.00
O689   O     0.77321   0.20625   0.74999   0.00000  Uiso   1.00
O690   O     0.89345   0.12709   0.75000   0.00000  Uiso   1.00
O691   O     0.89345   0.20625   0.75000   0.00000  Uiso   1.00
O692   O     0.77321   0.12709   0.74999   0.00000  Uiso   1.00
O693   O     0.83333   0.20626   0.68573   0.00000  Uiso   1.00
O694   O     0.83334   0.12707   0.81427   0.00000  Uiso   1.00
O695   O     0.83334   0.20626   0.81427   0.00000  Uiso   1.00
O696   O     0.83333   0.12707   0.68573   0.00000  Uiso   1.00
C697   C     0.08754   0.50000   0.74994   0.00000  Uiso   1.00
C698   C     0.31169   0.52350   0.71609   0.00000  Uiso   1.00
C699   C     0.31192   0.47657   0.78399   0.00000  Uiso   1.00
C700   C     0.02147   0.52338   0.71598   0.00000  Uiso   1.00
C701   C     0.17794   0.54014   0.54761   0.00000  Uiso   1.00
C702   C     0.17819   0.45990   0.95245   0.00000  Uiso   1.00
C703   C     0.15321   0.53995   0.95227   0.00000  Uiso   1.00
C704   C     0.15332   0.45994   0.54764   0.00000  Uiso   1.00
C705   C     0.17787   0.54026   0.59352   0.00000  Uiso   1.00
C706   C     0.17819   0.45980   0.90654   0.00000  Uiso   1.00
C707   C     0.15384   0.54009   0.90636   0.00000  Uiso   1.00
C708   C     0.24581   0.50000   0.75006   0.00000  Uiso   1.00
C709   C     0.15390   0.45983   0.59355   0.00000  Uiso   1.00
C710   C     0.16612   0.50001   0.61674   0.00000  Uiso   1.00
C711   C     0.16625   0.49999   0.88326   0.00000  Uiso   1.00
C712   C     0.16556   0.50002   0.52428   0.00000  Uiso   1.00
C713   C     0.16559   0.49993   0.97570   0.00000  Uiso   1.00
C714   C     0.29048   0.50002   0.75005   0.00000  Uiso   1.00
C715   C     0.04289   0.49998   0.74996   0.00000  Uiso   1.00
C716   C     0.04423   0.45389   0.81958   0.00000  Uiso   1.00
C717   C     0.28922   0.54646   0.68061   0.00000  Uiso   1.00
C718   C     0.28971   0.45389   0.81968   0.00000  Uiso   1.00
C719   C     0.16651   0.49999   0.66497   0.00000  Uiso   1.00
C720   C     0.04373   0.54581   0.68018   0.00000  Uiso   1.00
C721   C     0.16659   0.50001   0.83503   0.00000  Uiso   1.00
C722   C     0.14146   0.35811   0.72206   0.00000  Uiso   1.00
C723   C     0.19187   0.64189   0.77794   0.00000  Uiso   1.00
C724   C     0.19186   0.35815   0.77795   0.00000  Uiso   1.00
C725   C     0.14147   0.64185   0.72206   0.00000  Uiso   1.00
C726   C     0.02170   0.47658   0.78396   0.00000  Uiso   1.00
Cu727  Cu    0.16667   0.54689   0.75000   0.00000  Uiso   1.00
Cu728  Cu    0.16667   0.45311   0.75000   0.00000  Uiso   1.00
H729   H     0.12126   0.37678   0.69967   0.00000  Uiso   1.00
H730   H     0.18809   0.42853   0.88931   0.00000  Uiso   1.00
H731   H     0.14409   0.57133   0.88897   0.00000  Uiso   1.00
H732   H     0.14427   0.42854   0.61088   0.00000  Uiso   1.00
H733   H     0.21208   0.62323   0.80032   0.00000  Uiso   1.00
H734   H     0.21204   0.37684   0.80035   0.00000  Uiso   1.00
H735   H     0.12128   0.62316   0.69967   0.00000  Uiso   1.00
H736   H     0.18820   0.57123   0.53042   0.00000  Uiso   1.00
H737   H     0.18858   0.42886   0.96972   0.00000  Uiso   1.00
H738   H     0.14261   0.57098   0.96938   0.00000  Uiso   1.00
H739   H     0.14289   0.42885   0.53045   0.00000  Uiso   1.00
H740   H     0.18760   0.57160   0.61081   0.00000  Uiso   1.00
N741   N     0.16667   0.61736   0.75000   0.00000  Uiso   1.00
N742   N     0.16667   0.38264   0.75000   0.00000  Uiso   1.00
N743   N     0.06222   0.43587   0.84794   0.00000  Uiso   1.00
N744   N     0.27132   0.56476   0.65234   0.00000  Uiso   1.00
N745   N     0.27206   0.43587   0.84816   0.00000  Uiso   1.00
N746   N     0.06148   0.56361   0.65163   0.00000  Uiso   1.00
O747   O     0.10655   0.53958   0.74999   0.00000  Uiso   1.00
O748   O     0.22679   0.46042   0.75000   0.00000  Uiso   1.00
O749   O     0.22679   0.53958   0.75000   0.00000  Uiso   1.00
O750   O     0.10655   0.46042   0.74999   0.00000  Uiso   1.00
O751   O     0.16666   0.53959   0.68573   0.00000  Uiso   1.00
O752   O     0.16667   0.46041   0.81427   0.00000  Uiso   1.00
O753   O     0.16667   0.53959   0.81427   0.00000  Uiso   1.00
O754   O     0.16666   0.46041   0.68573   0.00000  Uiso   1.00
C755   C     0.42087   0.50000   0.74994   0.00000  Uiso   1.00
C756   C     0.64502   0.52350   0.71609   0.00000  Uiso   1.00
C757   C     0.64525   0.47657   0.78399   0.00000  Uiso   1.00
C758   C     0.35480   0.52338   0.71598   0.00000  Uiso   1.00
C759   C     0.51127   0.54014   0.54761   0.00000  Uiso   1.00
C760   C     0.51153   0.45990   0.95245   0.00000  Uiso   1.00
C761   C     0.48654   0.53995   0.95227   0.00000  Uiso   1.00
C762   C     0.48665   0.45994   0.54764   0.00000  Uiso   1.00
C763   C     0.51121   0.54026   0.59352   0.00000  Uiso   1.00
C764   C     0.51152   0.45980   0.90654   0.00000  Uiso   1.00
C765   C     0.48717   0.54009   0.90636   0.00000  Uiso   1.00
C766   C     0.57914   0.50000   0.75006   0.00000  Uiso   1.00
C767   C     0.48723   0.45983   0.59355   0.00000  Uiso   1.00
C768   C     0.49945   0.50001   0.61674   0.00000  Uiso   1.00
C769   C     0.49958   0.49999   0.88326   0.00000  Uiso   1.00
C770   C     0.49889   0.50002   0.52428   0.00000  Uiso   1.00
C771   C     0.49892   0.49993   0.97570   0.00000  Uiso   1.00
C772   C     0.62381   0.50002   0.75005   0.00000  Uiso   1.00
C773   C     0.37622   0.49998   0.74996   0.00000  Uiso   1.00
C774   C     0.37757   0.45389   0.81958   0.00000  Uiso   1.00
C775   C     0.62255   0.54646   0.68061   0.00000  Uiso   1.00
C776   C     0.62304   0.45389   0.81968   0.00000  Uiso   1.00
C777   C     0.49984   0.49999   0.66497   0.00000  Uiso   1.00
C778   C     0.37707   0.54581   0.68018   0.00000  Uiso   1.00
C779   C     0.49992   0.50001   0.83503   0.00000  Uiso   1.00
C780   C     0.47479   0.35811   0.72206   0.00000  Uiso   1.00
C781   C     0.52521   0.64189   0.77794   0.00000  Uiso   1.00
C782   C     0.52520   0.35815   0.77795   0.00000  Uiso   1.00
C783   C     0.47480   0.64185   0.72206   0.00000  Uiso   1.00
C784   C     0.35504   0.47658   0.78396   0.00000  Uiso   1.00
Cu785  Cu    0.50000   0.54689   0.75000   0.00000  Uiso   1.00
Cu786  Cu    0.50000   0.45311   0.75000   0.00000  Uiso   1.00
H787   H     0.45460   0.37678   0.69967   0.00000  Uiso   1.00
H788   H     0.52142   0.42853   0.88931   0.00000  Uiso   1.00
H789   H     0.47742   0.57133   0.88897   0.00000  Uiso   1.00
H790   H     0.47760   0.42854   0.61088   0.00000  Uiso   1.00
H791   H     0.54541   0.62323   0.80032   0.00000  Uiso   1.00
H792   H     0.54538   0.37684   0.80035   0.00000  Uiso   1.00
H793   H     0.45461   0.62316   0.69967   0.00000  Uiso   1.00
H794   H     0.52153   0.57123   0.53042   0.00000  Uiso   1.00
H795   H     0.52191   0.42886   0.96972   0.00000  Uiso   1.00
H796   H     0.47595   0.57098   0.96938   0.00000  Uiso   1.00
H797   H     0.47623   0.42885   0.53045   0.00000  Uiso   1.00
H798   H     0.52093   0.57160   0.61081   0.00000  Uiso   1.00
N799   N     0.50000   0.61736   0.75000   0.00000  Uiso   1.00
N800   N     0.50000   0.38264   0.75000   0.00000  Uiso   1.00
N801   N     0.39555   0.43587   0.84794   0.00000  Uiso   1.00
N802   N     0.60466   0.56476   0.65234   0.00000  Uiso   1.00
N803   N     0.60539   0.43587   0.84816   0.00000  Uiso   1.00
N804   N     0.39481   0.56361   0.65163   0.00000  Uiso   1.00
O805   O     0.43988   0.53958   0.74999   0.00000  Uiso   1.00
O806   O     0.56012   0.46042   0.75000   0.00000  Uiso   1.00
O807   O     0.56012   0.53958   0.75000   0.00000  Uiso   1.00
O808   O     0.43988   0.46042   0.74999   0.00000  Uiso   1.00
O809   O     0.50000   0.53959   0.68573   0.00000  Uiso   1.00
O810   O     0.50000   0.46041   0.81427   0.00000  Uiso   1.00
O811   O     0.50000   0.53959   0.81427   0.00000  Uiso   1.00
O812   O     0.50000   0.46041   0.68573   0.00000  Uiso   1.00
C813   C     0.75421   0.50000   0.74994   0.00000  Uiso   1.00
C814   C     0.97835   0.52350   0.71609   0.00000  Uiso   1.00
C815   C     0.97859   0.47657   0.78399   0.00000  Uiso   1.00
C816   C     0.68814   0.52338   0.71598   0.00000  Uiso   1.00
C817   C     0.84460   0.54014   0.54761   0.00000  Uiso   1.00
C818   C     0.84486   0.45990   0.95245   0.00000  Uiso   1.00
C819   C     0.81987   0.53995   0.95227   0.00000  Uiso   1.00
C820   C     0.81999   0.45994   0.54764   0.00000  Uiso   1.00
C821   C     0.84454   0.54026   0.59352   0.00000  Uiso   1.00
C822   C     0.84485   0.45980   0.90654   0.00000  Uiso   1.00
C823   C     0.82051   0.54009   0.90636   0.00000  Uiso   1.00
C824   C     0.91247   0.50000   0.75006   0.00000  Uiso   1.00
C825   C     0.82056   0.45983   0.59355   0.00000  Uiso   1.00
C826   C     0.83279   0.50001   0.61674   0.00000  Uiso   1.00
C827   C     0.83291   0.49999   0.88326   0.00000  Uiso   1.00
C828   C     0.83222   0.50002   0.52428   0.00000  Uiso   1.00
C829   C     0.83226   0.49993   0.97570   0.00000  Uiso   1.00
C830   C     0.95715   0.50002   0.75005   0.00000  Uiso   1.00
C831   C     0.70956   0.49998   0.74996   0.00000  Uiso   1.00
C832   C     0.71090   0.45389   0.81958   0.00000  Uiso   1.00
C833   C     0.95588   0.54646   0.68061   0.00000  Uiso   1.00
C834   C     0.95638   0.45389   0.81968   0.00000  Uiso   1.00
C835   C     0.83318   0.49999   0.66497   0.00000  Uiso   1.00
C836   C     0.71040   0.54581   0.68018   0.00000  Uiso   1.00
C837   C     0.83325   0.50001   0.83503   0.00000  Uiso   1.00
C838   C     0.80813   0.35811   0.72206   0.00000  Uiso   1.00
C839   C     0.85854   0.64189   0.77794   0.00000  Uiso   1.00
C840   C     0.85853   0.35815   0.77795   0.00000  Uiso   1.00
C841   C     0.80813   0.64185   0.72206   0.00000  Uiso   1.00
C842   C     0.68837   0.47658   0.78396   0.00000  Uiso   1.00
Cu843  Cu    0.83333   0.54689   0.75000   0.00000  Uiso   1.00
Cu844  Cu    0.83333   0.45311   0.75000   0.00000  Uiso   1.00
H845   H     0.78793   0.37678   0.69967   0.00000  Uiso   1.00
H846   H     0.85476   0.42853   0.88931   0.00000  Uiso   1.00
H847   H     0.81076   0.57133   0.88897   0.00000  Uiso   1.00
H848   H     0.81094   0.42854   0.61088   0.00000  Uiso   1.00
H849   H     0.87874   0.62323   0.80032   0.00000  Uiso   1.00
H850   H     0.87871   0.37684   0.80035   0.00000  Uiso   1.00
H851   H     0.78795   0.62316   0.69967   0.00000  Uiso   1.00
H852   H     0.85486   0.57123   0.53042   0.00000  Uiso   1.00
H853   H     0.85525   0.42886   0.96972   0.00000  Uiso   1.00
H854   H     0.80928   0.57098   0.96938   0.00000  Uiso   1.00
H855   H     0.80956   0.42885   0.53045   0.00000  Uiso   1.00
H856   H     0.85426   0.57160   0.61081   0.00000  Uiso   1.00
N857   N     0.83333   0.61736   0.75000   0.00000  Uiso   1.00
N858   N     0.83333   0.38264   0.75000   0.00000  Uiso   1.00
N859   N     0.72889   0.43587   0.84794   0.00000  Uiso   1.00
N860   N     0.93799   0.56476   0.65234   0.00000  Uiso   1.00
N861   N     0.93872   0.43587   0.84816   0.00000  Uiso   1.00
N862   N     0.72814   0.56361   0.65163   0.00000  Uiso   1.00
O863   O     0.77321   0.53958   0.74999   0.00000  Uiso   1.00
O864   O     0.89345   0.46042   0.75000   0.00000  Uiso   1.00
O865   O     0.89345   0.53958   0.75000   0.00000  Uiso   1.00
O866   O     0.77321   0.46042   0.74999   0.00000  Uiso   1.00
O867   O     0.83333   0.53959   0.68573   0.00000  Uiso   1.00
O868   O     0.83334   0.46041   0.81427   0.00000  Uiso   1.00
O869   O     0.83334   0.53959   0.81427   0.00000  Uiso   1.00
O870   O     0.83333   0.46041   0.68573   0.00000  Uiso   1.00
C871   C     0.08754   0.83333   0.74994   0.00000  Uiso   1.00
C872   C     0.31169   0.85683   0.71609   0.00000  Uiso   1.00
C873   C     0.31192   0.80990   0.78399   0.00000  Uiso   1.00
C874   C     0.02147   0.85671   0.71598   0.00000  Uiso   1.00
C875   C     0.17794   0.87347   0.54761   0.00000  Uiso   1.00
C876   C     0.17819   0.79323   0.95245   0.00000  Uiso   1.00
C877   C     0.15321   0.87328   0.95227   0.00000  Uiso   1.00
C878   C     0.15332   0.79328   0.54764   0.00000  Uiso   1.00
C879   C     0.17787   0.87359   0.59352   0.00000  Uiso   1.00
C880   C     0.17819   0.79313   0.90654   0.00000  Uiso   1.00
C881   C     0.15384   0.87342   0.90636   0.00000  Uiso   1.00
C882   C     0.24581   0.83334   0.75006   0.00000  Uiso   1.00
C883   C     0.15390   0.79316   0.59355   0.00000  Uiso   1.00
C884   C     0.16612   0.83334   0.61674   0.00000  Uiso   1.00
C885   C     0.16625   0.83332   0.88326   0.00000  Uiso   1.00
C886   C     0.16556   0.83335   0.52428   0.00000  Uiso   1.00
C887   C     0.16559   0.83327   0.97570   0.00000  Uiso   1.00
C888   C     0.29048   0.83336   0.75005   0.00000  Uiso   1.00
C889   C     0.04289   0.83331   0.74996   0.00000  Uiso   1.00
C890   C     0.04423   0.78723   0.81958   0.00000  Uiso   1.00
C891   C     0.28922   0.87980   0.68061   0.00000  Uiso   1.00
C892   C     0.28971   0.78723   0.81968   0.00000  Uiso   1.00
C893   C     0.16651   0.83333   0.66497   0.00000  Uiso   1.00
C894   C     0.04373   0.87915   0.68018   0.00000  Uiso   1.00
C895   C     0.16659   0.83334   0.83503   0.00000  Uiso   1.00
C896   C     0.14146   0.69145   0.72206   0.00000  Uiso   1.00
C897   C     0.19187   0.97522   0.77794   0.00000  Uiso   1.00
C898   C     0.19186   0.69149   0.77795   0.00000  Uiso   1.00
C899   C     0.14147   0.97518   0.72206   0.00000  Uiso   1.00
C900   C     0.02170   0.80991   0.78396   0.00000  Uiso   1.00
Cu901  Cu    0.16667   0.88022   0.75000   0.00000  Uiso   1.00
Cu902  Cu    0.16667   0.78645   0.75000   0.00000  Uiso   1.00
H903   H     0.12126   0.71011   0.69967   0.00000  Uiso   1.00
H904   H     0.18809   0.76187   0.88931   0.00000  Uiso   1.00
H905   H     0.14409   0.90467   0.88897   0.00000  Uiso   1.00
H906   H     0.14427   0.76187   0.61088   0.00000  Uiso   1.00
H907   H     0.21208   0.95656   0.80032   0.00000  Uiso   1.00
H908   H     0.21204   0.71017   0.80035   0.00000  Uiso   1.00
H909   H     0.12128   0.95649   0.69967   0.00000  Uiso   1.00
H910   H     0.18820   0.90457   0.53042   0.00000  Uiso   1.00
H911   H     0.18858   0.76219   0.96972   0.00000  Uiso   1.00
H912   H     0.14261   0.90431   0.96938   0.00000  Uiso   1.00
H913   H     0.14289   0.76218   0.53045   0.00000  Uiso   1.00
H914   H     0.18760   0.90493   0.61081   0.00000  Uiso   1.00
N915   N     0.16667   0.95069   0.75000   0.00000  Uiso   1.00
N916   N     0.16667   0.71598   0.75000   0.00000  Uiso   1.00
N917   N     0.06222   0.76920   0.84794   0.00000  Uiso   1.00
N918   N     0.27132   0.89809   0.65234   0.00000  Uiso   1.00
N919   N     0.27206   0.76920   0.84816   0.00000  Uiso   1.00
N920   N     0.06148   0.89694   0.65163   0.00000  Uiso   1.00
O921   O     0.10655   0.87291   0.74999   0.00000  Uiso   1.00
O922   O     0.22679   0.79375   0.75000   0.00000  Uiso   1.00
O923   O     0.22679   0.87291   0.75000   0.00000  Uiso   1.00
O924   O     0.10655   0.79375   0.74999   0.00000  Uiso   1.00
O925   O     0.16666   0.87293   0.68573   0.00000  Uiso   1.00
O926   O     0.16667   0.79374   0.81427   0.00000  Uiso   1.00
O927   O     0.16667   0.87293   0.81427   0.00000  Uiso   1.00
O928   O     0.16666   0.79374   0.68573   0.00000  Uiso   1.00
C929   C     0.42087   0.83333   0.74994   0.00000  Uiso   1.00
C930   C     0.64502   0.85683   0.71609   0.00000  Uiso   1.00
C931   C     0.64525   0.80990   0.78399   0.00000  Uiso   1.00
C932   C     0.35480   0.85671   0.71598   0.00000  Uiso   1.00
C933   C     0.51127   0.87347   0.54761   0.00000  Uiso   1.00
C934   C     0.51153   0.79323   0.95245   0.00000  Uiso   1.00
C935   C     0.48654   0.87328   0.95227   0.00000  Uiso   1.00
C936   C     0.48665   0.79328   0.54764   0.00000  Uiso   1.00
C937   C     0.51121   0.87359   0.59352   0.00000  Uiso   1.00
C938   C     0.51152   0.79313   0.90654   0.00000  Uiso   1.00
C939   C     0.48717   0.87342   0.90636   0.00000  Uiso   1.00
C940   C     0.57914   0.83334   0.75006   0.00000  Uiso   1.00
C941   C     0.48723   0.79316   0.59355   0.00000  Uiso   1.00
C942   C     0.49945   0.83334   0.61674   0.00000  Uiso   1.00
C943   C     0.49958   0.83332   0.88326   0.00000  Uiso   1.00
C944   C     0.49889   0.83335   0.52428   0.00000  Uiso   1.00
C945   C     0.49892   0.83327   0.97570   0.00000  Uiso   1.00
C946   C     0.62381   0.83336   0.75005   0.00000  Uiso   1.00
C947   C     0.37622   0.83331   0.74996   0.00000  Uiso   1.00
C948   C     0.37757   0.78723   0.81958   0.00000  Uiso   1.00
C949   C     0.62255   0.87980   0.68061   0.00000  Uiso   1.00
C950   C     0.62304   0.78723   0.81968   0.00000  Uiso   1.00
C951   C     0.49984   0.83333   0.66497   0.00000  Uiso   1.00
C952   C     0.37707   0.87915   0.68018   0.00000  Uiso   1.00
C953   C     0.49992   0.83334   0.83503   0.00000  Uiso   1.00
C954   C     0.47479   0.69145   0.72206   0.00000  Uiso   1.00
C955   C     0.52521   0.97522   0.77794   0.00000  Uiso   1.00
C956   C     0.52520   0.69149   0.77795   0.00000  Uiso   1.00
C957   C     0.47480   0.97518   0.72206   0.00000  Uiso   1.00
C958   C     0.35504   0.80991   0.78396   0.00000  Uiso   1.00
Cu959  Cu    0.50000   0.88022   0.75000   0.00000  Uiso   1.00
Cu960  Cu    0.50000   0.78645   0.75000   0.00000  Uiso   1.00
H961   H     0.45460   0.71011   0.69967   0.00000  Uiso   1.00
H962   H     0.52142   0.76187   0.88931   0.00000  Uiso   1.00
H963   H     0.47742   0.90467   0.88897   0.00000  Uiso   1.00
H964   H     0.47760   0.76187   0.61088   0.00000  Uiso   1.00
H965   H     0.54541   0.95656   0.80032   0.00000  Uiso   1.00
H966   H     0.54538   0.71017   0.80035   0.00000  Uiso   1.00
H967   H     0.45461   0.95649   0.69967   0.00000  Uiso   1.00
H968   H     0.52153   0.90457   0.53042   0.00000  Uiso   1.00
H969   H     0.52191   0.76219   0.96972   0.00000  Uiso   1.00
H970   H     0.47595   0.90431   0.96938   0.00000  Uiso   1.00
H971   H     0.47623   0.76218   0.53045   0.00000  Uiso   1.00
H972   H     0.52093   0.90493   0.61081   0.00000  Uiso   1.00
N973   N     0.50000   0.95069   0.75000   0.00000  Uiso   1.00
N974   N     0.50000   0.71598   0.75000   0.00000  Uiso   1.00
N975   N     0.39555   0.76920   0.84794   0.00000  Uiso   1.00
N976   N     0.60466   0.89809   0.65234   0.00000  Uiso   1.00
N977   N     0.60539   0.76920   0.84816   0.00000  Uiso   1.00
N978   N     0.39481   0.89694   0.65163   0.00000  Uiso   1.00
O979   O     0.43988   0.87291   0.74999   0.00000  Uiso   1.00
O980   O     0.56012   0.79375   0.75000   0.00000  Uiso   1.00
O981   O     0.56012   0.87291   0.75000   0.00000  Uiso   1.00
O982   O     0.43988   0.79375   0.74999   0.00000  Uiso   1.00
O983   O     0.50000   0.87293   0.68573   0.00000  Uiso   1.00
O984   O     0.50000   0.79374   0.81427   0.00000  Uiso   1.00
O985   O     0.50000   0.87293   0.81427   0.00000  Uiso   1.00
O986   O     0.50000   0.79374   0.68573   0.00000  Uiso   1.00
C987   C     0.75421   0.83333   0.74994   0.00000  Uiso   1.00
C988   C     0.97835   0.85683   0.71609   0.00000  Uiso   1.00
C989   C     0.97859   0.80990   0.78399   0.00000  Uiso   1.00
C990   C     0.68814   0.85671   0.71598   0.00000  Uiso   1.00
C991   C     0.84460   0.87347   0.54761   0.00000  Uiso   1.00
C992   C     0.84486   0.79323   0.95245   0.00000  Uiso   1.00
C993   C     0.81987   0.87328   0.95227   0.00000  Uiso   1.00
C994   C     0.81999   0.79328   0.54764   0.00000  Uiso   1.00
C995   C     0.84454   0.87359   0.59352   0.00000  Uiso   1.00
C996   C     0.84485   0.79313   0.90654   0.00000  Uiso   1.00
C997   C     0.82051   0.87342   0.90636   0.00000  Uiso   1.00
C998   C     0.91247   0.83334   0.75006   0.00000  Uiso   1.00
C999   C     0.82056   0.79316   0.59355   0.00000  Uiso   1.00
C1000  C     0.83279   0.83334   0.61674   0.00000  Uiso   1.00
C1001  C     0.83291   0.83332   0.88326   0.00000  Uiso   1.00
C1002  C     0.83222   0.83335   0.52428   0.00000  Uiso   1.00
C1003  C     0.83226   0.83327   0.97570   0.00000  Uiso   1.00
C1004  C     0.95715   0.83336   0.75005   0.00000  Uiso   1.00
C1005  C     0.70956   0.83331   0.74996   0.00000  Uiso   1.00
C1006  C     0.71090   0.78723   0.81958   0.00000  Uiso   1.00
C1007  C     0.95588   0.87980   0.68061   0.00000  Uiso   1.00
C1008  C     0.95638   0.78723   0.81968   0.00000  Uiso   1.00
C1009  C     0.83318   0.83333   0.66497   0.00000  Uiso   1.00
C1010  C     0.71040   0.87915   0.68018   0.00000  Uiso   1.00
C1011  C     0.83325   0.83334   0.83503   0.00000  Uiso   1.00
C1012  C     0.80813   0.69145   0.72206   0.00000  Uiso   1.00
C1013  C     0.85854   0.97522   0.77794   0.00000  Uiso   1.00
C1014  C     0.85853   0.69149   0.77795   0.00000  Uiso   1.00
C1015  C     0.80813   0.97518   0.72206   0.00000  Uiso   1.00
C1016  C     0.68837   0.80991   0.78396   0.00000  Uiso   1.00
Cu1017 Cu    0.83333   0.88022   0.75000   0.00000  Uiso   1.00
Cu1018 Cu    0.83333   0.78645   0.75000   0.00000  Uiso   1.00
H1019  H     0.78793   0.71011   0.69967   0.00000  Uiso   1.00
H1020  H     0.85476   0.76187   0.88931   0.00000  Uiso   1.00
H1021  H     0.81076   0.90467   0.88897   0.00000  Uiso   1.00
H1022  H     0.81094   0.76187   0.61088   0.00000  Uiso   1.00
H1023  H     0.87874   0.95656   0.80032   0.00000  Uiso   1.00
H1024  H     0.87871   0.71017   0.80035   0.00000  Uiso   1.00
H1025  H     0.78795   0.95649   0.69967   0.00000  Uiso   1.00
H1026  H     0.85486   0.90457   0.53042   0.00000  Uiso   1.00
H1027  H     0.85525   0.76219   0.96972   0.00000  Uiso   1.00
H1028  H     0.80928   0.90431   0.96938   0.00000  Uiso   1.00
H1029  H     0.80956   0.76218   0.53045   0.00000  Uiso   1.00
H1030  H     0.85426   0.90493   0.61081   0.00000  Uiso   1.00
N1031  N     0.83333   0.95069   0.75000   0.00000  Uiso   1.00
N1032  N     0.83333   0.71598   0.75000   0.00000  Uiso   1.00
N1033  N     0.72889   0.76920   0.84794   0.00000  Uiso   1.00
N1034  N     0.93799   0.89809   0.65234   0.00000  Uiso   1.00
N1035  N     0.93872   0.76920   0.84816   0.00000  Uiso   1.00
N1036  N     0.72814   0.89694   0.65163   0.00000  Uiso   1.00
O1037  O     0.77321   0.87291   0.74999   0.00000  Uiso   1.00
O1038  O     0.89345   0.79375   0.75000   0.00000  Uiso   1.00
O1039  O     0.89345   0.87291   0.75000   0.00000  Uiso   1.00
O1040  O     0.77321   0.79375   0.74999   0.00000  Uiso   1.00
O1041  O     0.83333   0.87293   0.68573   0.00000  Uiso   1.00
O1042  O     0.83334   0.79374   0.81427   0.00000  Uiso   1.00
O1043  O     0.83334   0.87293   0.81427   0.00000  Uiso   1.00
O1044  O     0.83333   0.79374   0.68573   0.00000  Uiso   1.00
loop_
_geom_bond_atom_site_label_1
_geom_bond_atom_site_label_2
_geom_bond_distance
_geom_bond_site_symmetry_2
_ccdc_geom_bond_type
C1     O54     1.288   .     A
C1     O51     1.288   .     A
C1     C19     1.447   .     S
C2     C18     1.409   .     A
C2     C21     1.453   .     S
C2     C62     1.397   .     S
C3     C18     1.409   .     A
C3     C22     1.453   .     S
C3     C88     1.397   .     S
C4     C24     1.453   .     S
C4     C19     1.408   .     A
C4     C118    1.397   1_455 S
C5     C9      1.390   .     A
C5     H40     1.083   .     S
C5     C16     1.404   .     A
C6     C10     1.390   .     A
C6     C17     1.404   .     A
C6     H41     1.083   .     S
C7     C11     1.390   .     A
C7     H42     1.083   .     S
C7     C17     1.404   .     A
C8     H43     1.083   .     S
C8     C13     1.390   .     A
C8     C16     1.404   .     A
C9     C14     1.402   .     A
C9     H44     1.083   .     S
C10    H34     1.083   .     S
C10    C15     1.402   .     A
C11    H35     1.083   .     S
C11    C15     1.402   .     A
C12    O52     1.288   .     A
C12    C18     1.448   .     S
C12    O53     1.288   .     A
C13    C14     1.402   .     A
C13    H36     1.083   .     S
C14    C23     1.460   .     S
C15    C25     1.460   .     S
C16    C539    1.471   1_554 S
C17    C538    1.471   .     S
C19    C30     1.408   .     A
C20    C30     1.453   .     S
C20    N47     1.157   .     T
C21    N48     1.157   .     T
C22    N49     1.157   .     T
C23    O55     1.294   .     A
C23    O58     1.294   .     A
C24    N50     1.157   .     T
C25    O56     1.294   .     A
C25    O57     1.294   .     A
C26    H33     1.082   .     S
C26    N46     1.367   .     A
C26    C377    1.417   1_545 S
C27    N45     1.367   .     A
C27    H37     1.082   .     S
C27    C202    1.417   .     S
C28    H38     1.081   .     S
C28    N46     1.367   .     A
C28    C375    1.417   1_545 S
C29    H39     1.081   .     S
C29    N45     1.367   .     A
C29    C200    1.417   .     S
C30    C119    1.397   1_455 S
Cu31   Cu32    2.679   .     S
Cu31   O53     1.960   .     S
Cu31   N45     2.013   .     S
Cu31   O55     1.957   .     S
Cu31   O57     1.957   .     S
Cu31   O51     1.960   .     S
Cu32   O58     1.957   .     S
Cu32   O54     1.960   .     S
Cu32   O52     1.960   .     S
Cu32   N46     2.013   .     S
Cu32   O56     1.957   .     S
C59    O112    1.288   .     A
C59    O109    1.288   .     A
C59    C77     1.447   .     S
C60    C76     1.409   .     A
C60    C79     1.453   .     S
C60    C120    1.397   .     S
C61    C76     1.409   .     A
C61    C80     1.453   .     S
C61    C146    1.397   .     S
C62    C82     1.453   .     S
C62    C77     1.408   .     A
C63    C67     1.390   .     A
C63    H98     1.083   .     S
C63    C74     1.404   .     A
C64    C68     1.390   .     A
C64    C75     1.404   .     A
C64    H99     1.083   .     S
C65    C69     1.390   .     A
C65    H100    1.083   .     S
C65    C75     1.404   .     A
C66    H101    1.083   .     S
C66    C71     1.390   .     A
C66    C74     1.404   .     A
C67    C72     1.402   .     A
C67    H102    1.083   .     S
C68    H92     1.083   .     S
C68    C73     1.402   .     A
C69    H93     1.083   .     S
C69    C73     1.402   .     A
C70    O110    1.288   .     A
C70    C76     1.448   .     S
C70    O111    1.288   .     A
C71    C72     1.402   .     A
C71    H94     1.083   .     S
C72    C81     1.460   .     S
C73    C83     1.460   .     S
C74    C597    1.471   1_554 S
C75    C596    1.471   .     S
C77    C88     1.408   .     A
C78    C88     1.453   .     S
C78    N105    1.157   .     T
C79    N106    1.157   .     T
C80    N107    1.157   .     T
C81    O113    1.294   .     A
C81    O116    1.294   .     A
C82    N108    1.157   .     T
C83    O114    1.294   .     A
C83    O115    1.294   .     A
C84    H91     1.082   .     S
C84    N104    1.367   .     A
C84    C435    1.417   1_545 S
C85    N103    1.367   .     A
C85    H95     1.082   .     S
C85    C260    1.417   .     S
C86    H96     1.081   .     S
C86    N104    1.367   .     A
C86    C433    1.417   1_545 S
C87    H97     1.081   .     S
C87    N103    1.367   .     A
C87    C258    1.417   .     S
Cu89   Cu90    2.679   .     S
Cu89   O111    1.960   .     S
Cu89   N103    2.013   .     S
Cu89   O113    1.957   .     S
Cu89   O115    1.957   .     S
Cu89   O109    1.960   .     S
Cu90   O116    1.957   .     S
Cu90   O112    1.960   .     S
Cu90   O110    1.960   .     S
Cu90   N104    2.013   .     S
Cu90   O114    1.957   .     S
C117   O170    1.288   .     A
C117   O167    1.288   .     A
C117   C135    1.447   .     S
C118   C134    1.409   .     A
C118   C137    1.453   .     S
C118   C4      1.397   1_655 S
C119   C134    1.409   .     A
C119   C138    1.453   .     S
C119   C30     1.397   1_655 S
C120   C140    1.453   .     S
C120   C135    1.408   .     A
C121   C125    1.390   .     A
C121   H156    1.083   .     S
C121   C132    1.404   .     A
C122   C126    1.390   .     A
C122   C133    1.404   .     A
C122   H157    1.083   .     S
C123   C127    1.390   .     A
C123   H158    1.083   .     S
C123   C133    1.404   .     A
C124   H159    1.083   .     S
C124   C129    1.390   .     A
C124   C132    1.404   .     A
C125   C130    1.402   .     A
C125   H160    1.083   .     S
C126   H150    1.083   .     S
C126   C131    1.402   .     A
C127   H151    1.083   .     S
C127   C131    1.402   .     A
C128   O168    1.288   .     A
C128   C134    1.448   .     S
C128   O169    1.288   .     A
C129   C130    1.402   .     A
C129   H152    1.083   .     S
C130   C139    1.460   .     S
C131   C141    1.460   .     S
C132   C655    1.471   1_554 S
C133   C654    1.471   .     S
C135   C146    1.408   .     A
C136   C146    1.453   .     S
C136   N163    1.157   .     T
C137   N164    1.157   .     T
C138   N165    1.157   .     T
C139   O171    1.294   .     A
C139   O174    1.294   .     A
C140   N166    1.157   .     T
C141   O172    1.294   .     A
C141   O173    1.294   .     A
C142   H149    1.082   .     S
C142   N162    1.367   .     A
C142   C493    1.417   1_545 S
C143   N161    1.367   .     A
C143   H153    1.082   .     S
C143   C318    1.417   .     S
C144   H154    1.081   .     S
C144   N162    1.367   .     A
C144   C491    1.417   1_545 S
C145   H155    1.081   .     S
C145   N161    1.367   .     A
C145   C316    1.417   .     S
Cu147  Cu148   2.679   .     S
Cu147  O169    1.960   .     S
Cu147  N161    2.013   .     S
Cu147  O171    1.957   .     S
Cu147  O173    1.957   .     S
Cu147  O167    1.960   .     S
Cu148  O174    1.957   .     S
Cu148  O170    1.960   .     S
Cu148  O168    1.960   .     S
Cu148  N162    2.013   .     S
Cu148  O172    1.957   .     S
C175   O228    1.288   .     A
C175   O225    1.288   .     A
C175   C193    1.447   .     S
C176   C192    1.409   .     A
C176   C195    1.453   .     S
C176   C236    1.397   .     S
C177   C192    1.409   .     A
C177   C196    1.453   .     S
C177   C262    1.397   .     S
C178   C198    1.453   .     S
C178   C193    1.408   .     A
C178   C292    1.397   1_455 S
C179   C183    1.390   .     A
C179   H214    1.083   .     S
C179   C190    1.404   .     A
C180   C184    1.390   .     A
C180   C191    1.404   .     A
C180   H215    1.083   .     S
C181   C185    1.390   .     A
C181   H216    1.083   .     S
C181   C191    1.404   .     A
C182   H217    1.083   .     S
C182   C187    1.390   .     A
C182   C190    1.404   .     A
C183   C188    1.402   .     A
C183   H218    1.083   .     S
C184   H208    1.083   .     S
C184   C189    1.402   .     A
C185   H209    1.083   .     S
C185   C189    1.402   .     A
C186   O226    1.288   .     A
C186   C192    1.448   .     S
C186   O227    1.288   .     A
C187   C188    1.402   .     A
C187   H210    1.083   .     S
C188   C197    1.460   .     S
C189   C199    1.460   .     S
C190   C713    1.471   1_554 S
C191   C712    1.471   .     S
C193   C204    1.408   .     A
C194   C204    1.453   .     S
C194   N221    1.157   .     T
C195   N222    1.157   .     T
C196   N223    1.157   .     T
C197   O229    1.294   .     A
C197   O232    1.294   .     A
C198   N224    1.157   .     T
C199   O230    1.294   .     A
C199   O231    1.294   .     A
C200   H207    1.082   .     S
C200   N220    1.367   .     A
C201   N219    1.367   .     A
C201   H211    1.082   .     S
C201   C376    1.417   .     S
C202   H212    1.081   .     S
C202   N220    1.367   .     A
C203   H213    1.081   .     S
C203   N219    1.367   .     A
C203   C374    1.417   .     S
C204   C293    1.397   1_455 S
Cu205  Cu206   2.679   .     S
Cu205  O227    1.960   .     S
Cu205  N219    2.013   .     S
Cu205  O229    1.957   .     S
Cu205  O231    1.957   .     S
Cu205  O225    1.960   .     S
Cu206  O232    1.957   .     S
Cu206  O228    1.960   .     S
Cu206  O226    1.960   .     S
Cu206  N220    2.013   .     S
Cu206  O230    1.957   .     S
C233   O286    1.288   .     A
C233   O283    1.288   .     A
C233   C251    1.447   .     S
C234   C250    1.409   .     A
C234   C253    1.453   .     S
C234   C294    1.397   .     S
C235   C250    1.409   .     A
C235   C254    1.453   .     S
C235   C320    1.397   .     S
C236   C256    1.453   .     S
C236   C251    1.408   .     A
C237   C241    1.390   .     A
C237   H272    1.083   .     S
C237   C248    1.404   .     A
C238   C242    1.390   .     A
C238   C249    1.404   .     A
C238   H273    1.083   .     S
C239   C243    1.390   .     A
C239   H274    1.083   .     S
C239   C249    1.404   .     A
C240   H275    1.083   .     S
C240   C245    1.390   .     A
C240   C248    1.404   .     A
C241   C246    1.402   .     A
C241   H276    1.083   .     S
C242   H266    1.083   .     S
C242   C247    1.402   .     A
C243   H267    1.083   .     S
C243   C247    1.402   .     A
C244   O284    1.288   .     A
C244   C250    1.448   .     S
C244   O285    1.288   .     A
C245   C246    1.402   .     A
C245   H268    1.083   .     S
C246   C255    1.460   .     S
C247   C257    1.460   .     S
C248   C771    1.471   1_554 S
C249   C770    1.471   .     S
C251   C262    1.408   .     A
C252   C262    1.453   .     S
C252   N279    1.157   .     T
C253   N280    1.157   .     T
C254   N281    1.157   .     T
C255   O287    1.294   .     A
C255   O290    1.294   .     A
C256   N282    1.157   .     T
C257   O288    1.294   .     A
C257   O289    1.294   .     A
C258   H265    1.082   .     S
C258   N278    1.367   .     A
C259   N277    1.367   .     A
C259   H269    1.082   .     S
C259   C434    1.417   .     S
C260   H270    1.081   .     S
C260   N278    1.367   .     A
C261   H271    1.081   .     S
C261   N277    1.367   .     A
C261   C432    1.417   .     S
Cu263  Cu264   2.679   .     S
Cu263  O285    1.960   .     S
Cu263  N277    2.013   .     S
Cu263  O287    1.957   .     S
Cu263  O289    1.957   .     S
Cu263  O283    1.960   .     S
Cu264  O290    1.957   .     S
Cu264  O286    1.960   .     S
Cu264  O284    1.960   .     S
Cu264  N278    2.013   .     S
Cu264  O288    1.957   .     S
C291   O344    1.288   .     A
C291   O341    1.288   .     A
C291   C309    1.447   .     S
C292   C308    1.409   .     A
C292   C311    1.453   .     S
C292   C178    1.397   1_655 S
C293   C308    1.409   .     A
C293   C312    1.453   .     S
C293   C204    1.397   1_655 S
C294   C314    1.453   .     S
C294   C309    1.408   .     A
C295   C299    1.390   .     A
C295   H330    1.083   .     S
C295   C306    1.404   .     A
C296   C300    1.390   .     A
C296   C307    1.404   .     A
C296   H331    1.083   .     S
C297   C301    1.390   .     A
C297   H332    1.083   .     S
C297   C307    1.404   .     A
C298   H333    1.083   .     S
C298   C303    1.390   .     A
C298   C306    1.404   .     A
C299   C304    1.402   .     A
C299   H334    1.083   .     S
C300   H324    1.083   .     S
C300   C305    1.402   .     A
C301   H325    1.083   .     S
C301   C305    1.402   .     A
C302   O342    1.288   .     A
C302   C308    1.448   .     S
C302   O343    1.288   .     A
C303   C304    1.402   .     A
C303   H326    1.083   .     S
C304   C313    1.460   .     S
C305   C315    1.460   .     S
C306   C829    1.471   1_554 S
C307   C828    1.471   .     S
C309   C320    1.408   .     A
C310   C320    1.453   .     S
C310   N337    1.157   .     T
C311   N338    1.157   .     T
C312   N339    1.157   .     T
C313   O345    1.294   .     A
C313   O348    1.294   .     A
C314   N340    1.157   .     T
C315   O346    1.294   .     A
C315   O347    1.294   .     A
C316   H323    1.082   .     S
C316   N336    1.367   .     A
C317   N335    1.367   .     A
C317   H327    1.082   .     S
C317   C492    1.417   .     S
C318   H328    1.081   .     S
C318   N336    1.367   .     A
C319   H329    1.081   .     S
C319   N335    1.367   .     A
C319   C490    1.417   .     S
Cu321  Cu322   2.679   .     S
Cu321  O343    1.960   .     S
Cu321  N335    2.013   .     S
Cu321  O345    1.957   .     S
Cu321  O347    1.957   .     S
Cu321  O341    1.960   .     S
Cu322  O348    1.957   .     S
Cu322  O344    1.960   .     S
Cu322  O342    1.960   .     S
Cu322  N336    2.013   .     S
Cu322  O346    1.957   .     S
C349   O402    1.288   .     A
C349   O399    1.288   .     A
C349   C367    1.447   .     S
C350   C366    1.409   .     A
C350   C369    1.453   .     S
C350   C410    1.397   .     S
C351   C366    1.409   .     A
C351   C370    1.453   .     S
C351   C436    1.397   .     S
C352   C372    1.453   .     S
C352   C367    1.408   .     A
C352   C466    1.397   1_455 S
C353   C357    1.390   .     A
C353   H388    1.083   .     S
C353   C364    1.404   .     A
C354   C358    1.390   .     A
C354   C365    1.404   .     A
C354   H389    1.083   .     S
C355   C359    1.390   .     A
C355   H390    1.083   .     S
C355   C365    1.404   .     A
C356   H391    1.083   .     S
C356   C361    1.390   .     A
C356   C364    1.404   .     A
C357   C362    1.402   .     A
C357   H392    1.083   .     S
C358   H382    1.083   .     S
C358   C363    1.402   .     A
C359   H383    1.083   .     S
C359   C363    1.402   .     A
C360   O400    1.288   .     A
C360   C366    1.448   .     S
C360   O401    1.288   .     A
C361   C362    1.402   .     A
C361   H384    1.083   .     S
C362   C371    1.460   .     S
C363   C373    1.460   .     S
C364   C887    1.471   1_554 S
C365   C886    1.471   .     S
C367   C378    1.408   .     A
C368   C378    1.453   .     S
C368   N395    1.157   .     T
C369   N396    1.157   .     T
C370   N397    1.157   .     T
C371   O403    1.294   .     A
C371   O406    1.294   .     A
C372   N398    1.157   .     T
C373   O404    1.294   .     A
C373   O405    1.294   .     A
C374   H381    1.082   .     S
C374   N394    1.367   .     A
C375   N393    1.367   .     A
C375   H385    1.082   .     S
C375   C28     1.417   1_565 S
C376   H386    1.081   .     S
C376   N394    1.367   .     A
C377   H387    1.081   .     S
C377   N393    1.367   .     A
C377   C26     1.417   1_565 S
C378   C467    1.397   1_455 S
Cu379  Cu380   2.679   .     S
Cu379  O401    1.960   .     S
Cu379  N393    2.013   .     S
Cu379  O403    1.957   .     S
Cu379  O405    1.957   .     S
Cu379  O399    1.960   .     S
Cu380  O406    1.957   .     S
Cu380  O402    1.960   .     S
Cu380  O400    1.960   .     S
Cu380  N394    2.013   .     S
Cu380  O404    1.957   .     S
C407   O460    1.288   .     A
C407   O457    1.288   .     A
C407   C425    1.447   .     S
C408   C424    1.409   .     A
C408   C427    1.453   .     S
C408   C468    1.397   .     S
C409   C424    1.409   .     A
C409   C428    1.453   .     S
C409   C494    1.397   .     S
C410   C430    1.453   .     S
C410   C425    1.408   .     A
C411   C415    1.390   .     A
C411   H446    1.083   .     S
C411   C422    1.404   .     A
C412   C416    1.390   .     A
C412   C423    1.404   .     A
C412   H447    1.083   .     S
C413   C417    1.390   .     A
C413   H448    1.083   .     S
C413   C423    1.404   .     A
C414   H449    1.083   .     S
C414   C419    1.390   .     A
C414   C422    1.404   .     A
C415   C420    1.402   .     A
C415   H450    1.083   .     S
C416   H440    1.083   .     S
C416   C421    1.402   .     A
C417   H441    1.083   .     S
C417   C421    1.402   .     A
C418   O458    1.288   .     A
C418   C424    1.448   .     S
C418   O459    1.288   .     A
C419   C420    1.402   .     A
C419   H442    1.083   .     S
C420   C429    1.460   .     S
C421   C431    1.460   .     S
C422   C945    1.471   1_554 S
C423   C944    1.471   .     S
C425   C436    1.408   .     A
C426   C436    1.453   .     S
C426   N453    1.157   .     T
C427   N454    1.157   .     T
C428   N455    1.157   .     T
C429   O461    1.294   .     A
C429   O464    1.294   .     A
C430   N456    1.157   .     T
C431   O462    1.294   .     A
C431   O463    1.294   .     A
C432   H439    1.082   .     S
C432   N452    1.367   .     A
C433   N451    1.367   .     A
C433   H443    1.082   .     S
C433   C86     1.417   1_565 S
C434   H444    1.081   .     S
C434   N452    1.367   .     A
C435   H445    1.081   .     S
C435   N451    1.367   .     A
C435   C84     1.417   1_565 S
Cu437  Cu438   2.679   .     S
Cu437  O459    1.960   .     S
Cu437  N451    2.013   .     S
Cu437  O461    1.957   .     S
Cu437  O463    1.957   .     S
Cu437  O457    1.960   .     S
Cu438  O464    1.957   .     S
Cu438  O460    1.960   .     S
Cu438  O458    1.960   .     S
Cu438  N452    2.013   .     S
Cu438  O462    1.957   .     S
C465   O518    1.288   .     A
C465   O515    1.288   .     A
C465   C483    1.447   .     S
C466   C482    1.409   .     A
C466   C485    1.453   .     S
C466   C352    1.397   1_655 S
C467   C482    1.409   .     A
C467   C486    1.453   .     S
C467   C378    1.397   1_655 S
C468   C488    1.453   .     S
C468   C483    1.408   .     A
C469   C473    1.390   .     A
C469   H504    1.083   .     S
C469   C480    1.404   .     A
C470   C474    1.390   .     A
C470   C481    1.404   .     A
C470   H505    1.083   .     S
C471   C475    1.390   .     A
C471   H506    1.083   .     S
C471   C481    1.404   .     A
C472   H507    1.083   .     S
C472   C477    1.390   .     A
C472   C480    1.404   .     A
C473   C478    1.402   .     A
C473   H508    1.083   .     S
C474   H498    1.083   .     S
C474   C479    1.402   .     A
C475   H499    1.083   .     S
C475   C479    1.402   .     A
C476   O516    1.288   .     A
C476   C482    1.448   .     S
C476   O517    1.288   .     A
C477   C478    1.402   .     A
C477   H500    1.083   .     S
C478   C487    1.460   .     S
C479   C489    1.460   .     S
C480   C1003   1.471   1_554 S
C481   C1002   1.471   .     S
C483   C494    1.408   .     A
C484   C494    1.453   .     S
C484   N511    1.157   .     T
C485   N512    1.157   .     T
C486   N513    1.157   .     T
C487   O519    1.294   .     A
C487   O522    1.294   .     A
C488   N514    1.157   .     T
C489   O520    1.294   .     A
C489   O521    1.294   .     A
C490   H497    1.082   .     S
C490   N510    1.367   .     A
C491   N509    1.367   .     A
C491   H501    1.082   .     S
C491   C144    1.417   1_565 S
C492   H502    1.081   .     S
C492   N510    1.367   .     A
C493   H503    1.081   .     S
C493   N509    1.367   .     A
C493   C142    1.417   1_565 S
Cu495  Cu496   2.679   .     S
Cu495  O517    1.960   .     S
Cu495  N509    2.013   .     S
Cu495  O519    1.957   .     S
Cu495  O521    1.957   .     S
Cu495  O515    1.960   .     S
Cu496  O522    1.957   .     S
Cu496  O518    1.960   .     S
Cu496  O516    1.960   .     S
Cu496  N510    2.013   .     S
Cu496  O520    1.957   .     S
C523   O576    1.288   .     A
C523   O573    1.288   .     A
C523   C541    1.447   .     S
C524   C540    1.409   .     A
C524   C543    1.453   .     S
C524   C584    1.397   .     S
C525   C540    1.409   .     A
C525   C544    1.453   .     S
C525   C610    1.397   .     S
C526   C546    1.453   .     S
C526   C541    1.408   .     A
C526   C640    1.397   1_455 S
C527   C531    1.390   .     A
C527   H562    1.083   .     S
C527   C538    1.404   .     A
C528   C532    1.390   .     A
C528   C539    1.404   .     A
C528   H563    1.083   .     S
C529   C533    1.390   .     A
C529   H564    1.083   .     S
C529   C539    1.404   .     A
C530   H565    1.083   .     S
C530   C535    1.390   .     A
C530   C538    1.404   .     A
C531   C536    1.402   .     A
C531   H566    1.083   .     S
C532   H556    1.083   .     S
C532   C537    1.402   .     A
C533   H557    1.083   .     S
C533   C537    1.402   .     A
C534   O574    1.288   .     A
C534   C540    1.448   .     S
C534   O575    1.288   .     A
C535   C536    1.402   .     A
C535   H558    1.083   .     S
C536   C545    1.460   .     S
C537   C547    1.460   .     S
C539   C16     1.471   1_556 S
C541   C552    1.408   .     A
C542   C552    1.453   .     S
C542   N569    1.157   .     T
C543   N570    1.157   .     T
C544   N571    1.157   .     T
C545   O577    1.294   .     A
C545   O580    1.294   .     A
C546   N572    1.157   .     T
C547   O578    1.294   .     A
C547   O579    1.294   .     A
C548   H555    1.082   .     S
C548   N568    1.367   .     A
C548   C899    1.417   1_545 S
C549   N567    1.367   .     A
C549   H559    1.082   .     S
C549   C724    1.417   .     S
C550   H560    1.081   .     S
C550   N568    1.367   .     A
C550   C897    1.417   1_545 S
C551   H561    1.081   .     S
C551   N567    1.367   .     A
C551   C722    1.417   .     S
C552   C641    1.397   1_455 S
Cu553  Cu554   2.679   .     S
Cu553  O575    1.960   .     S
Cu553  N567    2.013   .     S
Cu553  O577    1.957   .     S
Cu553  O579    1.957   .     S
Cu553  O573    1.960   .     S
Cu554  O580    1.957   .     S
Cu554  O576    1.960   .     S
Cu554  O574    1.960   .     S
Cu554  N568    2.013   .     S
Cu554  O578    1.957   .     S
C581   O634    1.288   .     A
C581   O631    1.288   .     A
C581   C599    1.447   .     S
C582   C598    1.409   .     A
C582   C601    1.453   .     S
C582   C642    1.397   .     S
C583   C598    1.409   .     A
C583   C602    1.453   .     S
C583   C668    1.397   .     S
C584   C604    1.453   .     S
C584   C599    1.408   .     A
C585   C589    1.390   .     A
C585   H620    1.083   .     S
C585   C596    1.404   .     A
C586   C590    1.390   .     A
C586   C597    1.404   .     A
C586   H621    1.083   .     S
C587   C591    1.390   .     A
C587   H622    1.083   .     S
C587   C597    1.404   .     A
C588   H623    1.083   .     S
C588   C593    1.390   .     A
C588   C596    1.404   .     A
C589   C594    1.402   .     A
C589   H624    1.083   .     S
C590   H614    1.083   .     S
C590   C595    1.402   .     A
C591   H615    1.083   .     S
C591   C595    1.402   .     A
C592   O632    1.288   .     A
C592   C598    1.448   .     S
C592   O633    1.288   .     A
C593   C594    1.402   .     A
C593   H616    1.083   .     S
C594   C603    1.460   .     S
C595   C605    1.460   .     S
C597   C74     1.471   1_556 S
C599   C610    1.408   .     A
C600   C610    1.453   .     S
C600   N627    1.157   .     T
C601   N628    1.157   .     T
C602   N629    1.157   .     T
C603   O635    1.294   .     A
C603   O638    1.294   .     A
C604   N630    1.157   .     T
C605   O636    1.294   .     A
C605   O637    1.294   .     A
C606   H613    1.082   .     S
C606   N626    1.367   .     A
C606   C957    1.417   1_545 S
C607   N625    1.367   .     A
C607   H617    1.082   .     S
C607   C782    1.417   .     S
C608   H618    1.081   .     S
C608   N626    1.367   .     A
C608   C955    1.417   1_545 S
C609   H619    1.081   .     S
C609   N625    1.367   .     A
C609   C780    1.417   .     S
Cu611  Cu612   2.679   .     S
Cu611  O633    1.960   .     S
Cu611  N625    2.013   .     S
Cu611  O635    1.957   .     S
Cu611  O637    1.957   .     S
Cu611  O631    1.960   .     S
Cu612  O638    1.957   .     S
Cu612  O634    1.960   .     S
Cu612  O632    1.960   .     S
Cu612  N626    2.013   .     S
Cu612  O636    1.957   .     S
C639   O692    1.288   .     A
C639   O689    1.288   .     A
C639   C657    1.447   .     S
C640   C656    1.409   .     A
C640   C659    1.453   .     S
C640   C526    1.397   1_655 S
C641   C656    1.409   .     A
C641   C660    1.453   .     S
C641   C552    1.397   1_655 S
C642   C662    1.453   .     S
C642   C657    1.408   .     A
C643   C647    1.390   .     A
C643   H678    1.083   .     S
C643   C654    1.404   .     A
C644   C648    1.390   .     A
C644   C655    1.404   .     A
C644   H679    1.083   .     S
C645   C649    1.390   .     A
C645   H680    1.083   .     S
C645   C655    1.404   .     A
C646   H681    1.083   .     S
C646   C651    1.390   .     A
C646   C654    1.404   .     A
C647   C652    1.402   .     A
C647   H682    1.083   .     S
C648   H672    1.083   .     S
C648   C653    1.402   .     A
C649   H673    1.083   .     S
C649   C653    1.402   .     A
C650   O690    1.288   .     A
C650   C656    1.448   .     S
C650   O691    1.288   .     A
C651   C652    1.402   .     A
C651   H674    1.083   .     S
C652   C661    1.460   .     S
C653   C663    1.460   .     S
C655   C132    1.471   1_556 S
C657   C668    1.408   .     A
C658   C668    1.453   .     S
C658   N685    1.157   .     T
C659   N686    1.157   .     T
C660   N687    1.157   .     T
C661   O693    1.294   .     A
C661   O696    1.294   .     A
C662   N688    1.157   .     T
C663   O694    1.294   .     A
C663   O695    1.294   .     A
C664   H671    1.082   .     S
C664   N684    1.367   .     A
C664   C1015   1.417   1_545 S
C665   N683    1.367   .     A
C665   H675    1.082   .     S
C665   C840    1.417   .     S
C666   H676    1.081   .     S
C666   N684    1.367   .     A
C666   C1013   1.417   1_545 S
C667   H677    1.081   .     S
C667   N683    1.367   .     A
C667   C838    1.417   .     S
Cu669  Cu670   2.679   .     S
Cu669  O691    1.960   .     S
Cu669  N683    2.013   .     S
Cu669  O693    1.957   .     S
Cu669  O695    1.957   .     S
Cu669  O689    1.960   .     S
Cu670  O696    1.957   .     S
Cu670  O692    1.960   .     S
Cu670  O690    1.960   .     S
Cu670  N684    2.013   .     S
Cu670  O694    1.957   .     S
C697   O750    1.288   .     A
C697   O747    1.288   .     A
C697   C715    1.447   .     S
C698   C714    1.409   .     A
C698   C717    1.453   .     S
C698   C758    1.397   .     S
C699   C714    1.409   .     A
C699   C718    1.453   .     S
C699   C784    1.397   .     S
C700   C720    1.453   .     S
C700   C715    1.408   .     A
C700   C814    1.397   1_455 S
C701   C705    1.390   .     A
C701   H736    1.083   .     S
C701   C712    1.404   .     A
C702   C706    1.390   .     A
C702   C713    1.404   .     A
C702   H737    1.083   .     S
C703   C707    1.390   .     A
C703   H738    1.083   .     S
C703   C713    1.404   .     A
C704   H739    1.083   .     S
C704   C709    1.390   .     A
C704   C712    1.404   .     A
C705   C710    1.402   .     A
C705   H740    1.083   .     S
C706   H730    1.083   .     S
C706   C711    1.402   .     A
C707   H731    1.083   .     S
C707   C711    1.402   .     A
C708   O748    1.288   .     A
C708   C714    1.448   .     S
C708   O749    1.288   .     A
C709   C710    1.402   .     A
C709   H732    1.083   .     S
C710   C719    1.460   .     S
C711   C721    1.460   .     S
C713   C190    1.471   1_556 S
C715   C726    1.408   .     A
C716   C726    1.453   .     S
C716   N743    1.157   .     T
C717   N744    1.157   .     T
C718   N745    1.157   .     T
C719   O751    1.294   .     A
C719   O754    1.294   .     A
C720   N746    1.157   .     T
C721   O752    1.294   .     A
C721   O753    1.294   .     A
C722   H729    1.082   .     S
C722   N742    1.367   .     A
C723   N741    1.367   .     A
C723   H733    1.082   .     S
C723   C898    1.417   .     S
C724   H734    1.081   .     S
C724   N742    1.367   .     A
C725   H735    1.081   .     S
C725   N741    1.367   .     A
C725   C896    1.417   .     S
C726   C815    1.397   1_455 S
Cu727  Cu728   2.679   .     S
Cu727  O749    1.960   .     S
Cu727  N741    2.013   .     S
Cu727  O751    1.957   .     S
Cu727  O753    1.957   .     S
Cu727  O747    1.960   .     S
Cu728  O754    1.957   .     S
Cu728  O750    1.960   .     S
Cu728  O748    1.960   .     S
Cu728  N742    2.013   .     S
Cu728  O752    1.957   .     S
C755   O808    1.288   .     A
C755   O805    1.288   .     A
C755   C773    1.447   .     S
C756   C772    1.409   .     A
C756   C775    1.453   .     S
C756   C816    1.397   .     S
C757   C772    1.409   .     A
C757   C776    1.453   .     S
C757   C842    1.397   .     S
C758   C778    1.453   .     S
C758   C773    1.408   .     A
C759   C763    1.390   .     A
C759   H794    1.083   .     S
C759   C770    1.404   .     A
C760   C764    1.390   .     A
C760   C771    1.404   .     A
C760   H795    1.083   .     S
C761   C765    1.390   .     A
C761   H796    1.083   .     S
C761   C771    1.404   .     A
C762   H797    1.083   .     S
C762   C767    1.390   .     A
C762   C770    1.404   .     A
C763   C768    1.402   .     A
C763   H798    1.083   .     S
C764   H788    1.083   .     S
C764   C769    1.402   .     A
C765   H789    1.083   .     S
C765   C769    1.402   .     A
C766   O806    1.288   .     A
C766   C772    1.448   .     S
C766   O807    1.288   .     A
C767   C768    1.402   .     A
C767   H790    1.083   .     S
C768   C777    1.460   .     S
C769   C779    1.460   .     S
C771   C248    1.471   1_556 S
C773   C784    1.408   .     A
C774   C784    1.453   .     S
C774   N801    1.157   .     T
C775   N802    1.157   .     T
C776   N803    1.157   .     T
C777   O809    1.294   .     A
C777   O812    1.294   .     A
C778   N804    1.157   .     T
C779   O810    1.294   .     A
C779   O811    1.294   .     A
C780   H787    1.082   .     S
C780   N800    1.367   .     A
C781   N799    1.367   .     A
C781   H791    1.082   .     S
C781   C956    1.417   .     S
C782   H792    1.081   .     S
C782   N800    1.367   .     A
C783   H793    1.081   .     S
C783   N799    1.367   .     A
C783   C954    1.417   .     S
Cu785  Cu786   2.679   .     S
Cu785  O807    1.960   .     S
Cu785  N799    2.013   .     S
Cu785  O809    1.957   .     S
Cu785  O811    1.957   .     S
Cu785  O805    1.960   .     S
Cu786  O812    1.957   .     S
Cu786  O808    1.960   .     S
Cu786  O806    1.960   .     S
Cu786  N800    2.013   .     S
Cu786  O810    1.957   .     S
C813   O866    1.288   .     A
C813   O863    1.288   .     A
C813   C831    1.447   .     S
C814   C830    1.409   .     A
C814   C833    1.453   .     S
C814   C700    1.397   1_655 S
C815   C830    1.409   .     A
C815   C834    1.453   .     S
C815   C726    1.397   1_655 S
C816   C836    1.453   .     S
C816   C831    1.408   .     A
C817   C821    1.390   .     A
C817   H852    1.083   .     S
C817   C828    1.404   .     A
C818   C822    1.390   .     A
C818   C829    1.404   .     A
C818   H853    1.083   .     S
C819   C823    1.390   .     A
C819   H854    1.083   .     S
C819   C829    1.404   .     A
C820   H855    1.083   .     S
C820   C825    1.390   .     A
C820   C828    1.404   .     A
C821   C826    1.402   .     A
C821   H856    1.083   .     S
C822   H846    1.083   .     S
C822   C827    1.402   .     A
C823   H847    1.083   .     S
C823   C827    1.402   .     A
C824   O864    1.288   .     A
C824   C830    1.448   .     S
C824   O865    1.288   .     A
C825   C826    1.402   .     A
C825   H848    1.083   .     S
C826   C835    1.460   .     S
C827   C837    1.460   .     S
C829   C306    1.471   1_556 S
C831   C842    1.408   .     A
C832   C842    1.453   .     S
C832   N859    1.157   .     T
C833   N860    1.157   .     T
C834   N861    1.157   .     T
C835   O867    1.294   .     A
C835   O870    1.294   .     A
C836   N862    1.157   .     T
C837   O868    1.294   .     A
C837   O869    1.294   .     A
C838   H845    1.082   .     S
C838   N858    1.367   .     A
C839   N857    1.367   .     A
C839   H849    1.082   .     S
C839   C1014   1.417   .     S
C840   H850    1.081   .     S
C840   N858    1.367   .     A
C841   H851    1.081   .     S
C841   N857    1.367   .     A
C841   C1012   1.417   .     S
Cu843  Cu844   2.679   .     S
Cu843  O865    1.960   .     S
Cu843  N857    2.013   .     S
Cu843  O867    1.957   .     S
Cu843  O869    1.957   .     S
Cu843  O863    1.960   .     S
Cu844  O870    1.957   .     S
Cu844  O866    1.960   .     S
Cu844  O864    1.960   .     S
Cu844  N858    2.013   .     S
Cu844  O868    1.957   .     S
C871   O924    1.288   .     A
C871   O921    1.288   .     A
C871   C889    1.447   .     S
C872   C888    1.409   .     A
C872   C891    1.453   .     S
C872   C932    1.397   .     S
C873   C888    1.409   .     A
C873   C892    1.453   .     S
C873   C958    1.397   .     S
C874   C894    1.453   .     S
C874   C889    1.408   .     A
C874   C988    1.397   1_455 S
C875   C879    1.390   .     A
C875   H910    1.083   .     S
C875   C886    1.404   .     A
C876   C880    1.390   .     A
C876   C887    1.404   .     A
C876   H911    1.083   .     S
C877   C881    1.390   .     A
C877   H912    1.083   .     S
C877   C887    1.404   .     A
C878   H913    1.083   .     S
C878   C883    1.390   .     A
C878   C886    1.404   .     A
C879   C884    1.402   .     A
C879   H914    1.083   .     S
C880   H904    1.083   .     S
C880   C885    1.402   .     A
C881   H905    1.083   .     S
C881   C885    1.402   .     A
C882   O922    1.288   .     A
C882   C888    1.448   .     S
C882   O923    1.288   .     A
C883   C884    1.402   .     A
C883   H906    1.083   .     S
C884   C893    1.460   .     S
C885   C895    1.460   .     S
C887   C364    1.471   1_556 S
C889   C900    1.408   .     A
C890   C900    1.453   .     S
C890   N917    1.157   .     T
C891   N918    1.157   .     T
C892   N919    1.157   .     T
C893   O925    1.294   .     A
C893   O928    1.294   .     A
C894   N920    1.157   .     T
C895   O926    1.294   .     A
C895   O927    1.294   .     A
C896   H903    1.082   .     S
C896   N916    1.367   .     A
C897   N915    1.367   .     A
C897   H907    1.082   .     S
C897   C550    1.417   1_565 S
C898   H908    1.081   .     S
C898   N916    1.367   .     A
C899   H909    1.081   .     S
C899   N915    1.367   .     A
C899   C548    1.417   1_565 S
C900   C989    1.397   1_455 S
Cu901  Cu902   2.679   .     S
Cu901  O923    1.960   .     S
Cu901  N915    2.013   .     S
Cu901  O925    1.957   .     S
Cu901  O927    1.957   .     S
Cu901  O921    1.960   .     S
Cu902  O928    1.957   .     S
Cu902  O924    1.960   .     S
Cu902  O922    1.960   .     S
Cu902  N916    2.013   .     S
Cu902  O926    1.957   .     S
C929   O982    1.288   .     A
C929   O979    1.288   .     A
C929   C947    1.447   .     S
C930   C946    1.409   .     A
C930   C949    1.453   .     S
C930   C990    1.397   .     S
C931   C946    1.409   .     A
C931   C950    1.453   .     S
C931   C1016   1.397   .     S
C932   C952    1.453   .     S
C932   C947    1.408   .     A
C933   C937    1.390   .     A
C933   H968    1.083   .     S
C933   C944    1.404   .     A
C934   C938    1.390   .     A
C934   C945    1.404   .     A
C934   H969    1.083   .     S
C935   C939    1.390   .     A
C935   H970    1.083   .     S
C935   C945    1.404   .     A
C936   H971    1.083   .     S
C936   C941    1.390   .     A
C936   C944    1.404   .     A
C937   C942    1.402   .     A
C937   H972    1.083   .     S
C938   H962    1.083   .     S
C938   C943    1.402   .     A
C939   H963    1.083   .     S
C939   C943    1.402   .     A
C940   O980    1.288   .     A
C940   C946    1.448   .     S
C940   O981    1.288   .     A
C941   C942    1.402   .     A
C941   H964    1.083   .     S
C942   C951    1.460   .     S
C943   C953    1.460   .     S
C945   C422    1.471   1_556 S
C947   C958    1.408   .     A
C948   C958    1.453   .     S
C948   N975    1.157   .     T
C949   N976    1.157   .     T
C950   N977    1.157   .     T
C951   O983    1.294   .     A
C951   O986    1.294   .     A
C952   N978    1.157   .     T
C953   O984    1.294   .     A
C953   O985    1.294   .     A
C954   H961    1.082   .     S
C954   N974    1.367   .     A
C955   N973    1.367   .     A
C955   H965    1.082   .     S
C955   C608    1.417   1_565 S
C956   H966    1.081   .     S
C956   N974    1.367   .     A
C957   H967    1.081   .     S
C957   N973    1.367   .     A
C957   C606    1.417   1_565 S
Cu959  Cu960   2.679   .     S
Cu959  O981    1.960   .     S
Cu959  N973    2.013   .     S
Cu959  O983    1.957   .     S
Cu959  O985    1.957   .     S
Cu959  O979    1.960   .     S
Cu960  O986    1.957   .     S
Cu960  O982    1.960   .     S
Cu960  O980    1.960   .     S
Cu960  N974    2.013   .     S
Cu960  O984    1.957   .     S
C987   O1040   1.288   .     A
C987   O1037   1.288   .     A
C987   C1005   1.447   .     S
C988   C1004   1.409   .     A
C988   C1007   1.453   .     S
C988   C874    1.397   1_655 S
C989   C1004   1.409   .     A
C989   C1008   1.453   .     S
C989   C900    1.397   1_655 S
C990   C1010   1.453   .     S
C990   C1005   1.408   .     A
C991   C995    1.390   .     A
C991   H1026   1.083   .     S
C991   C1002   1.404   .     A
C992   C996    1.390   .     A
C992   C1003   1.404   .     A
C992   H1027   1.083   .     S
C993   C997    1.390   .     A
C993   H1028   1.083   .     S
C993   C1003   1.404   .     A
C994   H1029   1.083   .     S
C994   C999    1.390   .     A
C994   C1002   1.404   .     A
C995   C1000   1.402   .     A
C995   H1030   1.083   .     S
C996   H1020   1.083   .     S
C996   C1001   1.402   .     A
C997   H1021   1.083   .     S
C997   C1001   1.402   .     A
C998   O1038   1.288   .     A
C998   C1004   1.448   .     S
C998   O1039   1.288   .     A
C999   C1000   1.402   .     A
C999   H1022   1.083   .     S
C1000  C1009   1.460   .     S
C1001  C1011   1.460   .     S
C1003  C480    1.471   1_556 S
C1005  C1016   1.408   .     A
C1006  C1016   1.453   .     S
C1006  N1033   1.157   .     T
C1007  N1034   1.157   .     T
C1008  N1035   1.157   .     T
C1009  O1041   1.294   .     A
C1009  O1044   1.294   .     A
C1010  N1036   1.157   .     T
C1011  O1042   1.294   .     A
C1011  O1043   1.294   .     A
C1012  H1019   1.082   .     S
C1012  N1032   1.367   .     A
C1013  N1031   1.367   .     A
C1013  H1023   1.082   .     S
C1013  C666    1.417   1_565 S
C1014  H1024   1.081   .     S
C1014  N1032   1.367   .     A
C1015  H1025   1.081   .     S
C1015  N1031   1.367   .     A
C1015  C664    1.417   1_565 S
Cu1017 Cu1018  2.679   .     S
Cu1017 O1039   1.960   .     S
Cu1017 N1031   2.013   .     S
Cu1017 O1041   1.957   .     S
Cu1017 O1043   1.957   .     S
Cu1017 O1037   1.960   .     S
Cu1018 O1044   1.957   .     S
Cu1018 O1040   1.960   .     S
Cu1018 O1038   1.960   .     S
Cu1018 N1032   2.013   .     S
Cu1018 O1042   1.957   .     S
