data_str_m2_o10_o16_pcu_sym.187
_audit_creation_date              2020-01-03
_audit_creation_method            'Materials Studio'
_symmetry_space_group_name_H-M    'P1'
_symmetry_Int_Tables_number       1
_symmetry_cell_setting            triclinic
loop_
_symmetry_equiv_pos_as_xyz
  x,y,z
_cell_length_a                    22.8057
_cell_length_b                    26.2633
_cell_length_c                    27.0902
_cell_angle_alpha                 100.6220
_cell_angle_beta                  80.0069
_cell_angle_gamma                 103.7833
loop_
_atom_site_label
_atom_site_type_symbol
_atom_site_fract_x
_atom_site_fract_y
_atom_site_fract_z
_atom_site_U_iso_or_equiv
_atom_site_adp_type
_atom_site_occupancy
C1     C     0.18233   0.26672   0.25080   0.00000  Uiso   1.00
C2     C     0.14314   0.13682   0.48008   0.00000  Uiso   1.00
C3     C     0.16291   0.14352   0.42843   0.00000  Uiso   1.00
C4     C     0.18725   0.15428   0.01485   0.00000  Uiso   1.00
C5     C     0.24990   0.17100   0.49622   0.00000  Uiso   1.00
C6     C     0.26837   0.16951   0.44490   0.00000  Uiso   1.00
C7     C     0.22630   0.15251   0.41157   0.00000  Uiso   1.00
C8     C     0.17145   0.15864   0.06762   0.00000  Uiso   1.00
C9     C     0.27786   0.18643   0.08025   0.00000  Uiso   1.00
C10    C     0.11874   0.13954   0.39551   0.00000  Uiso   1.00
C11    C     0.19046   0.32300   0.25159   0.00000  Uiso   1.00
C12    C     0.13471   0.15748   0.34503   0.00000  Uiso   1.00
C13    C     0.14328   0.01023   0.24736   0.00000  Uiso   1.00
C14    C     0.15141   0.06651   0.24806   0.00000  Uiso   1.00
C15    C     0.19877   0.17011   0.15388   0.00000  Uiso   1.00
C16    C     0.29432   0.18743   0.02885   0.00000  Uiso   1.00
C17    C     0.21639   0.17194   0.09982   0.00000  Uiso   1.00
C18    C     0.05812   0.11635   0.41068   0.00000  Uiso   1.00
C19    C     0.04009   0.10081   0.45817   0.00000  Uiso   1.00
C20    C     0.08141   0.11071   0.49348   0.00000  Uiso   1.00
Cu21   Cu    0.10710   0.16105   0.24435   0.00000  Uiso   1.00
Cu22   Cu    0.22623   0.17228   0.25565   0.00000  Uiso   1.00
H23    H     0.31318   0.19774   0.10468   0.00000  Uiso   1.00
H24    H     0.09823   0.31895   0.24337   0.00000  Uiso   1.00
H25    H     0.31597   0.18120   0.43018   0.00000  Uiso   1.00
H26    H     0.00874   0.19990   0.01442   0.00000  Uiso   1.00
H27    H     0.12465   0.15359   0.08475   0.00000  Uiso   1.00
H28    H     0.02442   0.10877   0.38506   0.00000  Uiso   1.00
H29    H     0.32642   0.08101   0.46762   0.00000  Uiso   1.00
H30    H     0.24616   0.14375   0.37293   0.00000  Uiso   1.00
H31    H     0.23549   0.01427   0.25567   0.00000  Uiso   1.00
N32    N     0.31574   0.18074   0.26416   0.00000  Uiso   1.00
N33    N     0.01759   0.15259   0.23584   0.00000  Uiso   1.00
O34    O     0.12797   0.23807   0.24633   0.00000  Uiso   1.00
O35    O     0.22858   0.24755   0.25586   0.00000  Uiso   1.00
O36    O     0.09181   0.15960   0.31839   0.00000  Uiso   1.00
O37    O     0.19242   0.16908   0.32793   0.00000  Uiso   1.00
O38    O     0.10476   0.08578   0.24413   0.00000  Uiso   1.00
O39    O     0.20536   0.09526   0.25367   0.00000  Uiso   1.00
O40    O     0.14092   0.16425   0.17207   0.00000  Uiso   1.00
O41    O     0.24152   0.17373   0.18161   0.00000  Uiso   1.00
C42    C     0.32991   0.22335   0.31047   0.00000  Uiso   1.00
C43    C     0.28379   0.25057   0.33930   0.00000  Uiso   1.00
C44    C     0.28792   0.28404   0.38581   0.00000  Uiso   1.00
C45    C     0.00724   0.29634   0.40723   0.00000  Uiso   1.00
C46    C     0.05640   0.27774   0.38037   0.00000  Uiso   1.00
C47    C     0.05162   0.24447   0.33364   0.00000  Uiso   1.00
H48    H     0.24060   0.24910   0.33086   0.00000  Uiso   1.00
H49    H     0.24942   0.30061   0.40538   0.00000  Uiso   1.00
H50    H     0.01055   0.32135   0.44355   0.00000  Uiso   1.00
H51    H     0.09935   0.28967   0.39578   0.00000  Uiso   1.00
H52    H     0.09575   0.24018   0.32221   0.00000  Uiso   1.00
O53    O     0.32522   0.11779   0.19890   0.00000  Uiso   1.00
H54    H     0.02469   0.09991   0.18052   0.00000  Uiso   1.00
O55    O     0.06330   0.09021   0.03847   0.00000  Uiso   1.00
H56    H     0.01924   0.07347   0.04139   0.00000  Uiso   1.00
C57    C     0.51566   0.26672   0.25080   0.00000  Uiso   1.00
C58    C     0.47648   0.13682   0.48008   0.00000  Uiso   1.00
C59    C     0.49624   0.14352   0.42843   0.00000  Uiso   1.00
C60    C     0.52058   0.15428   0.01485   0.00000  Uiso   1.00
C61    C     0.58324   0.17100   0.49622   0.00000  Uiso   1.00
C62    C     0.60170   0.16951   0.44490   0.00000  Uiso   1.00
C63    C     0.55963   0.15251   0.41157   0.00000  Uiso   1.00
C64    C     0.50478   0.15864   0.06762   0.00000  Uiso   1.00
C65    C     0.61119   0.18643   0.08025   0.00000  Uiso   1.00
C66    C     0.45207   0.13954   0.39551   0.00000  Uiso   1.00
C67    C     0.52379   0.32300   0.25159   0.00000  Uiso   1.00
C68    C     0.46804   0.15748   0.34503   0.00000  Uiso   1.00
C69    C     0.47662   0.01023   0.24736   0.00000  Uiso   1.00
C70    C     0.48474   0.06651   0.24806   0.00000  Uiso   1.00
C71    C     0.53211   0.17011   0.15388   0.00000  Uiso   1.00
C72    C     0.62766   0.18743   0.02885   0.00000  Uiso   1.00
C73    C     0.54972   0.17194   0.09982   0.00000  Uiso   1.00
C74    C     0.39145   0.11635   0.41068   0.00000  Uiso   1.00
C75    C     0.37342   0.10081   0.45817   0.00000  Uiso   1.00
C76    C     0.41474   0.11071   0.49348   0.00000  Uiso   1.00
Cu77   Cu    0.44043   0.16105   0.24435   0.00000  Uiso   1.00
Cu78   Cu    0.55957   0.17228   0.25565   0.00000  Uiso   1.00
H79    H     0.64651   0.19774   0.10468   0.00000  Uiso   1.00
H80    H     0.43156   0.31895   0.24337   0.00000  Uiso   1.00
H81    H     0.64931   0.18120   0.43018   0.00000  Uiso   1.00
H82    H     0.34208   0.19990   0.01442   0.00000  Uiso   1.00
H83    H     0.45798   0.15359   0.08475   0.00000  Uiso   1.00
H84    H     0.35775   0.10877   0.38506   0.00000  Uiso   1.00
H85    H     0.65975   0.08101   0.46762   0.00000  Uiso   1.00
H86    H     0.57950   0.14375   0.37293   0.00000  Uiso   1.00
H87    H     0.56883   0.01427   0.25567   0.00000  Uiso   1.00
N88    N     0.64908   0.18074   0.26416   0.00000  Uiso   1.00
N89    N     0.35092   0.15259   0.23584   0.00000  Uiso   1.00
O90    O     0.46131   0.23807   0.24633   0.00000  Uiso   1.00
O91    O     0.56191   0.24755   0.25586   0.00000  Uiso   1.00
O92    O     0.42515   0.15960   0.31839   0.00000  Uiso   1.00
O93    O     0.52575   0.16908   0.32793   0.00000  Uiso   1.00
O94    O     0.43809   0.08578   0.24413   0.00000  Uiso   1.00
O95    O     0.53869   0.09526   0.25367   0.00000  Uiso   1.00
O96    O     0.47425   0.16425   0.17207   0.00000  Uiso   1.00
O97    O     0.57485   0.17373   0.18161   0.00000  Uiso   1.00
C98    C     0.66324   0.22335   0.31047   0.00000  Uiso   1.00
C99    C     0.61712   0.25057   0.33930   0.00000  Uiso   1.00
C100   C     0.62125   0.28404   0.38581   0.00000  Uiso   1.00
C101   C     0.34057   0.29634   0.40723   0.00000  Uiso   1.00
C102   C     0.38973   0.27774   0.38037   0.00000  Uiso   1.00
C103   C     0.38495   0.24447   0.33364   0.00000  Uiso   1.00
H104   H     0.57393   0.24910   0.33086   0.00000  Uiso   1.00
H105   H     0.58275   0.30061   0.40538   0.00000  Uiso   1.00
H106   H     0.34388   0.32135   0.44355   0.00000  Uiso   1.00
H107   H     0.43268   0.28967   0.39578   0.00000  Uiso   1.00
H108   H     0.42908   0.24018   0.32221   0.00000  Uiso   1.00
O109   O     0.65856   0.11779   0.19890   0.00000  Uiso   1.00
H110   H     0.35803   0.09991   0.18052   0.00000  Uiso   1.00
O111   O     0.39663   0.09021   0.03847   0.00000  Uiso   1.00
H112   H     0.35257   0.07347   0.04139   0.00000  Uiso   1.00
C113   C     0.84899   0.26672   0.25080   0.00000  Uiso   1.00
C114   C     0.80981   0.13682   0.48008   0.00000  Uiso   1.00
C115   C     0.82958   0.14352   0.42843   0.00000  Uiso   1.00
C116   C     0.85391   0.15428   0.01485   0.00000  Uiso   1.00
C117   C     0.91657   0.17100   0.49622   0.00000  Uiso   1.00
C118   C     0.93503   0.16951   0.44490   0.00000  Uiso   1.00
C119   C     0.89297   0.15251   0.41157   0.00000  Uiso   1.00
C120   C     0.83812   0.15864   0.06762   0.00000  Uiso   1.00
C121   C     0.94453   0.18643   0.08025   0.00000  Uiso   1.00
C122   C     0.78540   0.13954   0.39551   0.00000  Uiso   1.00
C123   C     0.85713   0.32300   0.25159   0.00000  Uiso   1.00
C124   C     0.80137   0.15748   0.34503   0.00000  Uiso   1.00
C125   C     0.80995   0.01023   0.24736   0.00000  Uiso   1.00
C126   C     0.81808   0.06651   0.24806   0.00000  Uiso   1.00
C127   C     0.86544   0.17011   0.15388   0.00000  Uiso   1.00
C128   C     0.96099   0.18743   0.02885   0.00000  Uiso   1.00
C129   C     0.88305   0.17194   0.09982   0.00000  Uiso   1.00
C130   C     0.72478   0.11635   0.41068   0.00000  Uiso   1.00
C131   C     0.70675   0.10081   0.45817   0.00000  Uiso   1.00
C132   C     0.74808   0.11071   0.49348   0.00000  Uiso   1.00
Cu133  Cu    0.77377   0.16105   0.24435   0.00000  Uiso   1.00
Cu134  Cu    0.89290   0.17228   0.25565   0.00000  Uiso   1.00
H135   H     0.97985   0.19774   0.10468   0.00000  Uiso   1.00
H136   H     0.76490   0.31895   0.24337   0.00000  Uiso   1.00
H137   H     0.98264   0.18120   0.43018   0.00000  Uiso   1.00
H138   H     0.67541   0.19990   0.01442   0.00000  Uiso   1.00
H139   H     0.79131   0.15359   0.08475   0.00000  Uiso   1.00
H140   H     0.69108   0.10877   0.38506   0.00000  Uiso   1.00
H141   H     0.99308   0.08101   0.46762   0.00000  Uiso   1.00
H142   H     0.91283   0.14375   0.37293   0.00000  Uiso   1.00
H143   H     0.90216   0.01427   0.25567   0.00000  Uiso   1.00
N144   N     0.98241   0.18074   0.26416   0.00000  Uiso   1.00
N145   N     0.68426   0.15259   0.23584   0.00000  Uiso   1.00
O146   O     0.79464   0.23807   0.24633   0.00000  Uiso   1.00
O147   O     0.89524   0.24755   0.25586   0.00000  Uiso   1.00
O148   O     0.75848   0.15960   0.31839   0.00000  Uiso   1.00
O149   O     0.85908   0.16908   0.32793   0.00000  Uiso   1.00
O150   O     0.77142   0.08578   0.24413   0.00000  Uiso   1.00
O151   O     0.87203   0.09526   0.25367   0.00000  Uiso   1.00
O152   O     0.80758   0.16425   0.17207   0.00000  Uiso   1.00
O153   O     0.90819   0.17373   0.18161   0.00000  Uiso   1.00
C154   C     0.99658   0.22335   0.31047   0.00000  Uiso   1.00
C155   C     0.95045   0.25057   0.33930   0.00000  Uiso   1.00
C156   C     0.95459   0.28404   0.38581   0.00000  Uiso   1.00
C157   C     0.67391   0.29634   0.40723   0.00000  Uiso   1.00
C158   C     0.72306   0.27774   0.38037   0.00000  Uiso   1.00
C159   C     0.71828   0.24447   0.33364   0.00000  Uiso   1.00
H160   H     0.90727   0.24910   0.33086   0.00000  Uiso   1.00
H161   H     0.91608   0.30061   0.40538   0.00000  Uiso   1.00
H162   H     0.67721   0.32135   0.44355   0.00000  Uiso   1.00
H163   H     0.76602   0.28967   0.39578   0.00000  Uiso   1.00
H164   H     0.76242   0.24018   0.32221   0.00000  Uiso   1.00
O165   O     0.99189   0.11779   0.19890   0.00000  Uiso   1.00
H166   H     0.69136   0.09991   0.18052   0.00000  Uiso   1.00
O167   O     0.72996   0.09021   0.03847   0.00000  Uiso   1.00
H168   H     0.68590   0.07347   0.04139   0.00000  Uiso   1.00
C169   C     0.18233   0.60005   0.25080   0.00000  Uiso   1.00
C170   C     0.14314   0.47015   0.48008   0.00000  Uiso   1.00
C171   C     0.16291   0.47686   0.42843   0.00000  Uiso   1.00
C172   C     0.18725   0.48761   0.01485   0.00000  Uiso   1.00
C173   C     0.24990   0.50433   0.49622   0.00000  Uiso   1.00
C174   C     0.26837   0.50284   0.44490   0.00000  Uiso   1.00
C175   C     0.22630   0.48584   0.41157   0.00000  Uiso   1.00
C176   C     0.17145   0.49198   0.06762   0.00000  Uiso   1.00
C177   C     0.27786   0.51976   0.08025   0.00000  Uiso   1.00
C178   C     0.11874   0.47287   0.39551   0.00000  Uiso   1.00
C179   C     0.19046   0.65634   0.25159   0.00000  Uiso   1.00
C180   C     0.13471   0.49082   0.34503   0.00000  Uiso   1.00
C181   C     0.14328   0.34356   0.24736   0.00000  Uiso   1.00
C182   C     0.15141   0.39984   0.24806   0.00000  Uiso   1.00
C183   C     0.19877   0.50345   0.15388   0.00000  Uiso   1.00
C184   C     0.29432   0.52076   0.02885   0.00000  Uiso   1.00
C185   C     0.21639   0.50527   0.09982   0.00000  Uiso   1.00
C186   C     0.05812   0.44968   0.41068   0.00000  Uiso   1.00
C187   C     0.04009   0.43414   0.45817   0.00000  Uiso   1.00
C188   C     0.08141   0.44404   0.49348   0.00000  Uiso   1.00
Cu189  Cu    0.10710   0.49439   0.24435   0.00000  Uiso   1.00
Cu190  Cu    0.22623   0.50561   0.25565   0.00000  Uiso   1.00
H191   H     0.31318   0.53107   0.10468   0.00000  Uiso   1.00
H192   H     0.09823   0.65229   0.24337   0.00000  Uiso   1.00
H193   H     0.31597   0.51453   0.43018   0.00000  Uiso   1.00
H194   H     0.00874   0.53324   0.01442   0.00000  Uiso   1.00
H195   H     0.12465   0.48692   0.08475   0.00000  Uiso   1.00
H196   H     0.02442   0.44210   0.38506   0.00000  Uiso   1.00
H197   H     0.32642   0.41435   0.46762   0.00000  Uiso   1.00
H198   H     0.24616   0.47709   0.37293   0.00000  Uiso   1.00
H199   H     0.23549   0.34761   0.25567   0.00000  Uiso   1.00
N200   N     0.31574   0.51407   0.26416   0.00000  Uiso   1.00
N201   N     0.01759   0.48593   0.23584   0.00000  Uiso   1.00
O202   O     0.12797   0.57141   0.24633   0.00000  Uiso   1.00
O203   O     0.22858   0.58089   0.25586   0.00000  Uiso   1.00
O204   O     0.09181   0.49293   0.31839   0.00000  Uiso   1.00
O205   O     0.19242   0.50241   0.32793   0.00000  Uiso   1.00
O206   O     0.10476   0.41911   0.24413   0.00000  Uiso   1.00
O207   O     0.20536   0.42859   0.25367   0.00000  Uiso   1.00
O208   O     0.14092   0.49759   0.17207   0.00000  Uiso   1.00
O209   O     0.24152   0.50707   0.18161   0.00000  Uiso   1.00
C210   C     0.32991   0.55668   0.31047   0.00000  Uiso   1.00
C211   C     0.28379   0.58390   0.33930   0.00000  Uiso   1.00
C212   C     0.28792   0.61738   0.38581   0.00000  Uiso   1.00
C213   C     0.00724   0.62967   0.40723   0.00000  Uiso   1.00
C214   C     0.05640   0.61107   0.38037   0.00000  Uiso   1.00
C215   C     0.05162   0.57780   0.33364   0.00000  Uiso   1.00
H216   H     0.24060   0.58243   0.33086   0.00000  Uiso   1.00
H217   H     0.24942   0.63394   0.40538   0.00000  Uiso   1.00
H218   H     0.01055   0.65468   0.44355   0.00000  Uiso   1.00
H219   H     0.09935   0.62301   0.39578   0.00000  Uiso   1.00
H220   H     0.09575   0.57351   0.32221   0.00000  Uiso   1.00
O221   O     0.32522   0.45112   0.19890   0.00000  Uiso   1.00
H222   H     0.02469   0.43324   0.18052   0.00000  Uiso   1.00
O223   O     0.06330   0.42354   0.03847   0.00000  Uiso   1.00
H224   H     0.01924   0.40680   0.04139   0.00000  Uiso   1.00
C225   C     0.51566   0.60005   0.25080   0.00000  Uiso   1.00
C226   C     0.47648   0.47015   0.48008   0.00000  Uiso   1.00
C227   C     0.49624   0.47686   0.42843   0.00000  Uiso   1.00
C228   C     0.52058   0.48761   0.01485   0.00000  Uiso   1.00
C229   C     0.58324   0.50433   0.49622   0.00000  Uiso   1.00
C230   C     0.60170   0.50284   0.44490   0.00000  Uiso   1.00
C231   C     0.55963   0.48584   0.41157   0.00000  Uiso   1.00
C232   C     0.50478   0.49198   0.06762   0.00000  Uiso   1.00
C233   C     0.61119   0.51976   0.08025   0.00000  Uiso   1.00
C234   C     0.45207   0.47287   0.39551   0.00000  Uiso   1.00
C235   C     0.52379   0.65634   0.25159   0.00000  Uiso   1.00
C236   C     0.46804   0.49082   0.34503   0.00000  Uiso   1.00
C237   C     0.47662   0.34356   0.24736   0.00000  Uiso   1.00
C238   C     0.48474   0.39984   0.24806   0.00000  Uiso   1.00
C239   C     0.53211   0.50345   0.15388   0.00000  Uiso   1.00
C240   C     0.62766   0.52076   0.02885   0.00000  Uiso   1.00
C241   C     0.54972   0.50527   0.09982   0.00000  Uiso   1.00
C242   C     0.39145   0.44968   0.41068   0.00000  Uiso   1.00
C243   C     0.37342   0.43414   0.45817   0.00000  Uiso   1.00
C244   C     0.41474   0.44404   0.49348   0.00000  Uiso   1.00
Cu245  Cu    0.44043   0.49439   0.24435   0.00000  Uiso   1.00
Cu246  Cu    0.55957   0.50561   0.25565   0.00000  Uiso   1.00
H247   H     0.64651   0.53107   0.10468   0.00000  Uiso   1.00
H248   H     0.43156   0.65229   0.24337   0.00000  Uiso   1.00
H249   H     0.64931   0.51453   0.43018   0.00000  Uiso   1.00
H250   H     0.34208   0.53324   0.01442   0.00000  Uiso   1.00
H251   H     0.45798   0.48692   0.08475   0.00000  Uiso   1.00
H252   H     0.35775   0.44210   0.38506   0.00000  Uiso   1.00
H253   H     0.65975   0.41435   0.46762   0.00000  Uiso   1.00
H254   H     0.57950   0.47709   0.37293   0.00000  Uiso   1.00
H255   H     0.56883   0.34761   0.25567   0.00000  Uiso   1.00
N256   N     0.64908   0.51407   0.26416   0.00000  Uiso   1.00
N257   N     0.35092   0.48593   0.23584   0.00000  Uiso   1.00
O258   O     0.46131   0.57141   0.24633   0.00000  Uiso   1.00
O259   O     0.56191   0.58089   0.25586   0.00000  Uiso   1.00
O260   O     0.42515   0.49293   0.31839   0.00000  Uiso   1.00
O261   O     0.52575   0.50241   0.32793   0.00000  Uiso   1.00
O262   O     0.43809   0.41911   0.24413   0.00000  Uiso   1.00
O263   O     0.53869   0.42859   0.25367   0.00000  Uiso   1.00
O264   O     0.47425   0.49759   0.17207   0.00000  Uiso   1.00
O265   O     0.57485   0.50707   0.18161   0.00000  Uiso   1.00
C266   C     0.66324   0.55668   0.31047   0.00000  Uiso   1.00
C267   C     0.61712   0.58390   0.33930   0.00000  Uiso   1.00
C268   C     0.62125   0.61738   0.38581   0.00000  Uiso   1.00
C269   C     0.34057   0.62967   0.40723   0.00000  Uiso   1.00
C270   C     0.38973   0.61107   0.38037   0.00000  Uiso   1.00
C271   C     0.38495   0.57780   0.33364   0.00000  Uiso   1.00
H272   H     0.57393   0.58243   0.33086   0.00000  Uiso   1.00
H273   H     0.58275   0.63394   0.40538   0.00000  Uiso   1.00
H274   H     0.34388   0.65468   0.44355   0.00000  Uiso   1.00
H275   H     0.43268   0.62301   0.39578   0.00000  Uiso   1.00
H276   H     0.42908   0.57351   0.32221   0.00000  Uiso   1.00
O277   O     0.65856   0.45112   0.19890   0.00000  Uiso   1.00
H278   H     0.35803   0.43324   0.18052   0.00000  Uiso   1.00
O279   O     0.39663   0.42354   0.03847   0.00000  Uiso   1.00
H280   H     0.35257   0.40680   0.04139   0.00000  Uiso   1.00
C281   C     0.84899   0.60005   0.25080   0.00000  Uiso   1.00
C282   C     0.80981   0.47015   0.48008   0.00000  Uiso   1.00
C283   C     0.82958   0.47686   0.42843   0.00000  Uiso   1.00
C284   C     0.85391   0.48761   0.01485   0.00000  Uiso   1.00
C285   C     0.91657   0.50433   0.49622   0.00000  Uiso   1.00
C286   C     0.93503   0.50284   0.44490   0.00000  Uiso   1.00
C287   C     0.89297   0.48584   0.41157   0.00000  Uiso   1.00
C288   C     0.83812   0.49198   0.06762   0.00000  Uiso   1.00
C289   C     0.94453   0.51976   0.08025   0.00000  Uiso   1.00
C290   C     0.78540   0.47287   0.39551   0.00000  Uiso   1.00
C291   C     0.85713   0.65634   0.25159   0.00000  Uiso   1.00
C292   C     0.80137   0.49082   0.34503   0.00000  Uiso   1.00
C293   C     0.80995   0.34356   0.24736   0.00000  Uiso   1.00
C294   C     0.81808   0.39984   0.24806   0.00000  Uiso   1.00
C295   C     0.86544   0.50345   0.15388   0.00000  Uiso   1.00
C296   C     0.96099   0.52076   0.02885   0.00000  Uiso   1.00
C297   C     0.88305   0.50527   0.09982   0.00000  Uiso   1.00
C298   C     0.72478   0.44968   0.41068   0.00000  Uiso   1.00
C299   C     0.70675   0.43414   0.45817   0.00000  Uiso   1.00
C300   C     0.74808   0.44404   0.49348   0.00000  Uiso   1.00
Cu301  Cu    0.77377   0.49439   0.24435   0.00000  Uiso   1.00
Cu302  Cu    0.89290   0.50561   0.25565   0.00000  Uiso   1.00
H303   H     0.97985   0.53107   0.10468   0.00000  Uiso   1.00
H304   H     0.76490   0.65229   0.24337   0.00000  Uiso   1.00
H305   H     0.98264   0.51453   0.43018   0.00000  Uiso   1.00
H306   H     0.67541   0.53324   0.01442   0.00000  Uiso   1.00
H307   H     0.79131   0.48692   0.08475   0.00000  Uiso   1.00
H308   H     0.69108   0.44210   0.38506   0.00000  Uiso   1.00
H309   H     0.99308   0.41435   0.46762   0.00000  Uiso   1.00
H310   H     0.91283   0.47709   0.37293   0.00000  Uiso   1.00
H311   H     0.90216   0.34761   0.25567   0.00000  Uiso   1.00
N312   N     0.98241   0.51407   0.26416   0.00000  Uiso   1.00
N313   N     0.68426   0.48593   0.23584   0.00000  Uiso   1.00
O314   O     0.79464   0.57141   0.24633   0.00000  Uiso   1.00
O315   O     0.89524   0.58089   0.25586   0.00000  Uiso   1.00
O316   O     0.75848   0.49293   0.31839   0.00000  Uiso   1.00
O317   O     0.85908   0.50241   0.32793   0.00000  Uiso   1.00
O318   O     0.77142   0.41911   0.24413   0.00000  Uiso   1.00
O319   O     0.87203   0.42859   0.25367   0.00000  Uiso   1.00
O320   O     0.80758   0.49759   0.17207   0.00000  Uiso   1.00
O321   O     0.90819   0.50707   0.18161   0.00000  Uiso   1.00
C322   C     0.99658   0.55668   0.31047   0.00000  Uiso   1.00
C323   C     0.95045   0.58390   0.33930   0.00000  Uiso   1.00
C324   C     0.95459   0.61738   0.38581   0.00000  Uiso   1.00
C325   C     0.67391   0.62967   0.40723   0.00000  Uiso   1.00
C326   C     0.72306   0.61107   0.38037   0.00000  Uiso   1.00
C327   C     0.71828   0.57780   0.33364   0.00000  Uiso   1.00
H328   H     0.90727   0.58243   0.33086   0.00000  Uiso   1.00
H329   H     0.91608   0.63394   0.40538   0.00000  Uiso   1.00
H330   H     0.67721   0.65468   0.44355   0.00000  Uiso   1.00
H331   H     0.76602   0.62301   0.39578   0.00000  Uiso   1.00
H332   H     0.76242   0.57351   0.32221   0.00000  Uiso   1.00
O333   O     0.99189   0.45112   0.19890   0.00000  Uiso   1.00
H334   H     0.69136   0.43324   0.18052   0.00000  Uiso   1.00
O335   O     0.72996   0.42354   0.03847   0.00000  Uiso   1.00
H336   H     0.68590   0.40680   0.04139   0.00000  Uiso   1.00
C337   C     0.18233   0.93338   0.25080   0.00000  Uiso   1.00
C338   C     0.14314   0.80348   0.48008   0.00000  Uiso   1.00
C339   C     0.16291   0.81019   0.42843   0.00000  Uiso   1.00
C340   C     0.18725   0.82095   0.01485   0.00000  Uiso   1.00
C341   C     0.24990   0.83766   0.49622   0.00000  Uiso   1.00
C342   C     0.26837   0.83617   0.44490   0.00000  Uiso   1.00
C343   C     0.22630   0.81917   0.41157   0.00000  Uiso   1.00
C344   C     0.17145   0.82531   0.06762   0.00000  Uiso   1.00
C345   C     0.27786   0.85309   0.08025   0.00000  Uiso   1.00
C346   C     0.11874   0.80621   0.39551   0.00000  Uiso   1.00
C347   C     0.19046   0.98967   0.25159   0.00000  Uiso   1.00
C348   C     0.13471   0.82415   0.34503   0.00000  Uiso   1.00
C349   C     0.14328   0.67689   0.24736   0.00000  Uiso   1.00
C350   C     0.15141   0.73318   0.24806   0.00000  Uiso   1.00
C351   C     0.19877   0.83678   0.15388   0.00000  Uiso   1.00
C352   C     0.29432   0.85410   0.02885   0.00000  Uiso   1.00
C353   C     0.21639   0.83861   0.09982   0.00000  Uiso   1.00
C354   C     0.05812   0.78301   0.41068   0.00000  Uiso   1.00
C355   C     0.04009   0.76748   0.45817   0.00000  Uiso   1.00
C356   C     0.08141   0.77737   0.49348   0.00000  Uiso   1.00
Cu357  Cu    0.10710   0.82772   0.24435   0.00000  Uiso   1.00
Cu358  Cu    0.22623   0.83895   0.25565   0.00000  Uiso   1.00
H359   H     0.31318   0.86441   0.10468   0.00000  Uiso   1.00
H360   H     0.09823   0.98562   0.24337   0.00000  Uiso   1.00
H361   H     0.31597   0.84786   0.43018   0.00000  Uiso   1.00
H362   H     0.00874   0.86657   0.01442   0.00000  Uiso   1.00
H363   H     0.12465   0.82026   0.08475   0.00000  Uiso   1.00
H364   H     0.02442   0.77543   0.38506   0.00000  Uiso   1.00
H365   H     0.32642   0.74768   0.46762   0.00000  Uiso   1.00
H366   H     0.24616   0.81042   0.37293   0.00000  Uiso   1.00
H367   H     0.23549   0.68094   0.25567   0.00000  Uiso   1.00
N368   N     0.31574   0.84741   0.26416   0.00000  Uiso   1.00
N369   N     0.01759   0.81926   0.23584   0.00000  Uiso   1.00
O370   O     0.12797   0.90474   0.24633   0.00000  Uiso   1.00
O371   O     0.22858   0.91422   0.25586   0.00000  Uiso   1.00
O372   O     0.09181   0.82627   0.31839   0.00000  Uiso   1.00
O373   O     0.19242   0.83575   0.32793   0.00000  Uiso   1.00
O374   O     0.10476   0.75245   0.24413   0.00000  Uiso   1.00
O375   O     0.20536   0.76193   0.25367   0.00000  Uiso   1.00
O376   O     0.14092   0.83092   0.17207   0.00000  Uiso   1.00
O377   O     0.24152   0.84040   0.18161   0.00000  Uiso   1.00
C378   C     0.32991   0.89001   0.31047   0.00000  Uiso   1.00
C379   C     0.28379   0.91724   0.33930   0.00000  Uiso   1.00
C380   C     0.28792   0.95071   0.38581   0.00000  Uiso   1.00
C381   C     0.00724   0.96301   0.40723   0.00000  Uiso   1.00
C382   C     0.05640   0.94441   0.38037   0.00000  Uiso   1.00
C383   C     0.05162   0.91113   0.33364   0.00000  Uiso   1.00
H384   H     0.24060   0.91576   0.33086   0.00000  Uiso   1.00
H385   H     0.24942   0.96727   0.40538   0.00000  Uiso   1.00
H386   H     0.01055   0.98802   0.44355   0.00000  Uiso   1.00
H387   H     0.09935   0.95634   0.39578   0.00000  Uiso   1.00
H388   H     0.09575   0.90685   0.32221   0.00000  Uiso   1.00
O389   O     0.32522   0.78445   0.19890   0.00000  Uiso   1.00
H390   H     0.02469   0.76657   0.18052   0.00000  Uiso   1.00
O391   O     0.06330   0.75687   0.03847   0.00000  Uiso   1.00
H392   H     0.01924   0.74013   0.04139   0.00000  Uiso   1.00
C393   C     0.51566   0.93338   0.25080   0.00000  Uiso   1.00
C394   C     0.47648   0.80348   0.48008   0.00000  Uiso   1.00
C395   C     0.49624   0.81019   0.42843   0.00000  Uiso   1.00
C396   C     0.52058   0.82095   0.01485   0.00000  Uiso   1.00
C397   C     0.58324   0.83766   0.49622   0.00000  Uiso   1.00
C398   C     0.60170   0.83617   0.44490   0.00000  Uiso   1.00
C399   C     0.55963   0.81917   0.41157   0.00000  Uiso   1.00
C400   C     0.50478   0.82531   0.06762   0.00000  Uiso   1.00
C401   C     0.61119   0.85309   0.08025   0.00000  Uiso   1.00
C402   C     0.45207   0.80621   0.39551   0.00000  Uiso   1.00
C403   C     0.52379   0.98967   0.25159   0.00000  Uiso   1.00
C404   C     0.46804   0.82415   0.34503   0.00000  Uiso   1.00
C405   C     0.47662   0.67689   0.24736   0.00000  Uiso   1.00
C406   C     0.48474   0.73318   0.24806   0.00000  Uiso   1.00
C407   C     0.53211   0.83678   0.15388   0.00000  Uiso   1.00
C408   C     0.62766   0.85410   0.02885   0.00000  Uiso   1.00
C409   C     0.54972   0.83861   0.09982   0.00000  Uiso   1.00
C410   C     0.39145   0.78301   0.41068   0.00000  Uiso   1.00
C411   C     0.37342   0.76748   0.45817   0.00000  Uiso   1.00
C412   C     0.41474   0.77737   0.49348   0.00000  Uiso   1.00
Cu413  Cu    0.44043   0.82772   0.24435   0.00000  Uiso   1.00
Cu414  Cu    0.55957   0.83895   0.25565   0.00000  Uiso   1.00
H415   H     0.64651   0.86441   0.10468   0.00000  Uiso   1.00
H416   H     0.43156   0.98562   0.24337   0.00000  Uiso   1.00
H417   H     0.64931   0.84786   0.43018   0.00000  Uiso   1.00
H418   H     0.34208   0.86657   0.01442   0.00000  Uiso   1.00
H419   H     0.45798   0.82026   0.08475   0.00000  Uiso   1.00
H420   H     0.35775   0.77543   0.38506   0.00000  Uiso   1.00
H421   H     0.65975   0.74768   0.46762   0.00000  Uiso   1.00
H422   H     0.57950   0.81042   0.37293   0.00000  Uiso   1.00
H423   H     0.56883   0.68094   0.25567   0.00000  Uiso   1.00
N424   N     0.64908   0.84741   0.26416   0.00000  Uiso   1.00
N425   N     0.35092   0.81926   0.23584   0.00000  Uiso   1.00
O426   O     0.46131   0.90474   0.24633   0.00000  Uiso   1.00
O427   O     0.56191   0.91422   0.25586   0.00000  Uiso   1.00
O428   O     0.42515   0.82627   0.31839   0.00000  Uiso   1.00
O429   O     0.52575   0.83575   0.32793   0.00000  Uiso   1.00
O430   O     0.43809   0.75245   0.24413   0.00000  Uiso   1.00
O431   O     0.53869   0.76193   0.25367   0.00000  Uiso   1.00
O432   O     0.47425   0.83092   0.17207   0.00000  Uiso   1.00
O433   O     0.57485   0.84040   0.18161   0.00000  Uiso   1.00
C434   C     0.66324   0.89001   0.31047   0.00000  Uiso   1.00
C435   C     0.61712   0.91724   0.33930   0.00000  Uiso   1.00
C436   C     0.62125   0.95071   0.38581   0.00000  Uiso   1.00
C437   C     0.34057   0.96301   0.40723   0.00000  Uiso   1.00
C438   C     0.38973   0.94441   0.38037   0.00000  Uiso   1.00
C439   C     0.38495   0.91113   0.33364   0.00000  Uiso   1.00
H440   H     0.57393   0.91576   0.33086   0.00000  Uiso   1.00
H441   H     0.58275   0.96727   0.40538   0.00000  Uiso   1.00
H442   H     0.34388   0.98802   0.44355   0.00000  Uiso   1.00
H443   H     0.43268   0.95634   0.39578   0.00000  Uiso   1.00
H444   H     0.42908   0.90685   0.32221   0.00000  Uiso   1.00
O445   O     0.65856   0.78445   0.19890   0.00000  Uiso   1.00
H446   H     0.35803   0.76657   0.18052   0.00000  Uiso   1.00
O447   O     0.39663   0.75687   0.03847   0.00000  Uiso   1.00
H448   H     0.35257   0.74013   0.04139   0.00000  Uiso   1.00
C449   C     0.84899   0.93338   0.25080   0.00000  Uiso   1.00
C450   C     0.80981   0.80348   0.48008   0.00000  Uiso   1.00
C451   C     0.82958   0.81019   0.42843   0.00000  Uiso   1.00
C452   C     0.85391   0.82095   0.01485   0.00000  Uiso   1.00
C453   C     0.91657   0.83766   0.49622   0.00000  Uiso   1.00
C454   C     0.93503   0.83617   0.44490   0.00000  Uiso   1.00
C455   C     0.89297   0.81917   0.41157   0.00000  Uiso   1.00
C456   C     0.83812   0.82531   0.06762   0.00000  Uiso   1.00
C457   C     0.94453   0.85309   0.08025   0.00000  Uiso   1.00
C458   C     0.78540   0.80621   0.39551   0.00000  Uiso   1.00
C459   C     0.85713   0.98967   0.25159   0.00000  Uiso   1.00
C460   C     0.80137   0.82415   0.34503   0.00000  Uiso   1.00
C461   C     0.80995   0.67689   0.24736   0.00000  Uiso   1.00
C462   C     0.81808   0.73318   0.24806   0.00000  Uiso   1.00
C463   C     0.86544   0.83678   0.15388   0.00000  Uiso   1.00
C464   C     0.96099   0.85410   0.02885   0.00000  Uiso   1.00
C465   C     0.88305   0.83861   0.09982   0.00000  Uiso   1.00
C466   C     0.72478   0.78301   0.41068   0.00000  Uiso   1.00
C467   C     0.70675   0.76748   0.45817   0.00000  Uiso   1.00
C468   C     0.74808   0.77737   0.49348   0.00000  Uiso   1.00
Cu469  Cu    0.77377   0.82772   0.24435   0.00000  Uiso   1.00
Cu470  Cu    0.89290   0.83895   0.25565   0.00000  Uiso   1.00
H471   H     0.97985   0.86441   0.10468   0.00000  Uiso   1.00
H472   H     0.76490   0.98562   0.24337   0.00000  Uiso   1.00
H473   H     0.98264   0.84786   0.43018   0.00000  Uiso   1.00
H474   H     0.67541   0.86657   0.01442   0.00000  Uiso   1.00
H475   H     0.79131   0.82026   0.08475   0.00000  Uiso   1.00
H476   H     0.69108   0.77543   0.38506   0.00000  Uiso   1.00
H477   H     0.99308   0.74768   0.46762   0.00000  Uiso   1.00
H478   H     0.91283   0.81042   0.37293   0.00000  Uiso   1.00
H479   H     0.90216   0.68094   0.25567   0.00000  Uiso   1.00
N480   N     0.98241   0.84741   0.26416   0.00000  Uiso   1.00
N481   N     0.68426   0.81926   0.23584   0.00000  Uiso   1.00
O482   O     0.79464   0.90474   0.24633   0.00000  Uiso   1.00
O483   O     0.89524   0.91422   0.25586   0.00000  Uiso   1.00
O484   O     0.75848   0.82627   0.31839   0.00000  Uiso   1.00
O485   O     0.85908   0.83575   0.32793   0.00000  Uiso   1.00
O486   O     0.77142   0.75245   0.24413   0.00000  Uiso   1.00
O487   O     0.87203   0.76193   0.25367   0.00000  Uiso   1.00
O488   O     0.80758   0.83092   0.17207   0.00000  Uiso   1.00
O489   O     0.90819   0.84040   0.18161   0.00000  Uiso   1.00
C490   C     0.99658   0.89001   0.31047   0.00000  Uiso   1.00
C491   C     0.95045   0.91724   0.33930   0.00000  Uiso   1.00
C492   C     0.95459   0.95071   0.38581   0.00000  Uiso   1.00
C493   C     0.67391   0.96301   0.40723   0.00000  Uiso   1.00
C494   C     0.72306   0.94441   0.38037   0.00000  Uiso   1.00
C495   C     0.71828   0.91113   0.33364   0.00000  Uiso   1.00
H496   H     0.90727   0.91576   0.33086   0.00000  Uiso   1.00
H497   H     0.91608   0.96727   0.40538   0.00000  Uiso   1.00
H498   H     0.67721   0.98802   0.44355   0.00000  Uiso   1.00
H499   H     0.76602   0.95634   0.39578   0.00000  Uiso   1.00
H500   H     0.76242   0.90685   0.32221   0.00000  Uiso   1.00
O501   O     0.99189   0.78445   0.19890   0.00000  Uiso   1.00
H502   H     0.69136   0.76657   0.18052   0.00000  Uiso   1.00
O503   O     0.72996   0.75687   0.03847   0.00000  Uiso   1.00
H504   H     0.68590   0.74013   0.04139   0.00000  Uiso   1.00
C505   C     0.18233   0.26672   0.75080   0.00000  Uiso   1.00
C506   C     0.14314   0.13682   0.98008   0.00000  Uiso   1.00
C507   C     0.16291   0.14352   0.92843   0.00000  Uiso   1.00
C508   C     0.18725   0.15428   0.51485   0.00000  Uiso   1.00
C509   C     0.24990   0.17100   0.99622   0.00000  Uiso   1.00
C510   C     0.26837   0.16951   0.94490   0.00000  Uiso   1.00
C511   C     0.22630   0.15251   0.91157   0.00000  Uiso   1.00
C512   C     0.17145   0.15864   0.56762   0.00000  Uiso   1.00
C513   C     0.27786   0.18643   0.58025   0.00000  Uiso   1.00
C514   C     0.11874   0.13954   0.89551   0.00000  Uiso   1.00
C515   C     0.19046   0.32300   0.75159   0.00000  Uiso   1.00
C516   C     0.13471   0.15748   0.84503   0.00000  Uiso   1.00
C517   C     0.14328   0.01023   0.74736   0.00000  Uiso   1.00
C518   C     0.15141   0.06651   0.74806   0.00000  Uiso   1.00
C519   C     0.19877   0.17011   0.65388   0.00000  Uiso   1.00
C520   C     0.29432   0.18743   0.52885   0.00000  Uiso   1.00
C521   C     0.21639   0.17194   0.59982   0.00000  Uiso   1.00
C522   C     0.05812   0.11635   0.91068   0.00000  Uiso   1.00
C523   C     0.04009   0.10081   0.95817   0.00000  Uiso   1.00
C524   C     0.08141   0.11071   0.99348   0.00000  Uiso   1.00
Cu525  Cu    0.10710   0.16105   0.74435   0.00000  Uiso   1.00
Cu526  Cu    0.22623   0.17228   0.75565   0.00000  Uiso   1.00
H527   H     0.31318   0.19774   0.60468   0.00000  Uiso   1.00
H528   H     0.09823   0.31895   0.74337   0.00000  Uiso   1.00
H529   H     0.31597   0.18120   0.93018   0.00000  Uiso   1.00
H530   H     0.00874   0.19990   0.51442   0.00000  Uiso   1.00
H531   H     0.12465   0.15359   0.58475   0.00000  Uiso   1.00
H532   H     0.02442   0.10877   0.88506   0.00000  Uiso   1.00
H533   H     0.32642   0.08101   0.96762   0.00000  Uiso   1.00
H534   H     0.24616   0.14375   0.87293   0.00000  Uiso   1.00
H535   H     0.23549   0.01427   0.75567   0.00000  Uiso   1.00
N536   N     0.31574   0.18074   0.76416   0.00000  Uiso   1.00
N537   N     0.01759   0.15259   0.73584   0.00000  Uiso   1.00
O538   O     0.12797   0.23807   0.74633   0.00000  Uiso   1.00
O539   O     0.22858   0.24755   0.75586   0.00000  Uiso   1.00
O540   O     0.09181   0.15960   0.81839   0.00000  Uiso   1.00
O541   O     0.19242   0.16908   0.82793   0.00000  Uiso   1.00
O542   O     0.10476   0.08578   0.74413   0.00000  Uiso   1.00
O543   O     0.20536   0.09526   0.75367   0.00000  Uiso   1.00
O544   O     0.14092   0.16425   0.67207   0.00000  Uiso   1.00
O545   O     0.24152   0.17373   0.68161   0.00000  Uiso   1.00
C546   C     0.32991   0.22335   0.81047   0.00000  Uiso   1.00
C547   C     0.28379   0.25057   0.83930   0.00000  Uiso   1.00
C548   C     0.28792   0.28404   0.88581   0.00000  Uiso   1.00
C549   C     0.00724   0.29634   0.90723   0.00000  Uiso   1.00
C550   C     0.05640   0.27774   0.88037   0.00000  Uiso   1.00
C551   C     0.05162   0.24447   0.83364   0.00000  Uiso   1.00
H552   H     0.24060   0.24910   0.83086   0.00000  Uiso   1.00
H553   H     0.24942   0.30061   0.90538   0.00000  Uiso   1.00
H554   H     0.01055   0.32135   0.94355   0.00000  Uiso   1.00
H555   H     0.09935   0.28967   0.89578   0.00000  Uiso   1.00
H556   H     0.09575   0.24018   0.82221   0.00000  Uiso   1.00
O557   O     0.32522   0.11779   0.69890   0.00000  Uiso   1.00
H558   H     0.02469   0.09991   0.68052   0.00000  Uiso   1.00
O559   O     0.06330   0.09021   0.53847   0.00000  Uiso   1.00
H560   H     0.01924   0.07347   0.54139   0.00000  Uiso   1.00
C561   C     0.51566   0.26672   0.75080   0.00000  Uiso   1.00
C562   C     0.47648   0.13682   0.98008   0.00000  Uiso   1.00
C563   C     0.49624   0.14352   0.92843   0.00000  Uiso   1.00
C564   C     0.52058   0.15428   0.51485   0.00000  Uiso   1.00
C565   C     0.58324   0.17100   0.99622   0.00000  Uiso   1.00
C566   C     0.60170   0.16951   0.94490   0.00000  Uiso   1.00
C567   C     0.55963   0.15251   0.91157   0.00000  Uiso   1.00
C568   C     0.50478   0.15864   0.56762   0.00000  Uiso   1.00
C569   C     0.61119   0.18643   0.58025   0.00000  Uiso   1.00
C570   C     0.45207   0.13954   0.89551   0.00000  Uiso   1.00
C571   C     0.52379   0.32300   0.75159   0.00000  Uiso   1.00
C572   C     0.46804   0.15748   0.84503   0.00000  Uiso   1.00
C573   C     0.47662   0.01023   0.74736   0.00000  Uiso   1.00
C574   C     0.48474   0.06651   0.74806   0.00000  Uiso   1.00
C575   C     0.53211   0.17011   0.65388   0.00000  Uiso   1.00
C576   C     0.62766   0.18743   0.52885   0.00000  Uiso   1.00
C577   C     0.54972   0.17194   0.59982   0.00000  Uiso   1.00
C578   C     0.39145   0.11635   0.91068   0.00000  Uiso   1.00
C579   C     0.37342   0.10081   0.95817   0.00000  Uiso   1.00
C580   C     0.41474   0.11071   0.99348   0.00000  Uiso   1.00
Cu581  Cu    0.44043   0.16105   0.74435   0.00000  Uiso   1.00
Cu582  Cu    0.55957   0.17228   0.75565   0.00000  Uiso   1.00
H583   H     0.64651   0.19774   0.60468   0.00000  Uiso   1.00
H584   H     0.43156   0.31895   0.74337   0.00000  Uiso   1.00
H585   H     0.64931   0.18120   0.93018   0.00000  Uiso   1.00
H586   H     0.34208   0.19990   0.51442   0.00000  Uiso   1.00
H587   H     0.45798   0.15359   0.58475   0.00000  Uiso   1.00
H588   H     0.35775   0.10877   0.88506   0.00000  Uiso   1.00
H589   H     0.65975   0.08101   0.96762   0.00000  Uiso   1.00
H590   H     0.57950   0.14375   0.87293   0.00000  Uiso   1.00
H591   H     0.56883   0.01427   0.75567   0.00000  Uiso   1.00
N592   N     0.64908   0.18074   0.76416   0.00000  Uiso   1.00
N593   N     0.35092   0.15259   0.73584   0.00000  Uiso   1.00
O594   O     0.46131   0.23807   0.74633   0.00000  Uiso   1.00
O595   O     0.56191   0.24755   0.75586   0.00000  Uiso   1.00
O596   O     0.42515   0.15960   0.81839   0.00000  Uiso   1.00
O597   O     0.52575   0.16908   0.82793   0.00000  Uiso   1.00
O598   O     0.43809   0.08578   0.74413   0.00000  Uiso   1.00
O599   O     0.53869   0.09526   0.75367   0.00000  Uiso   1.00
O600   O     0.47425   0.16425   0.67207   0.00000  Uiso   1.00
O601   O     0.57485   0.17373   0.68161   0.00000  Uiso   1.00
C602   C     0.66324   0.22335   0.81047   0.00000  Uiso   1.00
C603   C     0.61712   0.25057   0.83930   0.00000  Uiso   1.00
C604   C     0.62125   0.28404   0.88581   0.00000  Uiso   1.00
C605   C     0.34057   0.29634   0.90723   0.00000  Uiso   1.00
C606   C     0.38973   0.27774   0.88037   0.00000  Uiso   1.00
C607   C     0.38495   0.24447   0.83364   0.00000  Uiso   1.00
H608   H     0.57393   0.24910   0.83086   0.00000  Uiso   1.00
H609   H     0.58275   0.30061   0.90538   0.00000  Uiso   1.00
H610   H     0.34388   0.32135   0.94355   0.00000  Uiso   1.00
H611   H     0.43268   0.28967   0.89578   0.00000  Uiso   1.00
H612   H     0.42908   0.24018   0.82221   0.00000  Uiso   1.00
O613   O     0.65856   0.11779   0.69890   0.00000  Uiso   1.00
H614   H     0.35803   0.09991   0.68052   0.00000  Uiso   1.00
O615   O     0.39663   0.09021   0.53847   0.00000  Uiso   1.00
H616   H     0.35257   0.07347   0.54139   0.00000  Uiso   1.00
C617   C     0.84899   0.26672   0.75080   0.00000  Uiso   1.00
C618   C     0.80981   0.13682   0.98008   0.00000  Uiso   1.00
C619   C     0.82958   0.14352   0.92843   0.00000  Uiso   1.00
C620   C     0.85391   0.15428   0.51485   0.00000  Uiso   1.00
C621   C     0.91657   0.17100   0.99622   0.00000  Uiso   1.00
C622   C     0.93503   0.16951   0.94490   0.00000  Uiso   1.00
C623   C     0.89297   0.15251   0.91157   0.00000  Uiso   1.00
C624   C     0.83812   0.15864   0.56762   0.00000  Uiso   1.00
C625   C     0.94453   0.18643   0.58025   0.00000  Uiso   1.00
C626   C     0.78540   0.13954   0.89551   0.00000  Uiso   1.00
C627   C     0.85713   0.32300   0.75159   0.00000  Uiso   1.00
C628   C     0.80137   0.15748   0.84503   0.00000  Uiso   1.00
C629   C     0.80995   0.01023   0.74736   0.00000  Uiso   1.00
C630   C     0.81808   0.06651   0.74806   0.00000  Uiso   1.00
C631   C     0.86544   0.17011   0.65388   0.00000  Uiso   1.00
C632   C     0.96099   0.18743   0.52885   0.00000  Uiso   1.00
C633   C     0.88305   0.17194   0.59982   0.00000  Uiso   1.00
C634   C     0.72478   0.11635   0.91068   0.00000  Uiso   1.00
C635   C     0.70675   0.10081   0.95817   0.00000  Uiso   1.00
C636   C     0.74808   0.11071   0.99348   0.00000  Uiso   1.00
Cu637  Cu    0.77377   0.16105   0.74435   0.00000  Uiso   1.00
Cu638  Cu    0.89290   0.17228   0.75565   0.00000  Uiso   1.00
H639   H     0.97985   0.19774   0.60468   0.00000  Uiso   1.00
H640   H     0.76490   0.31895   0.74337   0.00000  Uiso   1.00
H641   H     0.98264   0.18120   0.93018   0.00000  Uiso   1.00
H642   H     0.67541   0.19990   0.51442   0.00000  Uiso   1.00
H643   H     0.79131   0.15359   0.58475   0.00000  Uiso   1.00
H644   H     0.69108   0.10877   0.88506   0.00000  Uiso   1.00
H645   H     0.99308   0.08101   0.96762   0.00000  Uiso   1.00
H646   H     0.91283   0.14375   0.87293   0.00000  Uiso   1.00
H647   H     0.90216   0.01427   0.75567   0.00000  Uiso   1.00
N648   N     0.98241   0.18074   0.76416   0.00000  Uiso   1.00
N649   N     0.68426   0.15259   0.73584   0.00000  Uiso   1.00
O650   O     0.79464   0.23807   0.74633   0.00000  Uiso   1.00
O651   O     0.89524   0.24755   0.75586   0.00000  Uiso   1.00
O652   O     0.75848   0.15960   0.81839   0.00000  Uiso   1.00
O653   O     0.85908   0.16908   0.82793   0.00000  Uiso   1.00
O654   O     0.77142   0.08578   0.74413   0.00000  Uiso   1.00
O655   O     0.87203   0.09526   0.75367   0.00000  Uiso   1.00
O656   O     0.80758   0.16425   0.67207   0.00000  Uiso   1.00
O657   O     0.90819   0.17373   0.68161   0.00000  Uiso   1.00
C658   C     0.99658   0.22335   0.81047   0.00000  Uiso   1.00
C659   C     0.95045   0.25057   0.83930   0.00000  Uiso   1.00
C660   C     0.95459   0.28404   0.88581   0.00000  Uiso   1.00
C661   C     0.67391   0.29634   0.90723   0.00000  Uiso   1.00
C662   C     0.72306   0.27774   0.88037   0.00000  Uiso   1.00
C663   C     0.71828   0.24447   0.83364   0.00000  Uiso   1.00
H664   H     0.90727   0.24910   0.83086   0.00000  Uiso   1.00
H665   H     0.91608   0.30061   0.90538   0.00000  Uiso   1.00
H666   H     0.67721   0.32135   0.94355   0.00000  Uiso   1.00
H667   H     0.76602   0.28967   0.89578   0.00000  Uiso   1.00
H668   H     0.76242   0.24018   0.82221   0.00000  Uiso   1.00
O669   O     0.99189   0.11779   0.69890   0.00000  Uiso   1.00
H670   H     0.69136   0.09991   0.68052   0.00000  Uiso   1.00
O671   O     0.72996   0.09021   0.53847   0.00000  Uiso   1.00
H672   H     0.68590   0.07347   0.54139   0.00000  Uiso   1.00
C673   C     0.18233   0.60005   0.75080   0.00000  Uiso   1.00
C674   C     0.14314   0.47015   0.98008   0.00000  Uiso   1.00
C675   C     0.16291   0.47686   0.92843   0.00000  Uiso   1.00
C676   C     0.18725   0.48761   0.51485   0.00000  Uiso   1.00
C677   C     0.24990   0.50433   0.99622   0.00000  Uiso   1.00
C678   C     0.26837   0.50284   0.94490   0.00000  Uiso   1.00
C679   C     0.22630   0.48584   0.91157   0.00000  Uiso   1.00
C680   C     0.17145   0.49198   0.56762   0.00000  Uiso   1.00
C681   C     0.27786   0.51976   0.58025   0.00000  Uiso   1.00
C682   C     0.11874   0.47287   0.89551   0.00000  Uiso   1.00
C683   C     0.19046   0.65634   0.75159   0.00000  Uiso   1.00
C684   C     0.13471   0.49082   0.84503   0.00000  Uiso   1.00
C685   C     0.14328   0.34356   0.74736   0.00000  Uiso   1.00
C686   C     0.15141   0.39984   0.74806   0.00000  Uiso   1.00
C687   C     0.19877   0.50345   0.65388   0.00000  Uiso   1.00
C688   C     0.29432   0.52076   0.52885   0.00000  Uiso   1.00
C689   C     0.21639   0.50527   0.59982   0.00000  Uiso   1.00
C690   C     0.05812   0.44968   0.91068   0.00000  Uiso   1.00
C691   C     0.04009   0.43414   0.95817   0.00000  Uiso   1.00
C692   C     0.08141   0.44404   0.99348   0.00000  Uiso   1.00
Cu693  Cu    0.10710   0.49439   0.74435   0.00000  Uiso   1.00
Cu694  Cu    0.22623   0.50561   0.75565   0.00000  Uiso   1.00
H695   H     0.31318   0.53107   0.60468   0.00000  Uiso   1.00
H696   H     0.09823   0.65229   0.74337   0.00000  Uiso   1.00
H697   H     0.31597   0.51453   0.93018   0.00000  Uiso   1.00
H698   H     0.00874   0.53324   0.51442   0.00000  Uiso   1.00
H699   H     0.12465   0.48692   0.58475   0.00000  Uiso   1.00
H700   H     0.02442   0.44210   0.88506   0.00000  Uiso   1.00
H701   H     0.32642   0.41435   0.96762   0.00000  Uiso   1.00
H702   H     0.24616   0.47709   0.87293   0.00000  Uiso   1.00
H703   H     0.23549   0.34761   0.75567   0.00000  Uiso   1.00
N704   N     0.31574   0.51407   0.76416   0.00000  Uiso   1.00
N705   N     0.01759   0.48593   0.73584   0.00000  Uiso   1.00
O706   O     0.12797   0.57141   0.74633   0.00000  Uiso   1.00
O707   O     0.22858   0.58089   0.75586   0.00000  Uiso   1.00
O708   O     0.09181   0.49293   0.81839   0.00000  Uiso   1.00
O709   O     0.19242   0.50241   0.82793   0.00000  Uiso   1.00
O710   O     0.10476   0.41911   0.74413   0.00000  Uiso   1.00
O711   O     0.20536   0.42859   0.75367   0.00000  Uiso   1.00
O712   O     0.14092   0.49759   0.67207   0.00000  Uiso   1.00
O713   O     0.24152   0.50707   0.68161   0.00000  Uiso   1.00
C714   C     0.32991   0.55668   0.81047   0.00000  Uiso   1.00
C715   C     0.28379   0.58390   0.83930   0.00000  Uiso   1.00
C716   C     0.28792   0.61738   0.88581   0.00000  Uiso   1.00
C717   C     0.00724   0.62967   0.90723   0.00000  Uiso   1.00
C718   C     0.05640   0.61107   0.88037   0.00000  Uiso   1.00
C719   C     0.05162   0.57780   0.83364   0.00000  Uiso   1.00
H720   H     0.24060   0.58243   0.83086   0.00000  Uiso   1.00
H721   H     0.24942   0.63394   0.90538   0.00000  Uiso   1.00
H722   H     0.01055   0.65468   0.94355   0.00000  Uiso   1.00
H723   H     0.09935   0.62301   0.89578   0.00000  Uiso   1.00
H724   H     0.09575   0.57351   0.82221   0.00000  Uiso   1.00
O725   O     0.32522   0.45112   0.69890   0.00000  Uiso   1.00
H726   H     0.02469   0.43324   0.68052   0.00000  Uiso   1.00
O727   O     0.06330   0.42354   0.53847   0.00000  Uiso   1.00
H728   H     0.01924   0.40680   0.54139   0.00000  Uiso   1.00
C729   C     0.51566   0.60005   0.75080   0.00000  Uiso   1.00
C730   C     0.47648   0.47015   0.98008   0.00000  Uiso   1.00
C731   C     0.49624   0.47686   0.92843   0.00000  Uiso   1.00
C732   C     0.52058   0.48761   0.51485   0.00000  Uiso   1.00
C733   C     0.58324   0.50433   0.99622   0.00000  Uiso   1.00
C734   C     0.60170   0.50284   0.94490   0.00000  Uiso   1.00
C735   C     0.55963   0.48584   0.91157   0.00000  Uiso   1.00
C736   C     0.50478   0.49198   0.56762   0.00000  Uiso   1.00
C737   C     0.61119   0.51976   0.58025   0.00000  Uiso   1.00
C738   C     0.45207   0.47287   0.89551   0.00000  Uiso   1.00
C739   C     0.52379   0.65634   0.75159   0.00000  Uiso   1.00
C740   C     0.46804   0.49082   0.84503   0.00000  Uiso   1.00
C741   C     0.47662   0.34356   0.74736   0.00000  Uiso   1.00
C742   C     0.48474   0.39984   0.74806   0.00000  Uiso   1.00
C743   C     0.53211   0.50345   0.65388   0.00000  Uiso   1.00
C744   C     0.62766   0.52076   0.52885   0.00000  Uiso   1.00
C745   C     0.54972   0.50527   0.59982   0.00000  Uiso   1.00
C746   C     0.39145   0.44968   0.91068   0.00000  Uiso   1.00
C747   C     0.37342   0.43414   0.95817   0.00000  Uiso   1.00
C748   C     0.41474   0.44404   0.99348   0.00000  Uiso   1.00
Cu749  Cu    0.44043   0.49439   0.74435   0.00000  Uiso   1.00
Cu750  Cu    0.55957   0.50561   0.75565   0.00000  Uiso   1.00
H751   H     0.64651   0.53107   0.60468   0.00000  Uiso   1.00
H752   H     0.43156   0.65229   0.74337   0.00000  Uiso   1.00
H753   H     0.64931   0.51453   0.93018   0.00000  Uiso   1.00
H754   H     0.34208   0.53324   0.51442   0.00000  Uiso   1.00
H755   H     0.45798   0.48692   0.58475   0.00000  Uiso   1.00
H756   H     0.35775   0.44210   0.88506   0.00000  Uiso   1.00
H757   H     0.65975   0.41435   0.96762   0.00000  Uiso   1.00
H758   H     0.57950   0.47709   0.87293   0.00000  Uiso   1.00
H759   H     0.56883   0.34761   0.75567   0.00000  Uiso   1.00
N760   N     0.64908   0.51407   0.76416   0.00000  Uiso   1.00
N761   N     0.35092   0.48593   0.73584   0.00000  Uiso   1.00
O762   O     0.46131   0.57141   0.74633   0.00000  Uiso   1.00
O763   O     0.56191   0.58089   0.75586   0.00000  Uiso   1.00
O764   O     0.42515   0.49293   0.81839   0.00000  Uiso   1.00
O765   O     0.52575   0.50241   0.82793   0.00000  Uiso   1.00
O766   O     0.43809   0.41911   0.74413   0.00000  Uiso   1.00
O767   O     0.53869   0.42859   0.75367   0.00000  Uiso   1.00
O768   O     0.47425   0.49759   0.67207   0.00000  Uiso   1.00
O769   O     0.57485   0.50707   0.68161   0.00000  Uiso   1.00
C770   C     0.66324   0.55668   0.81047   0.00000  Uiso   1.00
C771   C     0.61712   0.58390   0.83930   0.00000  Uiso   1.00
C772   C     0.62125   0.61738   0.88581   0.00000  Uiso   1.00
C773   C     0.34057   0.62967   0.90723   0.00000  Uiso   1.00
C774   C     0.38973   0.61107   0.88037   0.00000  Uiso   1.00
C775   C     0.38495   0.57780   0.83364   0.00000  Uiso   1.00
H776   H     0.57393   0.58243   0.83086   0.00000  Uiso   1.00
H777   H     0.58275   0.63394   0.90538   0.00000  Uiso   1.00
H778   H     0.34388   0.65468   0.94355   0.00000  Uiso   1.00
H779   H     0.43268   0.62301   0.89578   0.00000  Uiso   1.00
H780   H     0.42908   0.57351   0.82221   0.00000  Uiso   1.00
O781   O     0.65856   0.45112   0.69890   0.00000  Uiso   1.00
H782   H     0.35803   0.43324   0.68052   0.00000  Uiso   1.00
O783   O     0.39663   0.42354   0.53847   0.00000  Uiso   1.00
H784   H     0.35257   0.40680   0.54139   0.00000  Uiso   1.00
C785   C     0.84899   0.60005   0.75080   0.00000  Uiso   1.00
C786   C     0.80981   0.47015   0.98008   0.00000  Uiso   1.00
C787   C     0.82958   0.47686   0.92843   0.00000  Uiso   1.00
C788   C     0.85391   0.48761   0.51485   0.00000  Uiso   1.00
C789   C     0.91657   0.50433   0.99622   0.00000  Uiso   1.00
C790   C     0.93503   0.50284   0.94490   0.00000  Uiso   1.00
C791   C     0.89297   0.48584   0.91157   0.00000  Uiso   1.00
C792   C     0.83812   0.49198   0.56762   0.00000  Uiso   1.00
C793   C     0.94453   0.51976   0.58025   0.00000  Uiso   1.00
C794   C     0.78540   0.47287   0.89551   0.00000  Uiso   1.00
C795   C     0.85713   0.65634   0.75159   0.00000  Uiso   1.00
C796   C     0.80137   0.49082   0.84503   0.00000  Uiso   1.00
C797   C     0.80995   0.34356   0.74736   0.00000  Uiso   1.00
C798   C     0.81808   0.39984   0.74806   0.00000  Uiso   1.00
C799   C     0.86544   0.50345   0.65388   0.00000  Uiso   1.00
C800   C     0.96099   0.52076   0.52885   0.00000  Uiso   1.00
C801   C     0.88305   0.50527   0.59982   0.00000  Uiso   1.00
C802   C     0.72478   0.44968   0.91068   0.00000  Uiso   1.00
C803   C     0.70675   0.43414   0.95817   0.00000  Uiso   1.00
C804   C     0.74808   0.44404   0.99348   0.00000  Uiso   1.00
Cu805  Cu    0.77377   0.49439   0.74435   0.00000  Uiso   1.00
Cu806  Cu    0.89290   0.50561   0.75565   0.00000  Uiso   1.00
H807   H     0.97985   0.53107   0.60468   0.00000  Uiso   1.00
H808   H     0.76490   0.65229   0.74337   0.00000  Uiso   1.00
H809   H     0.98264   0.51453   0.93018   0.00000  Uiso   1.00
H810   H     0.67541   0.53324   0.51442   0.00000  Uiso   1.00
H811   H     0.79131   0.48692   0.58475   0.00000  Uiso   1.00
H812   H     0.69108   0.44210   0.88506   0.00000  Uiso   1.00
H813   H     0.99308   0.41435   0.96762   0.00000  Uiso   1.00
H814   H     0.91283   0.47709   0.87293   0.00000  Uiso   1.00
H815   H     0.90216   0.34761   0.75567   0.00000  Uiso   1.00
N816   N     0.98241   0.51407   0.76416   0.00000  Uiso   1.00
N817   N     0.68426   0.48593   0.73584   0.00000  Uiso   1.00
O818   O     0.79464   0.57141   0.74633   0.00000  Uiso   1.00
O819   O     0.89524   0.58089   0.75586   0.00000  Uiso   1.00
O820   O     0.75848   0.49293   0.81839   0.00000  Uiso   1.00
O821   O     0.85908   0.50241   0.82793   0.00000  Uiso   1.00
O822   O     0.77142   0.41911   0.74413   0.00000  Uiso   1.00
O823   O     0.87203   0.42859   0.75367   0.00000  Uiso   1.00
O824   O     0.80758   0.49759   0.67207   0.00000  Uiso   1.00
O825   O     0.90819   0.50707   0.68161   0.00000  Uiso   1.00
C826   C     0.99658   0.55668   0.81047   0.00000  Uiso   1.00
C827   C     0.95045   0.58390   0.83930   0.00000  Uiso   1.00
C828   C     0.95459   0.61738   0.88581   0.00000  Uiso   1.00
C829   C     0.67391   0.62967   0.90723   0.00000  Uiso   1.00
C830   C     0.72306   0.61107   0.88037   0.00000  Uiso   1.00
C831   C     0.71828   0.57780   0.83364   0.00000  Uiso   1.00
H832   H     0.90727   0.58243   0.83086   0.00000  Uiso   1.00
H833   H     0.91608   0.63394   0.90538   0.00000  Uiso   1.00
H834   H     0.67721   0.65468   0.94355   0.00000  Uiso   1.00
H835   H     0.76602   0.62301   0.89578   0.00000  Uiso   1.00
H836   H     0.76242   0.57351   0.82221   0.00000  Uiso   1.00
O837   O     0.99189   0.45112   0.69890   0.00000  Uiso   1.00
H838   H     0.69136   0.43324   0.68052   0.00000  Uiso   1.00
O839   O     0.72996   0.42354   0.53847   0.00000  Uiso   1.00
H840   H     0.68590   0.40680   0.54139   0.00000  Uiso   1.00
C841   C     0.18233   0.93338   0.75080   0.00000  Uiso   1.00
C842   C     0.14314   0.80348   0.98008   0.00000  Uiso   1.00
C843   C     0.16291   0.81019   0.92843   0.00000  Uiso   1.00
C844   C     0.18725   0.82095   0.51485   0.00000  Uiso   1.00
C845   C     0.24990   0.83766   0.99622   0.00000  Uiso   1.00
C846   C     0.26837   0.83617   0.94490   0.00000  Uiso   1.00
C847   C     0.22630   0.81917   0.91157   0.00000  Uiso   1.00
C848   C     0.17145   0.82531   0.56762   0.00000  Uiso   1.00
C849   C     0.27786   0.85309   0.58025   0.00000  Uiso   1.00
C850   C     0.11874   0.80621   0.89551   0.00000  Uiso   1.00
C851   C     0.19046   0.98967   0.75159   0.00000  Uiso   1.00
C852   C     0.13471   0.82415   0.84503   0.00000  Uiso   1.00
C853   C     0.14328   0.67689   0.74736   0.00000  Uiso   1.00
C854   C     0.15141   0.73318   0.74806   0.00000  Uiso   1.00
C855   C     0.19877   0.83678   0.65388   0.00000  Uiso   1.00
C856   C     0.29432   0.85410   0.52885   0.00000  Uiso   1.00
C857   C     0.21639   0.83861   0.59982   0.00000  Uiso   1.00
C858   C     0.05812   0.78301   0.91068   0.00000  Uiso   1.00
C859   C     0.04009   0.76748   0.95817   0.00000  Uiso   1.00
C860   C     0.08141   0.77737   0.99348   0.00000  Uiso   1.00
Cu861  Cu    0.10710   0.82772   0.74435   0.00000  Uiso   1.00
Cu862  Cu    0.22623   0.83895   0.75565   0.00000  Uiso   1.00
H863   H     0.31318   0.86441   0.60468   0.00000  Uiso   1.00
H864   H     0.09823   0.98562   0.74337   0.00000  Uiso   1.00
H865   H     0.31597   0.84786   0.93018   0.00000  Uiso   1.00
H866   H     0.00874   0.86657   0.51442   0.00000  Uiso   1.00
H867   H     0.12465   0.82026   0.58475   0.00000  Uiso   1.00
H868   H     0.02442   0.77543   0.88506   0.00000  Uiso   1.00
H869   H     0.32642   0.74768   0.96762   0.00000  Uiso   1.00
H870   H     0.24616   0.81042   0.87293   0.00000  Uiso   1.00
H871   H     0.23549   0.68094   0.75567   0.00000  Uiso   1.00
N872   N     0.31574   0.84741   0.76416   0.00000  Uiso   1.00
N873   N     0.01759   0.81926   0.73584   0.00000  Uiso   1.00
O874   O     0.12797   0.90474   0.74633   0.00000  Uiso   1.00
O875   O     0.22858   0.91422   0.75586   0.00000  Uiso   1.00
O876   O     0.09181   0.82627   0.81839   0.00000  Uiso   1.00
O877   O     0.19242   0.83575   0.82793   0.00000  Uiso   1.00
O878   O     0.10476   0.75245   0.74413   0.00000  Uiso   1.00
O879   O     0.20536   0.76193   0.75367   0.00000  Uiso   1.00
O880   O     0.14092   0.83092   0.67207   0.00000  Uiso   1.00
O881   O     0.24152   0.84040   0.68161   0.00000  Uiso   1.00
C882   C     0.32991   0.89001   0.81047   0.00000  Uiso   1.00
C883   C     0.28379   0.91724   0.83930   0.00000  Uiso   1.00
C884   C     0.28792   0.95071   0.88581   0.00000  Uiso   1.00
C885   C     0.00724   0.96301   0.90723   0.00000  Uiso   1.00
C886   C     0.05640   0.94441   0.88037   0.00000  Uiso   1.00
C887   C     0.05162   0.91113   0.83364   0.00000  Uiso   1.00
H888   H     0.24060   0.91576   0.83086   0.00000  Uiso   1.00
H889   H     0.24942   0.96727   0.90538   0.00000  Uiso   1.00
H890   H     0.01055   0.98802   0.94355   0.00000  Uiso   1.00
H891   H     0.09935   0.95634   0.89578   0.00000  Uiso   1.00
H892   H     0.09575   0.90685   0.82221   0.00000  Uiso   1.00
O893   O     0.32522   0.78445   0.69890   0.00000  Uiso   1.00
H894   H     0.02469   0.76657   0.68052   0.00000  Uiso   1.00
O895   O     0.06330   0.75687   0.53847   0.00000  Uiso   1.00
H896   H     0.01924   0.74013   0.54139   0.00000  Uiso   1.00
C897   C     0.51566   0.93338   0.75080   0.00000  Uiso   1.00
C898   C     0.47648   0.80348   0.98008   0.00000  Uiso   1.00
C899   C     0.49624   0.81019   0.92843   0.00000  Uiso   1.00
C900   C     0.52058   0.82095   0.51485   0.00000  Uiso   1.00
C901   C     0.58324   0.83766   0.99622   0.00000  Uiso   1.00
C902   C     0.60170   0.83617   0.94490   0.00000  Uiso   1.00
C903   C     0.55963   0.81917   0.91157   0.00000  Uiso   1.00
C904   C     0.50478   0.82531   0.56762   0.00000  Uiso   1.00
C905   C     0.61119   0.85309   0.58025   0.00000  Uiso   1.00
C906   C     0.45207   0.80621   0.89551   0.00000  Uiso   1.00
C907   C     0.52379   0.98967   0.75159   0.00000  Uiso   1.00
C908   C     0.46804   0.82415   0.84503   0.00000  Uiso   1.00
C909   C     0.47662   0.67689   0.74736   0.00000  Uiso   1.00
C910   C     0.48474   0.73318   0.74806   0.00000  Uiso   1.00
C911   C     0.53211   0.83678   0.65388   0.00000  Uiso   1.00
C912   C     0.62766   0.85410   0.52885   0.00000  Uiso   1.00
C913   C     0.54972   0.83861   0.59982   0.00000  Uiso   1.00
C914   C     0.39145   0.78301   0.91068   0.00000  Uiso   1.00
C915   C     0.37342   0.76748   0.95817   0.00000  Uiso   1.00
C916   C     0.41474   0.77737   0.99348   0.00000  Uiso   1.00
Cu917  Cu    0.44043   0.82772   0.74435   0.00000  Uiso   1.00
Cu918  Cu    0.55957   0.83895   0.75565   0.00000  Uiso   1.00
H919   H     0.64651   0.86441   0.60468   0.00000  Uiso   1.00
H920   H     0.43156   0.98562   0.74337   0.00000  Uiso   1.00
H921   H     0.64931   0.84786   0.93018   0.00000  Uiso   1.00
H922   H     0.34208   0.86657   0.51442   0.00000  Uiso   1.00
H923   H     0.45798   0.82026   0.58475   0.00000  Uiso   1.00
H924   H     0.35775   0.77543   0.88506   0.00000  Uiso   1.00
H925   H     0.65975   0.74768   0.96762   0.00000  Uiso   1.00
H926   H     0.57950   0.81042   0.87293   0.00000  Uiso   1.00
H927   H     0.56883   0.68094   0.75567   0.00000  Uiso   1.00
N928   N     0.64908   0.84741   0.76416   0.00000  Uiso   1.00
N929   N     0.35092   0.81926   0.73584   0.00000  Uiso   1.00
O930   O     0.46131   0.90474   0.74633   0.00000  Uiso   1.00
O931   O     0.56191   0.91422   0.75586   0.00000  Uiso   1.00
O932   O     0.42515   0.82627   0.81839   0.00000  Uiso   1.00
O933   O     0.52575   0.83575   0.82793   0.00000  Uiso   1.00
O934   O     0.43809   0.75245   0.74413   0.00000  Uiso   1.00
O935   O     0.53869   0.76193   0.75367   0.00000  Uiso   1.00
O936   O     0.47425   0.83092   0.67207   0.00000  Uiso   1.00
O937   O     0.57485   0.84040   0.68161   0.00000  Uiso   1.00
C938   C     0.66324   0.89001   0.81047   0.00000  Uiso   1.00
C939   C     0.61712   0.91724   0.83930   0.00000  Uiso   1.00
C940   C     0.62125   0.95071   0.88581   0.00000  Uiso   1.00
C941   C     0.34057   0.96301   0.90723   0.00000  Uiso   1.00
C942   C     0.38973   0.94441   0.88037   0.00000  Uiso   1.00
C943   C     0.38495   0.91113   0.83364   0.00000  Uiso   1.00
H944   H     0.57393   0.91576   0.83086   0.00000  Uiso   1.00
H945   H     0.58275   0.96727   0.90538   0.00000  Uiso   1.00
H946   H     0.34388   0.98802   0.94355   0.00000  Uiso   1.00
H947   H     0.43268   0.95634   0.89578   0.00000  Uiso   1.00
H948   H     0.42908   0.90685   0.82221   0.00000  Uiso   1.00
O949   O     0.65856   0.78445   0.69890   0.00000  Uiso   1.00
H950   H     0.35803   0.76657   0.68052   0.00000  Uiso   1.00
O951   O     0.39663   0.75687   0.53847   0.00000  Uiso   1.00
H952   H     0.35257   0.74013   0.54139   0.00000  Uiso   1.00
C953   C     0.84899   0.93338   0.75080   0.00000  Uiso   1.00
C954   C     0.80981   0.80348   0.98008   0.00000  Uiso   1.00
C955   C     0.82958   0.81019   0.92843   0.00000  Uiso   1.00
C956   C     0.85391   0.82095   0.51485   0.00000  Uiso   1.00
C957   C     0.91657   0.83766   0.99622   0.00000  Uiso   1.00
C958   C     0.93503   0.83617   0.94490   0.00000  Uiso   1.00
C959   C     0.89297   0.81917   0.91157   0.00000  Uiso   1.00
C960   C     0.83812   0.82531   0.56762   0.00000  Uiso   1.00
C961   C     0.94453   0.85309   0.58025   0.00000  Uiso   1.00
C962   C     0.78540   0.80621   0.89551   0.00000  Uiso   1.00
C963   C     0.85713   0.98967   0.75159   0.00000  Uiso   1.00
C964   C     0.80137   0.82415   0.84503   0.00000  Uiso   1.00
C965   C     0.80995   0.67689   0.74736   0.00000  Uiso   1.00
C966   C     0.81808   0.73318   0.74806   0.00000  Uiso   1.00
C967   C     0.86544   0.83678   0.65388   0.00000  Uiso   1.00
C968   C     0.96099   0.85410   0.52885   0.00000  Uiso   1.00
C969   C     0.88305   0.83861   0.59982   0.00000  Uiso   1.00
C970   C     0.72478   0.78301   0.91068   0.00000  Uiso   1.00
C971   C     0.70675   0.76748   0.95817   0.00000  Uiso   1.00
C972   C     0.74808   0.77737   0.99348   0.00000  Uiso   1.00
Cu973  Cu    0.77377   0.82772   0.74435   0.00000  Uiso   1.00
Cu974  Cu    0.89290   0.83895   0.75565   0.00000  Uiso   1.00
H975   H     0.97985   0.86441   0.60468   0.00000  Uiso   1.00
H976   H     0.76490   0.98562   0.74337   0.00000  Uiso   1.00
H977   H     0.98264   0.84786   0.93018   0.00000  Uiso   1.00
H978   H     0.67541   0.86657   0.51442   0.00000  Uiso   1.00
H979   H     0.79131   0.82026   0.58475   0.00000  Uiso   1.00
H980   H     0.69108   0.77543   0.88506   0.00000  Uiso   1.00
H981   H     0.99308   0.74768   0.96762   0.00000  Uiso   1.00
H982   H     0.91283   0.81042   0.87293   0.00000  Uiso   1.00
H983   H     0.90216   0.68094   0.75567   0.00000  Uiso   1.00
N984   N     0.98241   0.84741   0.76416   0.00000  Uiso   1.00
N985   N     0.68426   0.81926   0.73584   0.00000  Uiso   1.00
O986   O     0.79464   0.90474   0.74633   0.00000  Uiso   1.00
O987   O     0.89524   0.91422   0.75586   0.00000  Uiso   1.00
O988   O     0.75848   0.82627   0.81839   0.00000  Uiso   1.00
O989   O     0.85908   0.83575   0.82793   0.00000  Uiso   1.00
O990   O     0.77142   0.75245   0.74413   0.00000  Uiso   1.00
O991   O     0.87203   0.76193   0.75367   0.00000  Uiso   1.00
O992   O     0.80758   0.83092   0.67207   0.00000  Uiso   1.00
O993   O     0.90819   0.84040   0.68161   0.00000  Uiso   1.00
C994   C     0.99658   0.89001   0.81047   0.00000  Uiso   1.00
C995   C     0.95045   0.91724   0.83930   0.00000  Uiso   1.00
C996   C     0.95459   0.95071   0.88581   0.00000  Uiso   1.00
C997   C     0.67391   0.96301   0.90723   0.00000  Uiso   1.00
C998   C     0.72306   0.94441   0.88037   0.00000  Uiso   1.00
C999   C     0.71828   0.91113   0.83364   0.00000  Uiso   1.00
H1000  H     0.90727   0.91576   0.83086   0.00000  Uiso   1.00
H1001  H     0.91608   0.96727   0.90538   0.00000  Uiso   1.00
H1002  H     0.67721   0.98802   0.94355   0.00000  Uiso   1.00
H1003  H     0.76602   0.95634   0.89578   0.00000  Uiso   1.00
H1004  H     0.76242   0.90685   0.82221   0.00000  Uiso   1.00
O1005  O     0.99189   0.78445   0.69890   0.00000  Uiso   1.00
H1006  H     0.69136   0.76657   0.68052   0.00000  Uiso   1.00
O1007  O     0.72996   0.75687   0.53847   0.00000  Uiso   1.00
H1008  H     0.68590   0.74013   0.54139   0.00000  Uiso   1.00
loop_
_geom_bond_atom_site_label_1
_geom_bond_atom_site_label_2
_geom_bond_distance
_geom_bond_site_symmetry_2
_ccdc_geom_bond_type
C1     C11     1.442   .     S
C1     O34     1.301   .     A
C1     O35     1.309   .     A
C2     C3      1.423   .     A
C2     C20     1.428   .     A
C2     C508    1.435   .     S
C3     C10     1.431   .     A
C3     C7      1.415   .     A
C4     C8      1.402   .     A
C4     C506    1.435   1_554 S
C4     C509    1.422   1_554 S
C5     C6      1.377   .     A
C5     C508    1.422   .     S
C5     C520    1.398   .     S
C6     C7      1.372   .     A
C6     H25     1.081   .     S
C7     H30     1.073   .     S
C8     H27     1.075   .     S
C8     C17     1.400   .     A
C9     C16     1.381   .     A
C9     C17     1.398   .     A
C9     H23     1.083   .     S
C10    C18     1.395   .     A
C10    C12     1.486   .     S
C11    C181    1.343   .     S
C11    H199    1.087   .     S
C12    O36     1.329   .     A
C12    O37     1.300   .     A
C13    C14     1.442   .     S
C13    C347    1.343   1_545 S
C13    H360    1.087   1_545 S
C14    O38     1.310   .     A
C14    O39     1.299   .     A
C15    O41     1.307   .     A
C15    O40     1.309   .     A
C15    C17     1.456   .     S
C16    C509    1.398   1_554 S
C16    H82     1.084   .     S
C18    H28     1.083   .     S
C18    C19     1.386   .     A
C19    C20     1.405   .     A
C19    H141    1.083   1_455 S
C20    O559    1.381   .     S
Cu21   O40     1.985   .     S
Cu21   Cu22    2.727   .     S
Cu21   N33     2.049   .     S
Cu21   O36     1.981   .     S
Cu21   O34     1.957   .     S
Cu21   O38     1.964   .     S
Cu22   O35     1.964   .     S
Cu22   N32     2.049   .     S
Cu22   O39     1.957   .     S
Cu22   O41     1.981   .     S
Cu22   O37     1.985   .     S
H24    C181    1.087   .     S
H26    C128    1.084   1_455 S
H29    C75     1.083   .     S
H31    C347    1.087   1_545 S
N32    C42     1.543   .     S
N32    N89     1.280   .     S
N33    N144    1.280   1_455 S
N33    O165    1.338   1_455 S
C42    C43     1.447   .     A
C42    C103    1.446   .     S
C43    H48     1.039   .     S
C43    C44     1.401   .     A
C44    H49     1.085   .     S
C44    C101    1.368   .     S
C45    H50     1.081   .     S
C45    C46     1.368   .     A
C45    C156    1.368   1_455 S
C46    C47     1.405   .     A
C46    H51     1.086   .     S
C47    H52     1.027   .     S
C47    C154    1.446   1_455 S
O53    N89     1.338   .     S
O53    H110    0.990   .     S
H54    O165    0.990   1_455 S
O55    H56     0.992   .     S
O55    C524    1.381   1_554 S
C57    C67     1.442   .     S
C57    O90     1.301   .     A
C57    O91     1.309   .     A
C58    C59     1.423   .     A
C58    C76     1.428   .     A
C58    C564    1.435   .     S
C59    C66     1.431   .     A
C59    C63     1.415   .     A
C60    C64     1.402   .     A
C60    C562    1.435   1_554 S
C60    C565    1.422   1_554 S
C61    C62     1.377   .     A
C61    C564    1.422   .     S
C61    C576    1.398   .     S
C62    C63     1.372   .     A
C62    H81     1.081   .     S
C63    H86     1.073   .     S
C64    H83     1.075   .     S
C64    C73     1.400   .     A
C65    C72     1.381   .     A
C65    C73     1.398   .     A
C65    H79     1.083   .     S
C66    C74     1.395   .     A
C66    C68     1.486   .     S
C67    C237    1.343   .     S
C67    H255    1.087   .     S
C68    O92     1.329   .     A
C68    O93     1.300   .     A
C69    C70     1.442   .     S
C69    C403    1.343   1_545 S
C69    H416    1.087   1_545 S
C70    O94     1.310   .     A
C70    O95     1.299   .     A
C71    O97     1.307   .     A
C71    O96     1.309   .     A
C71    C73     1.456   .     S
C72    C565    1.398   1_554 S
C72    H138    1.084   .     S
C74    H84     1.083   .     S
C74    C75     1.386   .     A
C75    C76     1.405   .     A
C76    O615    1.381   .     S
Cu77   O96     1.985   .     S
Cu77   Cu78    2.727   .     S
Cu77   N89     2.049   .     S
Cu77   O92     1.981   .     S
Cu77   O90     1.957   .     S
Cu77   O94     1.964   .     S
Cu78   O91     1.964   .     S
Cu78   N88     2.049   .     S
Cu78   O95     1.957   .     S
Cu78   O97     1.981   .     S
Cu78   O93     1.985   .     S
H80    C237    1.087   .     S
H85    C131    1.083   .     S
H87    C403    1.087   1_545 S
N88    C98     1.543   .     S
N88    N145    1.280   .     S
C98    C99     1.447   .     A
C98    C159    1.446   .     S
C99    H104    1.039   .     S
C99    C100    1.401   .     A
C100   H105    1.085   .     S
C100   C157    1.368   .     S
C101   H106    1.081   .     S
C101   C102    1.368   .     A
C102   C103    1.405   .     A
C102   H107    1.086   .     S
C103   H108    1.027   .     S
O109   N145    1.338   .     S
O109   H166    0.990   .     S
O111   H112    0.992   .     S
O111   C580    1.381   1_554 S
C113   C123    1.442   .     S
C113   O146    1.301   .     A
C113   O147    1.309   .     A
C114   C115    1.423   .     A
C114   C132    1.428   .     A
C114   C620    1.435   .     S
C115   C122    1.431   .     A
C115   C119    1.415   .     A
C116   C120    1.402   .     A
C116   C618    1.435   1_554 S
C116   C621    1.422   1_554 S
C117   C118    1.377   .     A
C117   C620    1.422   .     S
C117   C632    1.398   .     S
C118   C119    1.372   .     A
C118   H137    1.081   .     S
C119   H142    1.073   .     S
C120   H139    1.075   .     S
C120   C129    1.400   .     A
C121   C128    1.381   .     A
C121   C129    1.398   .     A
C121   H135    1.083   .     S
C122   C130    1.395   .     A
C122   C124    1.486   .     S
C123   C293    1.343   .     S
C123   H311    1.087   .     S
C124   O148    1.329   .     A
C124   O149    1.300   .     A
C125   C126    1.442   .     S
C125   C459    1.343   1_545 S
C125   H472    1.087   1_545 S
C126   O150    1.310   .     A
C126   O151    1.299   .     A
C127   O153    1.307   .     A
C127   O152    1.309   .     A
C127   C129    1.456   .     S
C128   C621    1.398   1_554 S
C128   H26     1.084   1_655 S
C130   H140    1.083   .     S
C130   C131    1.386   .     A
C131   C132    1.405   .     A
C132   O671    1.381   .     S
Cu133  O152    1.985   .     S
Cu133  Cu134   2.727   .     S
Cu133  N145    2.049   .     S
Cu133  O148    1.981   .     S
Cu133  O146    1.957   .     S
Cu133  O150    1.964   .     S
Cu134  O147    1.964   .     S
Cu134  N144    2.049   .     S
Cu134  O151    1.957   .     S
Cu134  O153    1.981   .     S
Cu134  O149    1.985   .     S
H136   C293    1.087   .     S
H141   C19     1.083   1_655 S
H143   C459    1.087   1_545 S
N144   C154    1.543   .     S
N144   N33     1.280   1_655 S
C154   C155    1.447   .     A
C154   C47     1.446   1_655 S
C155   H160    1.039   .     S
C155   C156    1.401   .     A
C156   H161    1.085   .     S
C156   C45     1.368   1_655 S
C157   H162    1.081   .     S
C157   C158    1.368   .     A
C158   C159    1.405   .     A
C158   H163    1.086   .     S
C159   H164    1.027   .     S
O165   N33     1.338   1_655 S
O165   H54     0.990   1_655 S
O167   H168    0.992   .     S
O167   C636    1.381   1_554 S
C169   C179    1.442   .     S
C169   O202    1.301   .     A
C169   O203    1.309   .     A
C170   C171    1.423   .     A
C170   C188    1.428   .     A
C170   C676    1.435   .     S
C171   C178    1.431   .     A
C171   C175    1.415   .     A
C172   C176    1.402   .     A
C172   C674    1.435   1_554 S
C172   C677    1.422   1_554 S
C173   C174    1.377   .     A
C173   C676    1.422   .     S
C173   C688    1.398   .     S
C174   C175    1.372   .     A
C174   H193    1.081   .     S
C175   H198    1.073   .     S
C176   H195    1.075   .     S
C176   C185    1.400   .     A
C177   C184    1.381   .     A
C177   C185    1.398   .     A
C177   H191    1.083   .     S
C178   C186    1.395   .     A
C178   C180    1.486   .     S
C179   C349    1.343   .     S
C179   H367    1.087   .     S
C180   O204    1.329   .     A
C180   O205    1.300   .     A
C181   C182    1.442   .     S
C182   O206    1.310   .     A
C182   O207    1.299   .     A
C183   O209    1.307   .     A
C183   O208    1.309   .     A
C183   C185    1.456   .     S
C184   C677    1.398   1_554 S
C184   H250    1.084   .     S
C186   H196    1.083   .     S
C186   C187    1.386   .     A
C187   C188    1.405   .     A
C187   H309    1.083   1_455 S
C188   O727    1.381   .     S
Cu189  O208    1.985   .     S
Cu189  Cu190   2.727   .     S
Cu189  N201    2.049   .     S
Cu189  O204    1.981   .     S
Cu189  O202    1.957   .     S
Cu189  O206    1.964   .     S
Cu190  O203    1.964   .     S
Cu190  N200    2.049   .     S
Cu190  O207    1.957   .     S
Cu190  O209    1.981   .     S
Cu190  O205    1.985   .     S
H192   C349    1.087   .     S
H194   C296    1.084   1_455 S
H197   C243    1.083   .     S
N200   C210    1.543   .     S
N200   N257    1.280   .     S
N201   N312    1.280   1_455 S
N201   O333    1.338   1_455 S
C210   C211    1.447   .     A
C210   C271    1.446   .     S
C211   H216    1.039   .     S
C211   C212    1.401   .     A
C212   H217    1.085   .     S
C212   C269    1.368   .     S
C213   H218    1.081   .     S
C213   C214    1.368   .     A
C213   C324    1.368   1_455 S
C214   C215    1.405   .     A
C214   H219    1.086   .     S
C215   H220    1.027   .     S
C215   C322    1.446   1_455 S
O221   N257    1.338   .     S
O221   H278    0.990   .     S
H222   O333    0.990   1_455 S
O223   H224    0.992   .     S
O223   C692    1.381   1_554 S
C225   C235    1.442   .     S
C225   O258    1.301   .     A
C225   O259    1.309   .     A
C226   C227    1.423   .     A
C226   C244    1.428   .     A
C226   C732    1.435   .     S
C227   C234    1.431   .     A
C227   C231    1.415   .     A
C228   C232    1.402   .     A
C228   C730    1.435   1_554 S
C228   C733    1.422   1_554 S
C229   C230    1.377   .     A
C229   C732    1.422   .     S
C229   C744    1.398   .     S
C230   C231    1.372   .     A
C230   H249    1.081   .     S
C231   H254    1.073   .     S
C232   H251    1.075   .     S
C232   C241    1.400   .     A
C233   C240    1.381   .     A
C233   C241    1.398   .     A
C233   H247    1.083   .     S
C234   C242    1.395   .     A
C234   C236    1.486   .     S
C235   C405    1.343   .     S
C235   H423    1.087   .     S
C236   O260    1.329   .     A
C236   O261    1.300   .     A
C237   C238    1.442   .     S
C238   O262    1.310   .     A
C238   O263    1.299   .     A
C239   O265    1.307   .     A
C239   O264    1.309   .     A
C239   C241    1.456   .     S
C240   C733    1.398   1_554 S
C240   H306    1.084   .     S
C242   H252    1.083   .     S
C242   C243    1.386   .     A
C243   C244    1.405   .     A
C244   O783    1.381   .     S
Cu245  O264    1.985   .     S
Cu245  Cu246   2.727   .     S
Cu245  N257    2.049   .     S
Cu245  O260    1.981   .     S
Cu245  O258    1.957   .     S
Cu245  O262    1.964   .     S
Cu246  O259    1.964   .     S
Cu246  N256    2.049   .     S
Cu246  O263    1.957   .     S
Cu246  O265    1.981   .     S
Cu246  O261    1.985   .     S
H248   C405    1.087   .     S
H253   C299    1.083   .     S
N256   C266    1.543   .     S
N256   N313    1.280   .     S
C266   C267    1.447   .     A
C266   C327    1.446   .     S
C267   H272    1.039   .     S
C267   C268    1.401   .     A
C268   H273    1.085   .     S
C268   C325    1.368   .     S
C269   H274    1.081   .     S
C269   C270    1.368   .     A
C270   C271    1.405   .     A
C270   H275    1.086   .     S
C271   H276    1.027   .     S
O277   N313    1.338   .     S
O277   H334    0.990   .     S
O279   H280    0.992   .     S
O279   C748    1.381   1_554 S
C281   C291    1.442   .     S
C281   O314    1.301   .     A
C281   O315    1.309   .     A
C282   C283    1.423   .     A
C282   C300    1.428   .     A
C282   C788    1.435   .     S
C283   C290    1.431   .     A
C283   C287    1.415   .     A
C284   C288    1.402   .     A
C284   C786    1.435   1_554 S
C284   C789    1.422   1_554 S
C285   C286    1.377   .     A
C285   C788    1.422   .     S
C285   C800    1.398   .     S
C286   C287    1.372   .     A
C286   H305    1.081   .     S
C287   H310    1.073   .     S
C288   H307    1.075   .     S
C288   C297    1.400   .     A
C289   C296    1.381   .     A
C289   C297    1.398   .     A
C289   H303    1.083   .     S
C290   C298    1.395   .     A
C290   C292    1.486   .     S
C291   C461    1.343   .     S
C291   H479    1.087   .     S
C292   O316    1.329   .     A
C292   O317    1.300   .     A
C293   C294    1.442   .     S
C294   O318    1.310   .     A
C294   O319    1.299   .     A
C295   O321    1.307   .     A
C295   O320    1.309   .     A
C295   C297    1.456   .     S
C296   C789    1.398   1_554 S
C296   H194    1.084   1_655 S
C298   H308    1.083   .     S
C298   C299    1.386   .     A
C299   C300    1.405   .     A
C300   O839    1.381   .     S
Cu301  O320    1.985   .     S
Cu301  Cu302   2.727   .     S
Cu301  N313    2.049   .     S
Cu301  O316    1.981   .     S
Cu301  O314    1.957   .     S
Cu301  O318    1.964   .     S
Cu302  O315    1.964   .     S
Cu302  N312    2.049   .     S
Cu302  O319    1.957   .     S
Cu302  O321    1.981   .     S
Cu302  O317    1.985   .     S
H304   C461    1.087   .     S
H309   C187    1.083   1_655 S
N312   C322    1.543   .     S
N312   N201    1.280   1_655 S
C322   C323    1.447   .     A
C322   C215    1.446   1_655 S
C323   H328    1.039   .     S
C323   C324    1.401   .     A
C324   H329    1.085   .     S
C324   C213    1.368   1_655 S
C325   H330    1.081   .     S
C325   C326    1.368   .     A
C326   C327    1.405   .     A
C326   H331    1.086   .     S
C327   H332    1.027   .     S
O333   N201    1.338   1_655 S
O333   H222    0.990   1_655 S
O335   H336    0.992   .     S
O335   C804    1.381   1_554 S
C337   C347    1.442   .     S
C337   O370    1.301   .     A
C337   O371    1.309   .     A
C338   C339    1.423   .     A
C338   C356    1.428   .     A
C338   C844    1.435   .     S
C339   C346    1.431   .     A
C339   C343    1.415   .     A
C340   C344    1.402   .     A
C340   C842    1.435   1_554 S
C340   C845    1.422   1_554 S
C341   C342    1.377   .     A
C341   C844    1.422   .     S
C341   C856    1.398   .     S
C342   C343    1.372   .     A
C342   H361    1.081   .     S
C343   H366    1.073   .     S
C344   H363    1.075   .     S
C344   C353    1.400   .     A
C345   C352    1.381   .     A
C345   C353    1.398   .     A
C345   H359    1.083   .     S
C346   C354    1.395   .     A
C346   C348    1.486   .     S
C347   C13     1.343   1_565 S
C347   H31     1.087   1_565 S
C348   O372    1.329   .     A
C348   O373    1.300   .     A
C349   C350    1.442   .     S
C350   O374    1.310   .     A
C350   O375    1.299   .     A
C351   O377    1.307   .     A
C351   O376    1.309   .     A
C351   C353    1.456   .     S
C352   C845    1.398   1_554 S
C352   H418    1.084   .     S
C354   H364    1.083   .     S
C354   C355    1.386   .     A
C355   C356    1.405   .     A
C355   H477    1.083   1_455 S
C356   O895    1.381   .     S
Cu357  O376    1.985   .     S
Cu357  Cu358   2.727   .     S
Cu357  N369    2.049   .     S
Cu357  O372    1.981   .     S
Cu357  O370    1.957   .     S
Cu357  O374    1.964   .     S
Cu358  O371    1.964   .     S
Cu358  N368    2.049   .     S
Cu358  O375    1.957   .     S
Cu358  O377    1.981   .     S
Cu358  O373    1.985   .     S
H360   C13     1.087   1_565 S
H362   C464    1.084   1_455 S
H365   C411    1.083   .     S
N368   C378    1.543   .     S
N368   N425    1.280   .     S
N369   N480    1.280   1_455 S
N369   O501    1.338   1_455 S
C378   C379    1.447   .     A
C378   C439    1.446   .     S
C379   H384    1.039   .     S
C379   C380    1.401   .     A
C380   H385    1.085   .     S
C380   C437    1.368   .     S
C381   H386    1.081   .     S
C381   C382    1.368   .     A
C381   C492    1.368   1_455 S
C382   C383    1.405   .     A
C382   H387    1.086   .     S
C383   H388    1.027   .     S
C383   C490    1.446   1_455 S
O389   N425    1.338   .     S
O389   H446    0.990   .     S
H390   O501    0.990   1_455 S
O391   H392    0.992   .     S
O391   C860    1.381   1_554 S
C393   C403    1.442   .     S
C393   O426    1.301   .     A
C393   O427    1.309   .     A
C394   C395    1.423   .     A
C394   C412    1.428   .     A
C394   C900    1.435   .     S
C395   C402    1.431   .     A
C395   C399    1.415   .     A
C396   C400    1.402   .     A
C396   C898    1.435   1_554 S
C396   C901    1.422   1_554 S
C397   C398    1.377   .     A
C397   C900    1.422   .     S
C397   C912    1.398   .     S
C398   C399    1.372   .     A
C398   H417    1.081   .     S
C399   H422    1.073   .     S
C400   H419    1.075   .     S
C400   C409    1.400   .     A
C401   C408    1.381   .     A
C401   C409    1.398   .     A
C401   H415    1.083   .     S
C402   C410    1.395   .     A
C402   C404    1.486   .     S
C403   C69     1.343   1_565 S
C403   H87     1.087   1_565 S
C404   O428    1.329   .     A
C404   O429    1.300   .     A
C405   C406    1.442   .     S
C406   O430    1.310   .     A
C406   O431    1.299   .     A
C407   O433    1.307   .     A
C407   O432    1.309   .     A
C407   C409    1.456   .     S
C408   C901    1.398   1_554 S
C408   H474    1.084   .     S
C410   H420    1.083   .     S
C410   C411    1.386   .     A
C411   C412    1.405   .     A
C412   O951    1.381   .     S
Cu413  O432    1.985   .     S
Cu413  Cu414   2.727   .     S
Cu413  N425    2.049   .     S
Cu413  O428    1.981   .     S
Cu413  O426    1.957   .     S
Cu413  O430    1.964   .     S
Cu414  O427    1.964   .     S
Cu414  N424    2.049   .     S
Cu414  O431    1.957   .     S
Cu414  O433    1.981   .     S
Cu414  O429    1.985   .     S
H416   C69     1.087   1_565 S
H421   C467    1.083   .     S
N424   C434    1.543   .     S
N424   N481    1.280   .     S
C434   C435    1.447   .     A
C434   C495    1.446   .     S
C435   H440    1.039   .     S
C435   C436    1.401   .     A
C436   H441    1.085   .     S
C436   C493    1.368   .     S
C437   H442    1.081   .     S
C437   C438    1.368   .     A
C438   C439    1.405   .     A
C438   H443    1.086   .     S
C439   H444    1.027   .     S
O445   N481    1.338   .     S
O445   H502    0.990   .     S
O447   H448    0.992   .     S
O447   C916    1.381   1_554 S
C449   C459    1.442   .     S
C449   O482    1.301   .     A
C449   O483    1.309   .     A
C450   C451    1.423   .     A
C450   C468    1.428   .     A
C450   C956    1.435   .     S
C451   C458    1.431   .     A
C451   C455    1.415   .     A
C452   C456    1.402   .     A
C452   C954    1.435   1_554 S
C452   C957    1.422   1_554 S
C453   C454    1.377   .     A
C453   C956    1.422   .     S
C453   C968    1.398   .     S
C454   C455    1.372   .     A
C454   H473    1.081   .     S
C455   H478    1.073   .     S
C456   H475    1.075   .     S
C456   C465    1.400   .     A
C457   C464    1.381   .     A
C457   C465    1.398   .     A
C457   H471    1.083   .     S
C458   C466    1.395   .     A
C458   C460    1.486   .     S
C459   C125    1.343   1_565 S
C459   H143    1.087   1_565 S
C460   O484    1.329   .     A
C460   O485    1.300   .     A
C461   C462    1.442   .     S
C462   O486    1.310   .     A
C462   O487    1.299   .     A
C463   O489    1.307   .     A
C463   O488    1.309   .     A
C463   C465    1.456   .     S
C464   C957    1.398   1_554 S
C464   H362    1.084   1_655 S
C466   H476    1.083   .     S
C466   C467    1.386   .     A
C467   C468    1.405   .     A
C468   O1007   1.381   .     S
Cu469  O488    1.985   .     S
Cu469  Cu470   2.727   .     S
Cu469  N481    2.049   .     S
Cu469  O484    1.981   .     S
Cu469  O482    1.957   .     S
Cu469  O486    1.964   .     S
Cu470  O483    1.964   .     S
Cu470  N480    2.049   .     S
Cu470  O487    1.957   .     S
Cu470  O489    1.981   .     S
Cu470  O485    1.985   .     S
H472   C125    1.087   1_565 S
H477   C355    1.083   1_655 S
N480   C490    1.543   .     S
N480   N369    1.280   1_655 S
C490   C491    1.447   .     A
C490   C383    1.446   1_655 S
C491   H496    1.039   .     S
C491   C492    1.401   .     A
C492   H497    1.085   .     S
C492   C381    1.368   1_655 S
C493   H498    1.081   .     S
C493   C494    1.368   .     A
C494   C495    1.405   .     A
C494   H499    1.086   .     S
C495   H500    1.027   .     S
O501   N369    1.338   1_655 S
O501   H390    0.990   1_655 S
O503   H504    0.992   .     S
O503   C972    1.381   1_554 S
C505   C515    1.442   .     S
C505   O538    1.301   .     A
C505   O539    1.309   .     A
C506   C507    1.423   .     A
C506   C524    1.428   .     A
C506   C4      1.435   1_556 S
C507   C514    1.431   .     A
C507   C511    1.415   .     A
C508   C512    1.402   .     A
C509   C510    1.377   .     A
C509   C4      1.422   1_556 S
C509   C16     1.398   1_556 S
C510   C511    1.372   .     A
C510   H529    1.081   .     S
C511   H534    1.073   .     S
C512   H531    1.075   .     S
C512   C521    1.400   .     A
C513   C520    1.381   .     A
C513   C521    1.398   .     A
C513   H527    1.083   .     S
C514   C522    1.395   .     A
C514   C516    1.486   .     S
C515   C685    1.343   .     S
C515   H703    1.087   .     S
C516   O540    1.329   .     A
C516   O541    1.300   .     A
C517   C518    1.442   .     S
C517   C851    1.343   1_545 S
C517   H864    1.087   1_545 S
C518   O542    1.310   .     A
C518   O543    1.299   .     A
C519   O545    1.307   .     A
C519   O544    1.309   .     A
C519   C521    1.456   .     S
C520   H586    1.084   .     S
C522   H532    1.083   .     S
C522   C523    1.386   .     A
C523   C524    1.405   .     A
C523   H645    1.083   1_455 S
C524   O55     1.381   1_556 S
Cu525  O544    1.985   .     S
Cu525  Cu526   2.727   .     S
Cu525  N537    2.049   .     S
Cu525  O540    1.981   .     S
Cu525  O538    1.957   .     S
Cu525  O542    1.964   .     S
Cu526  O539    1.964   .     S
Cu526  N536    2.049   .     S
Cu526  O543    1.957   .     S
Cu526  O545    1.981   .     S
Cu526  O541    1.985   .     S
H528   C685    1.087   .     S
H530   C632    1.084   1_455 S
H533   C579    1.083   .     S
H535   C851    1.087   1_545 S
N536   C546    1.543   .     S
N536   N593    1.280   .     S
N537   N648    1.280   1_455 S
N537   O669    1.338   1_455 S
C546   C547    1.447   .     A
C546   C607    1.446   .     S
C547   H552    1.039   .     S
C547   C548    1.401   .     A
C548   H553    1.085   .     S
C548   C605    1.368   .     S
C549   H554    1.081   .     S
C549   C550    1.368   .     A
C549   C660    1.368   1_455 S
C550   C551    1.405   .     A
C550   H555    1.086   .     S
C551   H556    1.027   .     S
C551   C658    1.446   1_455 S
O557   N593    1.338   .     S
O557   H614    0.990   .     S
H558   O669    0.990   1_455 S
O559   H560    0.992   .     S
C561   C571    1.442   .     S
C561   O594    1.301   .     A
C561   O595    1.309   .     A
C562   C563    1.423   .     A
C562   C580    1.428   .     A
C562   C60     1.435   1_556 S
C563   C570    1.431   .     A
C563   C567    1.415   .     A
C564   C568    1.402   .     A
C565   C566    1.377   .     A
C565   C60     1.422   1_556 S
C565   C72     1.398   1_556 S
C566   C567    1.372   .     A
C566   H585    1.081   .     S
C567   H590    1.073   .     S
C568   H587    1.075   .     S
C568   C577    1.400   .     A
C569   C576    1.381   .     A
C569   C577    1.398   .     A
C569   H583    1.083   .     S
C570   C578    1.395   .     A
C570   C572    1.486   .     S
C571   C741    1.343   .     S
C571   H759    1.087   .     S
C572   O596    1.329   .     A
C572   O597    1.300   .     A
C573   C574    1.442   .     S
C573   C907    1.343   1_545 S
C573   H920    1.087   1_545 S
C574   O598    1.310   .     A
C574   O599    1.299   .     A
C575   O601    1.307   .     A
C575   O600    1.309   .     A
C575   C577    1.456   .     S
C576   H642    1.084   .     S
C578   H588    1.083   .     S
C578   C579    1.386   .     A
C579   C580    1.405   .     A
C580   O111    1.381   1_556 S
Cu581  O600    1.985   .     S
Cu581  Cu582   2.727   .     S
Cu581  N593    2.049   .     S
Cu581  O596    1.981   .     S
Cu581  O594    1.957   .     S
Cu581  O598    1.964   .     S
Cu582  O595    1.964   .     S
Cu582  N592    2.049   .     S
Cu582  O599    1.957   .     S
Cu582  O601    1.981   .     S
Cu582  O597    1.985   .     S
H584   C741    1.087   .     S
H589   C635    1.083   .     S
H591   C907    1.087   1_545 S
N592   C602    1.543   .     S
N592   N649    1.280   .     S
C602   C603    1.447   .     A
C602   C663    1.446   .     S
C603   H608    1.039   .     S
C603   C604    1.401   .     A
C604   H609    1.085   .     S
C604   C661    1.368   .     S
C605   H610    1.081   .     S
C605   C606    1.368   .     A
C606   C607    1.405   .     A
C606   H611    1.086   .     S
C607   H612    1.027   .     S
O613   N649    1.338   .     S
O613   H670    0.990   .     S
O615   H616    0.992   .     S
C617   C627    1.442   .     S
C617   O650    1.301   .     A
C617   O651    1.309   .     A
C618   C619    1.423   .     A
C618   C636    1.428   .     A
C618   C116    1.435   1_556 S
C619   C626    1.431   .     A
C619   C623    1.415   .     A
C620   C624    1.402   .     A
C621   C622    1.377   .     A
C621   C116    1.422   1_556 S
C621   C128    1.398   1_556 S
C622   C623    1.372   .     A
C622   H641    1.081   .     S
C623   H646    1.073   .     S
C624   H643    1.075   .     S
C624   C633    1.400   .     A
C625   C632    1.381   .     A
C625   C633    1.398   .     A
C625   H639    1.083   .     S
C626   C634    1.395   .     A
C626   C628    1.486   .     S
C627   C797    1.343   .     S
C627   H815    1.087   .     S
C628   O652    1.329   .     A
C628   O653    1.300   .     A
C629   C630    1.442   .     S
C629   C963    1.343   1_545 S
C629   H976    1.087   1_545 S
C630   O654    1.310   .     A
C630   O655    1.299   .     A
C631   O657    1.307   .     A
C631   O656    1.309   .     A
C631   C633    1.456   .     S
C632   H530    1.084   1_655 S
C634   H644    1.083   .     S
C634   C635    1.386   .     A
C635   C636    1.405   .     A
C636   O167    1.381   1_556 S
Cu637  O656    1.985   .     S
Cu637  Cu638   2.727   .     S
Cu637  N649    2.049   .     S
Cu637  O652    1.981   .     S
Cu637  O650    1.957   .     S
Cu637  O654    1.964   .     S
Cu638  O651    1.964   .     S
Cu638  N648    2.049   .     S
Cu638  O655    1.957   .     S
Cu638  O657    1.981   .     S
Cu638  O653    1.985   .     S
H640   C797    1.087   .     S
H645   C523    1.083   1_655 S
H647   C963    1.087   1_545 S
N648   C658    1.543   .     S
N648   N537    1.280   1_655 S
C658   C659    1.447   .     A
C658   C551    1.446   1_655 S
C659   H664    1.039   .     S
C659   C660    1.401   .     A
C660   H665    1.085   .     S
C660   C549    1.368   1_655 S
C661   H666    1.081   .     S
C661   C662    1.368   .     A
C662   C663    1.405   .     A
C662   H667    1.086   .     S
C663   H668    1.027   .     S
O669   N537    1.338   1_655 S
O669   H558    0.990   1_655 S
O671   H672    0.992   .     S
C673   C683    1.442   .     S
C673   O706    1.301   .     A
C673   O707    1.309   .     A
C674   C675    1.423   .     A
C674   C692    1.428   .     A
C674   C172    1.435   1_556 S
C675   C682    1.431   .     A
C675   C679    1.415   .     A
C676   C680    1.402   .     A
C677   C678    1.377   .     A
C677   C172    1.422   1_556 S
C677   C184    1.398   1_556 S
C678   C679    1.372   .     A
C678   H697    1.081   .     S
C679   H702    1.073   .     S
C680   H699    1.075   .     S
C680   C689    1.400   .     A
C681   C688    1.381   .     A
C681   C689    1.398   .     A
C681   H695    1.083   .     S
C682   C690    1.395   .     A
C682   C684    1.486   .     S
C683   C853    1.343   .     S
C683   H871    1.087   .     S
C684   O708    1.329   .     A
C684   O709    1.300   .     A
C685   C686    1.442   .     S
C686   O710    1.310   .     A
C686   O711    1.299   .     A
C687   O713    1.307   .     A
C687   O712    1.309   .     A
C687   C689    1.456   .     S
C688   H754    1.084   .     S
C690   H700    1.083   .     S
C690   C691    1.386   .     A
C691   C692    1.405   .     A
C691   H813    1.083   1_455 S
C692   O223    1.381   1_556 S
Cu693  O712    1.985   .     S
Cu693  Cu694   2.727   .     S
Cu693  N705    2.049   .     S
Cu693  O708    1.981   .     S
Cu693  O706    1.957   .     S
Cu693  O710    1.964   .     S
Cu694  O707    1.964   .     S
Cu694  N704    2.049   .     S
Cu694  O711    1.957   .     S
Cu694  O713    1.981   .     S
Cu694  O709    1.985   .     S
H696   C853    1.087   .     S
H698   C800    1.084   1_455 S
H701   C747    1.083   .     S
N704   C714    1.543   .     S
N704   N761    1.280   .     S
N705   N816    1.280   1_455 S
N705   O837    1.338   1_455 S
C714   C715    1.447   .     A
C714   C775    1.446   .     S
C715   H720    1.039   .     S
C715   C716    1.401   .     A
C716   H721    1.085   .     S
C716   C773    1.368   .     S
C717   H722    1.081   .     S
C717   C718    1.368   .     A
C717   C828    1.368   1_455 S
C718   C719    1.405   .     A
C718   H723    1.086   .     S
C719   H724    1.027   .     S
C719   C826    1.446   1_455 S
O725   N761    1.338   .     S
O725   H782    0.990   .     S
H726   O837    0.990   1_455 S
O727   H728    0.992   .     S
C729   C739    1.442   .     S
C729   O762    1.301   .     A
C729   O763    1.309   .     A
C730   C731    1.423   .     A
C730   C748    1.428   .     A
C730   C228    1.435   1_556 S
C731   C738    1.431   .     A
C731   C735    1.415   .     A
C732   C736    1.402   .     A
C733   C734    1.377   .     A
C733   C228    1.422   1_556 S
C733   C240    1.398   1_556 S
C734   C735    1.372   .     A
C734   H753    1.081   .     S
C735   H758    1.073   .     S
C736   H755    1.075   .     S
C736   C745    1.400   .     A
C737   C744    1.381   .     A
C737   C745    1.398   .     A
C737   H751    1.083   .     S
C738   C746    1.395   .     A
C738   C740    1.486   .     S
C739   C909    1.343   .     S
C739   H927    1.087   .     S
C740   O764    1.329   .     A
C740   O765    1.300   .     A
C741   C742    1.442   .     S
C742   O766    1.310   .     A
C742   O767    1.299   .     A
C743   O769    1.307   .     A
C743   O768    1.309   .     A
C743   C745    1.456   .     S
C744   H810    1.084   .     S
C746   H756    1.083   .     S
C746   C747    1.386   .     A
C747   C748    1.405   .     A
C748   O279    1.381   1_556 S
Cu749  O768    1.985   .     S
Cu749  Cu750   2.727   .     S
Cu749  N761    2.049   .     S
Cu749  O764    1.981   .     S
Cu749  O762    1.957   .     S
Cu749  O766    1.964   .     S
Cu750  O763    1.964   .     S
Cu750  N760    2.049   .     S
Cu750  O767    1.957   .     S
Cu750  O769    1.981   .     S
Cu750  O765    1.985   .     S
H752   C909    1.087   .     S
H757   C803    1.083   .     S
N760   C770    1.543   .     S
N760   N817    1.280   .     S
C770   C771    1.447   .     A
C770   C831    1.446   .     S
C771   H776    1.039   .     S
C771   C772    1.401   .     A
C772   H777    1.085   .     S
C772   C829    1.368   .     S
C773   H778    1.081   .     S
C773   C774    1.368   .     A
C774   C775    1.405   .     A
C774   H779    1.086   .     S
C775   H780    1.027   .     S
O781   N817    1.338   .     S
O781   H838    0.990   .     S
O783   H784    0.992   .     S
C785   C795    1.442   .     S
C785   O818    1.301   .     A
C785   O819    1.309   .     A
C786   C787    1.423   .     A
C786   C804    1.428   .     A
C786   C284    1.435   1_556 S
C787   C794    1.431   .     A
C787   C791    1.415   .     A
C788   C792    1.402   .     A
C789   C790    1.377   .     A
C789   C284    1.422   1_556 S
C789   C296    1.398   1_556 S
C790   C791    1.372   .     A
C790   H809    1.081   .     S
C791   H814    1.073   .     S
C792   H811    1.075   .     S
C792   C801    1.400   .     A
C793   C800    1.381   .     A
C793   C801    1.398   .     A
C793   H807    1.083   .     S
C794   C802    1.395   .     A
C794   C796    1.486   .     S
C795   C965    1.343   .     S
C795   H983    1.087   .     S
C796   O820    1.329   .     A
C796   O821    1.300   .     A
C797   C798    1.442   .     S
C798   O822    1.310   .     A
C798   O823    1.299   .     A
C799   O825    1.307   .     A
C799   O824    1.309   .     A
C799   C801    1.456   .     S
C800   H698    1.084   1_655 S
C802   H812    1.083   .     S
C802   C803    1.386   .     A
C803   C804    1.405   .     A
C804   O335    1.381   1_556 S
Cu805  O824    1.985   .     S
Cu805  Cu806   2.727   .     S
Cu805  N817    2.049   .     S
Cu805  O820    1.981   .     S
Cu805  O818    1.957   .     S
Cu805  O822    1.964   .     S
Cu806  O819    1.964   .     S
Cu806  N816    2.049   .     S
Cu806  O823    1.957   .     S
Cu806  O825    1.981   .     S
Cu806  O821    1.985   .     S
H808   C965    1.087   .     S
H813   C691    1.083   1_655 S
N816   C826    1.543   .     S
N816   N705    1.280   1_655 S
C826   C827    1.447   .     A
C826   C719    1.446   1_655 S
C827   H832    1.039   .     S
C827   C828    1.401   .     A
C828   H833    1.085   .     S
C828   C717    1.368   1_655 S
C829   H834    1.081   .     S
C829   C830    1.368   .     A
C830   C831    1.405   .     A
C830   H835    1.086   .     S
C831   H836    1.027   .     S
O837   N705    1.338   1_655 S
O837   H726    0.990   1_655 S
O839   H840    0.992   .     S
C841   C851    1.442   .     S
C841   O874    1.301   .     A
C841   O875    1.309   .     A
C842   C843    1.423   .     A
C842   C860    1.428   .     A
C842   C340    1.435   1_556 S
C843   C850    1.431   .     A
C843   C847    1.415   .     A
C844   C848    1.402   .     A
C845   C846    1.377   .     A
C845   C340    1.422   1_556 S
C845   C352    1.398   1_556 S
C846   C847    1.372   .     A
C846   H865    1.081   .     S
C847   H870    1.073   .     S
C848   H867    1.075   .     S
C848   C857    1.400   .     A
C849   C856    1.381   .     A
C849   C857    1.398   .     A
C849   H863    1.083   .     S
C850   C858    1.395   .     A
C850   C852    1.486   .     S
C851   C517    1.343   1_565 S
C851   H535    1.087   1_565 S
C852   O876    1.329   .     A
C852   O877    1.300   .     A
C853   C854    1.442   .     S
C854   O878    1.310   .     A
C854   O879    1.299   .     A
C855   O881    1.307   .     A
C855   O880    1.309   .     A
C855   C857    1.456   .     S
C856   H922    1.084   .     S
C858   H868    1.083   .     S
C858   C859    1.386   .     A
C859   C860    1.405   .     A
C859   H981    1.083   1_455 S
C860   O391    1.381   1_556 S
Cu861  O880    1.985   .     S
Cu861  Cu862   2.727   .     S
Cu861  N873    2.049   .     S
Cu861  O876    1.981   .     S
Cu861  O874    1.957   .     S
Cu861  O878    1.964   .     S
Cu862  O875    1.964   .     S
Cu862  N872    2.049   .     S
Cu862  O879    1.957   .     S
Cu862  O881    1.981   .     S
Cu862  O877    1.985   .     S
H864   C517    1.087   1_565 S
H866   C968    1.084   1_455 S
H869   C915    1.083   .     S
N872   C882    1.543   .     S
N872   N929    1.280   .     S
N873   N984    1.280   1_455 S
N873   O1005   1.338   1_455 S
C882   C883    1.447   .     A
C882   C943    1.446   .     S
C883   H888    1.039   .     S
C883   C884    1.401   .     A
C884   H889    1.085   .     S
C884   C941    1.368   .     S
C885   H890    1.081   .     S
C885   C886    1.368   .     A
C885   C996    1.368   1_455 S
C886   C887    1.405   .     A
C886   H891    1.086   .     S
C887   H892    1.027   .     S
C887   C994    1.446   1_455 S
O893   N929    1.338   .     S
O893   H950    0.990   .     S
H894   O1005   0.990   1_455 S
O895   H896    0.992   .     S
C897   C907    1.442   .     S
C897   O930    1.301   .     A
C897   O931    1.309   .     A
C898   C899    1.423   .     A
C898   C916    1.428   .     A
C898   C396    1.435   1_556 S
C899   C906    1.431   .     A
C899   C903    1.415   .     A
C900   C904    1.402   .     A
C901   C902    1.377   .     A
C901   C396    1.422   1_556 S
C901   C408    1.398   1_556 S
C902   C903    1.372   .     A
C902   H921    1.081   .     S
C903   H926    1.073   .     S
C904   H923    1.075   .     S
C904   C913    1.400   .     A
C905   C912    1.381   .     A
C905   C913    1.398   .     A
C905   H919    1.083   .     S
C906   C914    1.395   .     A
C906   C908    1.486   .     S
C907   C573    1.343   1_565 S
C907   H591    1.087   1_565 S
C908   O932    1.329   .     A
C908   O933    1.300   .     A
C909   C910    1.442   .     S
C910   O934    1.310   .     A
C910   O935    1.299   .     A
C911   O937    1.307   .     A
C911   O936    1.309   .     A
C911   C913    1.456   .     S
C912   H978    1.084   .     S
C914   H924    1.083   .     S
C914   C915    1.386   .     A
C915   C916    1.405   .     A
C916   O447    1.381   1_556 S
Cu917  O936    1.985   .     S
Cu917  Cu918   2.727   .     S
Cu917  N929    2.049   .     S
Cu917  O932    1.981   .     S
Cu917  O930    1.957   .     S
Cu917  O934    1.964   .     S
Cu918  O931    1.964   .     S
Cu918  N928    2.049   .     S
Cu918  O935    1.957   .     S
Cu918  O937    1.981   .     S
Cu918  O933    1.985   .     S
H920   C573    1.087   1_565 S
H925   C971    1.083   .     S
N928   C938    1.543   .     S
N928   N985    1.280   .     S
C938   C939    1.447   .     A
C938   C999    1.446   .     S
C939   H944    1.039   .     S
C939   C940    1.401   .     A
C940   H945    1.085   .     S
C940   C997    1.368   .     S
C941   H946    1.081   .     S
C941   C942    1.368   .     A
C942   C943    1.405   .     A
C942   H947    1.086   .     S
C943   H948    1.027   .     S
O949   N985    1.338   .     S
O949   H1006   0.990   .     S
O951   H952    0.992   .     S
C953   C963    1.442   .     S
C953   O986    1.301   .     A
C953   O987    1.309   .     A
C954   C955    1.423   .     A
C954   C972    1.428   .     A
C954   C452    1.435   1_556 S
C955   C962    1.431   .     A
C955   C959    1.415   .     A
C956   C960    1.402   .     A
C957   C958    1.377   .     A
C957   C452    1.422   1_556 S
C957   C464    1.398   1_556 S
C958   C959    1.372   .     A
C958   H977    1.081   .     S
C959   H982    1.073   .     S
C960   H979    1.075   .     S
C960   C969    1.400   .     A
C961   C968    1.381   .     A
C961   C969    1.398   .     A
C961   H975    1.083   .     S
C962   C970    1.395   .     A
C962   C964    1.486   .     S
C963   C629    1.343   1_565 S
C963   H647    1.087   1_565 S
C964   O988    1.329   .     A
C964   O989    1.300   .     A
C965   C966    1.442   .     S
C966   O990    1.310   .     A
C966   O991    1.299   .     A
C967   O993    1.307   .     A
C967   O992    1.309   .     A
C967   C969    1.456   .     S
C968   H866    1.084   1_655 S
C970   H980    1.083   .     S
C970   C971    1.386   .     A
C971   C972    1.405   .     A
C972   O503    1.381   1_556 S
Cu973  O992    1.985   .     S
Cu973  Cu974   2.727   .     S
Cu973  N985    2.049   .     S
Cu973  O988    1.981   .     S
Cu973  O986    1.957   .     S
Cu973  O990    1.964   .     S
Cu974  O987    1.964   .     S
Cu974  N984    2.049   .     S
Cu974  O991    1.957   .     S
Cu974  O993    1.981   .     S
Cu974  O989    1.985   .     S
H976   C629    1.087   1_565 S
H981   C859    1.083   1_655 S
N984   C994    1.543   .     S
N984   N873    1.280   1_655 S
C994   C995    1.447   .     A
C994   C887    1.446   1_655 S
C995   H1000   1.039   .     S
C995   C996    1.401   .     A
C996   H1001   1.085   .     S
C996   C885    1.368   1_655 S
C997   H1002   1.081   .     S
C997   C998    1.368   .     A
C998   C999    1.405   .     A
C998   H1003   1.086   .     S
C999   H1004   1.027   .     S
O1005  N873    1.338   1_655 S
O1005  H894    0.990   1_655 S
O1007  H1008   0.992   .     S
