data_str_m2_o2_o10_pcu_sym.156
_audit_creation_date              2020-01-03
_audit_creation_method            'Materials Studio'
_symmetry_space_group_name_H-M    'P1'
_symmetry_Int_Tables_number       1
_symmetry_cell_setting            triclinic
loop_
_symmetry_equiv_pos_as_xyz
  x,y,z
_cell_length_a                    26.1781
_cell_length_b                    30.1913
_cell_length_c                    27.7060
_cell_angle_alpha                 91.0197
_cell_angle_beta                  97.9196
_cell_angle_gamma                 89.7637
loop_
_atom_site_label
_atom_site_type_symbol
_atom_site_fract_x
_atom_site_fract_y
_atom_site_fract_z
_atom_site_U_iso_or_equiv
_atom_site_adp_type
_atom_site_occupancy
C1     C     0.16867   0.16501   0.24975   0.00000  Uiso   1.00
C2     C     0.16840   0.33511   0.25080   0.00000  Uiso   1.00
C3     C     0.20848   0.23271   0.05879   0.00000  Uiso   1.00
C4     C     0.12262   0.23794   0.44051   0.00000  Uiso   1.00
C5     C     0.20745   0.23254   0.10949   0.00000  Uiso   1.00
C6     C     0.12355   0.23761   0.38979   0.00000  Uiso   1.00
C7     C     0.12593   0.26754   0.09956   0.00000  Uiso   1.00
C8     C     0.20990   0.26220   0.40141   0.00000  Uiso   1.00
C9     C     0.12498   0.26749   0.04859   0.00000  Uiso   1.00
C10    C     0.21087   0.26212   0.45238   0.00000  Uiso   1.00
C11    C     0.16675   0.25013   0.02730   0.00000  Uiso   1.00
C12    C     0.16674   0.25011   0.47284   0.00000  Uiso   1.00
C13    C     0.06788   0.25004   0.23755   0.00000  Uiso   1.00
C14    C     0.26544   0.25029   0.26245   0.00000  Uiso   1.00
C15    C     0.01262   0.25014   0.23067   0.00000  Uiso   1.00
C16    C     0.32069   0.25054   0.26935   0.00000  Uiso   1.00
C17    C     0.13646   0.04774   0.27152   0.00000  Uiso   1.00
C18    C     0.14091   0.45194   0.21459   0.00000  Uiso   1.00
C19    C     0.13610   0.09354   0.27174   0.00000  Uiso   1.00
C20    C     0.14057   0.40622   0.21552   0.00000  Uiso   1.00
C21    C     0.17166   0.11673   0.24864   0.00000  Uiso   1.00
C22    C     0.17105   0.38361   0.25262   0.00000  Uiso   1.00
C23    C     0.20883   0.09374   0.22463   0.00000  Uiso   1.00
C24    C     0.20329   0.40740   0.29001   0.00000  Uiso   1.00
C25    C     0.20683   0.04678   0.22205   0.00000  Uiso   1.00
C26    C     0.20395   0.45454   0.28845   0.00000  Uiso   1.00
C27    C     0.17150   0.02440   0.24712   0.00000  Uiso   1.00
C28    C     0.17224   0.47601   0.25036   0.00000  Uiso   1.00
Cu29   Cu    0.16667   0.24999   0.29822   0.00000  Uiso   1.00
Cu30   Cu    0.16667   0.25000   0.20179   0.00000  Uiso   1.00
H31    H     0.32597   0.24975   0.19356   0.00000  Uiso   1.00
H32    H     0.00731   0.25088   0.30645   0.00000  Uiso   1.00
H33    H     0.10935   0.03029   0.29052   0.00000  Uiso   1.00
H34    H     0.11681   0.46879   0.18558   0.00000  Uiso   1.00
H35    H     0.10797   0.11108   0.29021   0.00000  Uiso   1.00
H36    H     0.11589   0.38829   0.18718   0.00000  Uiso   1.00
H37    H     0.24137   0.21855   0.04426   0.00000  Uiso   1.00
H38    H     0.08781   0.22789   0.45436   0.00000  Uiso   1.00
H39    H     0.23955   0.21826   0.13284   0.00000  Uiso   1.00
H40    H     0.08943   0.22715   0.36598   0.00000  Uiso   1.00
H41    H     0.09383   0.28180   0.11515   0.00000  Uiso   1.00
H42    H     0.24408   0.27239   0.38676   0.00000  Uiso   1.00
H43    H     0.09211   0.28168   0.02604   0.00000  Uiso   1.00
H44    H     0.24572   0.27217   0.47561   0.00000  Uiso   1.00
N45    N     0.16667   0.25001   0.12935   0.00000  Uiso   1.00
N46    N     0.16667   0.24999   0.37066   0.00000  Uiso   1.00
O47    O     0.16667   0.18572   0.29072   0.00000  Uiso   1.00
O48    O     0.16666   0.31427   0.20929   0.00000  Uiso   1.00
O49    O     0.16667   0.18573   0.20928   0.00000  Uiso   1.00
O50    O     0.16666   0.31427   0.29072   0.00000  Uiso   1.00
O51    O     0.09161   0.24999   0.28132   0.00000  Uiso   1.00
O52    O     0.24172   0.25000   0.21868   0.00000  Uiso   1.00
O53    O     0.09161   0.25000   0.19989   0.00000  Uiso   1.00
O54    O     0.24172   0.25000   0.30012   0.00000  Uiso   1.00
C55    C     0.25394   0.11875   0.20834   0.00000  Uiso   1.00
C56    C     0.29304   0.13238   0.25214   0.00000  Uiso   1.00
H57    H     0.32551   0.15036   0.23948   0.00000  Uiso   1.00
H58    H     0.27505   0.15439   0.27753   0.00000  Uiso   1.00
H59    H     0.30866   0.10254   0.27199   0.00000  Uiso   1.00
H60    H     0.27508   0.09890   0.18368   0.00000  Uiso   1.00
H61    H     0.24056   0.14823   0.18700   0.00000  Uiso   1.00
C62    C     0.24003   0.38277   0.32796   0.00000  Uiso   1.00
C63    C     0.21662   0.37595   0.37503   0.00000  Uiso   1.00
H64    H     0.18211   0.35445   0.36856   0.00000  Uiso   1.00
H65    H     0.24558   0.36005   0.40242   0.00000  Uiso   1.00
H66    H     0.20462   0.40775   0.39059   0.00000  Uiso   1.00
H67    H     0.25136   0.35019   0.31359   0.00000  Uiso   1.00
H68    H     0.27724   0.40061   0.33628   0.00000  Uiso   1.00
C69    C     0.24167   0.02015   0.19487   0.00000  Uiso   1.00
H70    H     0.26142   0.49142   0.21154   0.00000  Uiso   1.00
O71    O     0.24595   0.02835   0.15263   0.00000  Uiso   1.00
C72    C     0.23858   0.48247   0.32409   0.00000  Uiso   1.00
H73    H     0.25324   0.01360   0.31273   0.00000  Uiso   1.00
O74    O     0.24974   0.47236   0.36664   0.00000  Uiso   1.00
C75    C     0.50200   0.16501   0.24975   0.00000  Uiso   1.00
C76    C     0.50174   0.33511   0.25080   0.00000  Uiso   1.00
C77    C     0.54181   0.23271   0.05879   0.00000  Uiso   1.00
C78    C     0.45596   0.23794   0.44051   0.00000  Uiso   1.00
C79    C     0.54078   0.23254   0.10949   0.00000  Uiso   1.00
C80    C     0.45688   0.23761   0.38979   0.00000  Uiso   1.00
C81    C     0.45926   0.26754   0.09956   0.00000  Uiso   1.00
C82    C     0.54324   0.26220   0.40141   0.00000  Uiso   1.00
C83    C     0.45831   0.26749   0.04859   0.00000  Uiso   1.00
C84    C     0.54420   0.26212   0.45238   0.00000  Uiso   1.00
C85    C     0.50008   0.25013   0.02730   0.00000  Uiso   1.00
C86    C     0.50007   0.25011   0.47284   0.00000  Uiso   1.00
C87    C     0.40121   0.25004   0.23755   0.00000  Uiso   1.00
C88    C     0.59878   0.25029   0.26245   0.00000  Uiso   1.00
C89    C     0.34595   0.25014   0.23067   0.00000  Uiso   1.00
C90    C     0.65403   0.25054   0.26935   0.00000  Uiso   1.00
C91    C     0.46979   0.04774   0.27152   0.00000  Uiso   1.00
C92    C     0.47424   0.45194   0.21459   0.00000  Uiso   1.00
C93    C     0.46943   0.09354   0.27174   0.00000  Uiso   1.00
C94    C     0.47391   0.40622   0.21552   0.00000  Uiso   1.00
C95    C     0.50499   0.11673   0.24864   0.00000  Uiso   1.00
C96    C     0.50438   0.38361   0.25262   0.00000  Uiso   1.00
C97    C     0.54216   0.09374   0.22463   0.00000  Uiso   1.00
C98    C     0.53662   0.40740   0.29001   0.00000  Uiso   1.00
C99    C     0.54016   0.04678   0.22205   0.00000  Uiso   1.00
C100   C     0.53728   0.45454   0.28845   0.00000  Uiso   1.00
C101   C     0.50483   0.02440   0.24712   0.00000  Uiso   1.00
C102   C     0.50557   0.47601   0.25036   0.00000  Uiso   1.00
Cu103  Cu    0.50000   0.24999   0.29822   0.00000  Uiso   1.00
Cu104  Cu    0.50000   0.25000   0.20179   0.00000  Uiso   1.00
H105   H     0.65930   0.24975   0.19356   0.00000  Uiso   1.00
H106   H     0.34064   0.25088   0.30645   0.00000  Uiso   1.00
H107   H     0.44268   0.03029   0.29052   0.00000  Uiso   1.00
H108   H     0.45015   0.46879   0.18558   0.00000  Uiso   1.00
H109   H     0.44131   0.11108   0.29021   0.00000  Uiso   1.00
H110   H     0.44922   0.38829   0.18718   0.00000  Uiso   1.00
H111   H     0.57470   0.21855   0.04426   0.00000  Uiso   1.00
H112   H     0.42114   0.22789   0.45436   0.00000  Uiso   1.00
H113   H     0.57289   0.21826   0.13284   0.00000  Uiso   1.00
H114   H     0.42276   0.22715   0.36598   0.00000  Uiso   1.00
H115   H     0.42716   0.28180   0.11515   0.00000  Uiso   1.00
H116   H     0.57741   0.27239   0.38676   0.00000  Uiso   1.00
H117   H     0.42544   0.28168   0.02604   0.00000  Uiso   1.00
H118   H     0.57906   0.27217   0.47561   0.00000  Uiso   1.00
N119   N     0.50000   0.25001   0.12935   0.00000  Uiso   1.00
N120   N     0.50000   0.24999   0.37066   0.00000  Uiso   1.00
O121   O     0.50000   0.18572   0.29072   0.00000  Uiso   1.00
O122   O     0.50000   0.31427   0.20929   0.00000  Uiso   1.00
O123   O     0.50000   0.18573   0.20928   0.00000  Uiso   1.00
O124   O     0.50000   0.31427   0.29072   0.00000  Uiso   1.00
O125   O     0.42495   0.24999   0.28132   0.00000  Uiso   1.00
O126   O     0.57505   0.25000   0.21868   0.00000  Uiso   1.00
O127   O     0.42495   0.25000   0.19989   0.00000  Uiso   1.00
O128   O     0.57505   0.25000   0.30012   0.00000  Uiso   1.00
C129   C     0.58727   0.11875   0.20834   0.00000  Uiso   1.00
C130   C     0.62637   0.13238   0.25214   0.00000  Uiso   1.00
H131   H     0.65885   0.15036   0.23948   0.00000  Uiso   1.00
H132   H     0.60838   0.15439   0.27753   0.00000  Uiso   1.00
H133   H     0.64199   0.10254   0.27199   0.00000  Uiso   1.00
H134   H     0.60841   0.09890   0.18368   0.00000  Uiso   1.00
H135   H     0.57390   0.14823   0.18700   0.00000  Uiso   1.00
C136   C     0.57336   0.38277   0.32796   0.00000  Uiso   1.00
C137   C     0.54995   0.37595   0.37503   0.00000  Uiso   1.00
H138   H     0.51544   0.35445   0.36856   0.00000  Uiso   1.00
H139   H     0.57891   0.36005   0.40242   0.00000  Uiso   1.00
H140   H     0.53796   0.40775   0.39059   0.00000  Uiso   1.00
H141   H     0.58470   0.35019   0.31359   0.00000  Uiso   1.00
H142   H     0.61058   0.40061   0.33628   0.00000  Uiso   1.00
C143   C     0.57501   0.02015   0.19487   0.00000  Uiso   1.00
H144   H     0.59475   0.49142   0.21154   0.00000  Uiso   1.00
O145   O     0.57928   0.02835   0.15263   0.00000  Uiso   1.00
C146   C     0.57191   0.48247   0.32409   0.00000  Uiso   1.00
H147   H     0.58658   0.01360   0.31273   0.00000  Uiso   1.00
O148   O     0.58307   0.47236   0.36664   0.00000  Uiso   1.00
C149   C     0.83534   0.16501   0.24975   0.00000  Uiso   1.00
C150   C     0.83507   0.33511   0.25080   0.00000  Uiso   1.00
C151   C     0.87514   0.23271   0.05879   0.00000  Uiso   1.00
C152   C     0.78929   0.23794   0.44051   0.00000  Uiso   1.00
C153   C     0.87411   0.23254   0.10949   0.00000  Uiso   1.00
C154   C     0.79022   0.23761   0.38979   0.00000  Uiso   1.00
C155   C     0.79260   0.26754   0.09956   0.00000  Uiso   1.00
C156   C     0.87657   0.26220   0.40141   0.00000  Uiso   1.00
C157   C     0.79165   0.26749   0.04859   0.00000  Uiso   1.00
C158   C     0.87753   0.26212   0.45238   0.00000  Uiso   1.00
C159   C     0.83342   0.25013   0.02730   0.00000  Uiso   1.00
C160   C     0.83341   0.25011   0.47284   0.00000  Uiso   1.00
C161   C     0.73455   0.25004   0.23755   0.00000  Uiso   1.00
C162   C     0.93211   0.25029   0.26245   0.00000  Uiso   1.00
C163   C     0.67928   0.25014   0.23067   0.00000  Uiso   1.00
C164   C     0.98736   0.25054   0.26935   0.00000  Uiso   1.00
C165   C     0.80313   0.04774   0.27152   0.00000  Uiso   1.00
C166   C     0.80757   0.45194   0.21459   0.00000  Uiso   1.00
C167   C     0.80277   0.09354   0.27174   0.00000  Uiso   1.00
C168   C     0.80724   0.40622   0.21552   0.00000  Uiso   1.00
C169   C     0.83832   0.11673   0.24864   0.00000  Uiso   1.00
C170   C     0.83772   0.38361   0.25262   0.00000  Uiso   1.00
C171   C     0.87550   0.09374   0.22463   0.00000  Uiso   1.00
C172   C     0.86995   0.40740   0.29001   0.00000  Uiso   1.00
C173   C     0.87349   0.04678   0.22205   0.00000  Uiso   1.00
C174   C     0.87062   0.45454   0.28845   0.00000  Uiso   1.00
C175   C     0.83817   0.02440   0.24712   0.00000  Uiso   1.00
C176   C     0.83891   0.47601   0.25036   0.00000  Uiso   1.00
Cu177  Cu    0.83333   0.24999   0.29822   0.00000  Uiso   1.00
Cu178  Cu    0.83333   0.25000   0.20179   0.00000  Uiso   1.00
H179   H     0.99264   0.24975   0.19356   0.00000  Uiso   1.00
H180   H     0.67397   0.25088   0.30645   0.00000  Uiso   1.00
H181   H     0.77601   0.03029   0.29052   0.00000  Uiso   1.00
H182   H     0.78348   0.46879   0.18558   0.00000  Uiso   1.00
H183   H     0.77464   0.11108   0.29021   0.00000  Uiso   1.00
H184   H     0.78255   0.38829   0.18718   0.00000  Uiso   1.00
H185   H     0.90803   0.21855   0.04426   0.00000  Uiso   1.00
H186   H     0.75448   0.22789   0.45436   0.00000  Uiso   1.00
H187   H     0.90622   0.21826   0.13284   0.00000  Uiso   1.00
H188   H     0.75609   0.22715   0.36598   0.00000  Uiso   1.00
H189   H     0.76049   0.28180   0.11515   0.00000  Uiso   1.00
H190   H     0.91074   0.27239   0.38676   0.00000  Uiso   1.00
H191   H     0.75878   0.28168   0.02604   0.00000  Uiso   1.00
H192   H     0.91239   0.27217   0.47561   0.00000  Uiso   1.00
N193   N     0.83333   0.25001   0.12935   0.00000  Uiso   1.00
N194   N     0.83333   0.24999   0.37066   0.00000  Uiso   1.00
O195   O     0.83334   0.18572   0.29072   0.00000  Uiso   1.00
O196   O     0.83333   0.31427   0.20929   0.00000  Uiso   1.00
O197   O     0.83334   0.18573   0.20928   0.00000  Uiso   1.00
O198   O     0.83333   0.31427   0.29072   0.00000  Uiso   1.00
O199   O     0.75828   0.24999   0.28132   0.00000  Uiso   1.00
O200   O     0.90839   0.25000   0.21868   0.00000  Uiso   1.00
O201   O     0.75828   0.25000   0.19989   0.00000  Uiso   1.00
O202   O     0.90839   0.25000   0.30012   0.00000  Uiso   1.00
C203   C     0.92060   0.11875   0.20834   0.00000  Uiso   1.00
C204   C     0.95971   0.13238   0.25214   0.00000  Uiso   1.00
H205   H     0.99218   0.15036   0.23948   0.00000  Uiso   1.00
H206   H     0.94172   0.15439   0.27753   0.00000  Uiso   1.00
H207   H     0.97533   0.10254   0.27199   0.00000  Uiso   1.00
H208   H     0.94175   0.09890   0.18368   0.00000  Uiso   1.00
H209   H     0.90723   0.14823   0.18700   0.00000  Uiso   1.00
C210   C     0.90669   0.38277   0.32796   0.00000  Uiso   1.00
C211   C     0.88329   0.37595   0.37503   0.00000  Uiso   1.00
H212   H     0.84878   0.35445   0.36856   0.00000  Uiso   1.00
H213   H     0.91225   0.36005   0.40242   0.00000  Uiso   1.00
H214   H     0.87129   0.40775   0.39059   0.00000  Uiso   1.00
H215   H     0.91803   0.35019   0.31359   0.00000  Uiso   1.00
H216   H     0.94391   0.40061   0.33628   0.00000  Uiso   1.00
C217   C     0.90834   0.02015   0.19487   0.00000  Uiso   1.00
H218   H     0.92809   0.49142   0.21154   0.00000  Uiso   1.00
O219   O     0.91262   0.02835   0.15263   0.00000  Uiso   1.00
C220   C     0.90525   0.48247   0.32409   0.00000  Uiso   1.00
H221   H     0.91991   0.01360   0.31273   0.00000  Uiso   1.00
O222   O     0.91641   0.47236   0.36664   0.00000  Uiso   1.00
C223   C     0.16867   0.66501   0.24975   0.00000  Uiso   1.00
C224   C     0.16840   0.83511   0.25080   0.00000  Uiso   1.00
C225   C     0.20848   0.73271   0.05879   0.00000  Uiso   1.00
C226   C     0.12262   0.73794   0.44051   0.00000  Uiso   1.00
C227   C     0.20745   0.73254   0.10949   0.00000  Uiso   1.00
C228   C     0.12355   0.73761   0.38979   0.00000  Uiso   1.00
C229   C     0.12593   0.76754   0.09956   0.00000  Uiso   1.00
C230   C     0.20990   0.76220   0.40141   0.00000  Uiso   1.00
C231   C     0.12498   0.76749   0.04859   0.00000  Uiso   1.00
C232   C     0.21087   0.76212   0.45238   0.00000  Uiso   1.00
C233   C     0.16675   0.75013   0.02730   0.00000  Uiso   1.00
C234   C     0.16674   0.75011   0.47284   0.00000  Uiso   1.00
C235   C     0.06788   0.75004   0.23755   0.00000  Uiso   1.00
C236   C     0.26544   0.75029   0.26245   0.00000  Uiso   1.00
C237   C     0.01262   0.75014   0.23067   0.00000  Uiso   1.00
C238   C     0.32069   0.75054   0.26935   0.00000  Uiso   1.00
C239   C     0.13646   0.54774   0.27152   0.00000  Uiso   1.00
C240   C     0.14091   0.95194   0.21459   0.00000  Uiso   1.00
C241   C     0.13610   0.59354   0.27174   0.00000  Uiso   1.00
C242   C     0.14057   0.90622   0.21552   0.00000  Uiso   1.00
C243   C     0.17166   0.61673   0.24864   0.00000  Uiso   1.00
C244   C     0.17105   0.88361   0.25262   0.00000  Uiso   1.00
C245   C     0.20883   0.59374   0.22463   0.00000  Uiso   1.00
C246   C     0.20329   0.90740   0.29001   0.00000  Uiso   1.00
C247   C     0.20683   0.54678   0.22205   0.00000  Uiso   1.00
C248   C     0.20395   0.95454   0.28845   0.00000  Uiso   1.00
C249   C     0.17150   0.52440   0.24712   0.00000  Uiso   1.00
C250   C     0.17224   0.97601   0.25036   0.00000  Uiso   1.00
Cu251  Cu    0.16667   0.74999   0.29822   0.00000  Uiso   1.00
Cu252  Cu    0.16667   0.75000   0.20179   0.00000  Uiso   1.00
H253   H     0.32597   0.74975   0.19356   0.00000  Uiso   1.00
H254   H     0.00731   0.75088   0.30645   0.00000  Uiso   1.00
H255   H     0.10935   0.53029   0.29052   0.00000  Uiso   1.00
H256   H     0.11681   0.96879   0.18558   0.00000  Uiso   1.00
H257   H     0.10797   0.61108   0.29021   0.00000  Uiso   1.00
H258   H     0.11589   0.88829   0.18718   0.00000  Uiso   1.00
H259   H     0.24137   0.71855   0.04426   0.00000  Uiso   1.00
H260   H     0.08781   0.72789   0.45436   0.00000  Uiso   1.00
H261   H     0.23955   0.71826   0.13284   0.00000  Uiso   1.00
H262   H     0.08943   0.72715   0.36598   0.00000  Uiso   1.00
H263   H     0.09383   0.78180   0.11515   0.00000  Uiso   1.00
H264   H     0.24408   0.77239   0.38676   0.00000  Uiso   1.00
H265   H     0.09211   0.78168   0.02604   0.00000  Uiso   1.00
H266   H     0.24572   0.77217   0.47561   0.00000  Uiso   1.00
N267   N     0.16667   0.75001   0.12935   0.00000  Uiso   1.00
N268   N     0.16667   0.74999   0.37066   0.00000  Uiso   1.00
O269   O     0.16667   0.68572   0.29072   0.00000  Uiso   1.00
O270   O     0.16666   0.81427   0.20929   0.00000  Uiso   1.00
O271   O     0.16667   0.68573   0.20928   0.00000  Uiso   1.00
O272   O     0.16666   0.81427   0.29072   0.00000  Uiso   1.00
O273   O     0.09161   0.74999   0.28132   0.00000  Uiso   1.00
O274   O     0.24172   0.75000   0.21868   0.00000  Uiso   1.00
O275   O     0.09161   0.75000   0.19989   0.00000  Uiso   1.00
O276   O     0.24172   0.75000   0.30012   0.00000  Uiso   1.00
C277   C     0.25394   0.61875   0.20834   0.00000  Uiso   1.00
C278   C     0.29304   0.63238   0.25214   0.00000  Uiso   1.00
H279   H     0.32551   0.65036   0.23948   0.00000  Uiso   1.00
H280   H     0.27505   0.65439   0.27753   0.00000  Uiso   1.00
H281   H     0.30866   0.60254   0.27199   0.00000  Uiso   1.00
H282   H     0.27508   0.59890   0.18368   0.00000  Uiso   1.00
H283   H     0.24056   0.64823   0.18700   0.00000  Uiso   1.00
C284   C     0.24003   0.88277   0.32796   0.00000  Uiso   1.00
C285   C     0.21662   0.87595   0.37503   0.00000  Uiso   1.00
H286   H     0.18211   0.85445   0.36856   0.00000  Uiso   1.00
H287   H     0.24558   0.86005   0.40242   0.00000  Uiso   1.00
H288   H     0.20462   0.90775   0.39059   0.00000  Uiso   1.00
H289   H     0.25136   0.85019   0.31359   0.00000  Uiso   1.00
H290   H     0.27724   0.90061   0.33628   0.00000  Uiso   1.00
C291   C     0.24167   0.52015   0.19487   0.00000  Uiso   1.00
H292   H     0.26142   0.99142   0.21154   0.00000  Uiso   1.00
O293   O     0.24595   0.52835   0.15263   0.00000  Uiso   1.00
C294   C     0.23858   0.98247   0.32409   0.00000  Uiso   1.00
H295   H     0.25324   0.51360   0.31273   0.00000  Uiso   1.00
O296   O     0.24974   0.97236   0.36664   0.00000  Uiso   1.00
C297   C     0.50200   0.66501   0.24975   0.00000  Uiso   1.00
C298   C     0.50174   0.83511   0.25080   0.00000  Uiso   1.00
C299   C     0.54181   0.73271   0.05879   0.00000  Uiso   1.00
C300   C     0.45596   0.73794   0.44051   0.00000  Uiso   1.00
C301   C     0.54078   0.73254   0.10949   0.00000  Uiso   1.00
C302   C     0.45688   0.73761   0.38979   0.00000  Uiso   1.00
C303   C     0.45926   0.76754   0.09956   0.00000  Uiso   1.00
C304   C     0.54324   0.76220   0.40141   0.00000  Uiso   1.00
C305   C     0.45831   0.76749   0.04859   0.00000  Uiso   1.00
C306   C     0.54420   0.76212   0.45238   0.00000  Uiso   1.00
C307   C     0.50008   0.75013   0.02730   0.00000  Uiso   1.00
C308   C     0.50007   0.75011   0.47284   0.00000  Uiso   1.00
C309   C     0.40121   0.75004   0.23755   0.00000  Uiso   1.00
C310   C     0.59878   0.75029   0.26245   0.00000  Uiso   1.00
C311   C     0.34595   0.75014   0.23067   0.00000  Uiso   1.00
C312   C     0.65403   0.75054   0.26935   0.00000  Uiso   1.00
C313   C     0.46979   0.54774   0.27152   0.00000  Uiso   1.00
C314   C     0.47424   0.95194   0.21459   0.00000  Uiso   1.00
C315   C     0.46943   0.59354   0.27174   0.00000  Uiso   1.00
C316   C     0.47391   0.90622   0.21552   0.00000  Uiso   1.00
C317   C     0.50499   0.61673   0.24864   0.00000  Uiso   1.00
C318   C     0.50438   0.88361   0.25262   0.00000  Uiso   1.00
C319   C     0.54216   0.59374   0.22463   0.00000  Uiso   1.00
C320   C     0.53662   0.90740   0.29001   0.00000  Uiso   1.00
C321   C     0.54016   0.54678   0.22205   0.00000  Uiso   1.00
C322   C     0.53728   0.95454   0.28845   0.00000  Uiso   1.00
C323   C     0.50483   0.52440   0.24712   0.00000  Uiso   1.00
C324   C     0.50557   0.97601   0.25036   0.00000  Uiso   1.00
Cu325  Cu    0.50000   0.74999   0.29822   0.00000  Uiso   1.00
Cu326  Cu    0.50000   0.75000   0.20179   0.00000  Uiso   1.00
H327   H     0.65930   0.74975   0.19356   0.00000  Uiso   1.00
H328   H     0.34064   0.75088   0.30645   0.00000  Uiso   1.00
H329   H     0.44268   0.53029   0.29052   0.00000  Uiso   1.00
H330   H     0.45015   0.96879   0.18558   0.00000  Uiso   1.00
H331   H     0.44131   0.61108   0.29021   0.00000  Uiso   1.00
H332   H     0.44922   0.88829   0.18718   0.00000  Uiso   1.00
H333   H     0.57470   0.71855   0.04426   0.00000  Uiso   1.00
H334   H     0.42114   0.72789   0.45436   0.00000  Uiso   1.00
H335   H     0.57289   0.71826   0.13284   0.00000  Uiso   1.00
H336   H     0.42276   0.72715   0.36598   0.00000  Uiso   1.00
H337   H     0.42716   0.78180   0.11515   0.00000  Uiso   1.00
H338   H     0.57741   0.77239   0.38676   0.00000  Uiso   1.00
H339   H     0.42544   0.78168   0.02604   0.00000  Uiso   1.00
H340   H     0.57906   0.77217   0.47561   0.00000  Uiso   1.00
N341   N     0.50000   0.75001   0.12935   0.00000  Uiso   1.00
N342   N     0.50000   0.74999   0.37066   0.00000  Uiso   1.00
O343   O     0.50000   0.68572   0.29072   0.00000  Uiso   1.00
O344   O     0.50000   0.81427   0.20929   0.00000  Uiso   1.00
O345   O     0.50000   0.68573   0.20928   0.00000  Uiso   1.00
O346   O     0.50000   0.81427   0.29072   0.00000  Uiso   1.00
O347   O     0.42495   0.74999   0.28132   0.00000  Uiso   1.00
O348   O     0.57505   0.75000   0.21868   0.00000  Uiso   1.00
O349   O     0.42495   0.75000   0.19989   0.00000  Uiso   1.00
O350   O     0.57505   0.75000   0.30012   0.00000  Uiso   1.00
C351   C     0.58727   0.61875   0.20834   0.00000  Uiso   1.00
C352   C     0.62637   0.63238   0.25214   0.00000  Uiso   1.00
H353   H     0.65885   0.65036   0.23948   0.00000  Uiso   1.00
H354   H     0.60838   0.65439   0.27753   0.00000  Uiso   1.00
H355   H     0.64199   0.60254   0.27199   0.00000  Uiso   1.00
H356   H     0.60841   0.59890   0.18368   0.00000  Uiso   1.00
H357   H     0.57390   0.64823   0.18700   0.00000  Uiso   1.00
C358   C     0.57336   0.88277   0.32796   0.00000  Uiso   1.00
C359   C     0.54995   0.87595   0.37503   0.00000  Uiso   1.00
H360   H     0.51544   0.85445   0.36856   0.00000  Uiso   1.00
H361   H     0.57891   0.86005   0.40242   0.00000  Uiso   1.00
H362   H     0.53796   0.90775   0.39059   0.00000  Uiso   1.00
H363   H     0.58470   0.85019   0.31359   0.00000  Uiso   1.00
H364   H     0.61058   0.90061   0.33628   0.00000  Uiso   1.00
C365   C     0.57501   0.52015   0.19487   0.00000  Uiso   1.00
H366   H     0.59475   0.99142   0.21154   0.00000  Uiso   1.00
O367   O     0.57928   0.52835   0.15263   0.00000  Uiso   1.00
C368   C     0.57191   0.98247   0.32409   0.00000  Uiso   1.00
H369   H     0.58658   0.51360   0.31273   0.00000  Uiso   1.00
O370   O     0.58307   0.97236   0.36664   0.00000  Uiso   1.00
C371   C     0.83534   0.66501   0.24975   0.00000  Uiso   1.00
C372   C     0.83507   0.83511   0.25080   0.00000  Uiso   1.00
C373   C     0.87514   0.73271   0.05879   0.00000  Uiso   1.00
C374   C     0.78929   0.73794   0.44051   0.00000  Uiso   1.00
C375   C     0.87411   0.73254   0.10949   0.00000  Uiso   1.00
C376   C     0.79022   0.73761   0.38979   0.00000  Uiso   1.00
C377   C     0.79260   0.76754   0.09956   0.00000  Uiso   1.00
C378   C     0.87657   0.76220   0.40141   0.00000  Uiso   1.00
C379   C     0.79165   0.76749   0.04859   0.00000  Uiso   1.00
C380   C     0.87753   0.76212   0.45238   0.00000  Uiso   1.00
C381   C     0.83342   0.75013   0.02730   0.00000  Uiso   1.00
C382   C     0.83341   0.75011   0.47284   0.00000  Uiso   1.00
C383   C     0.73455   0.75004   0.23755   0.00000  Uiso   1.00
C384   C     0.93211   0.75029   0.26245   0.00000  Uiso   1.00
C385   C     0.67928   0.75014   0.23067   0.00000  Uiso   1.00
C386   C     0.98736   0.75054   0.26935   0.00000  Uiso   1.00
C387   C     0.80313   0.54774   0.27152   0.00000  Uiso   1.00
C388   C     0.80757   0.95194   0.21459   0.00000  Uiso   1.00
C389   C     0.80277   0.59354   0.27174   0.00000  Uiso   1.00
C390   C     0.80724   0.90622   0.21552   0.00000  Uiso   1.00
C391   C     0.83832   0.61673   0.24864   0.00000  Uiso   1.00
C392   C     0.83772   0.88361   0.25262   0.00000  Uiso   1.00
C393   C     0.87550   0.59374   0.22463   0.00000  Uiso   1.00
C394   C     0.86995   0.90740   0.29001   0.00000  Uiso   1.00
C395   C     0.87349   0.54678   0.22205   0.00000  Uiso   1.00
C396   C     0.87062   0.95454   0.28845   0.00000  Uiso   1.00
C397   C     0.83817   0.52440   0.24712   0.00000  Uiso   1.00
C398   C     0.83891   0.97601   0.25036   0.00000  Uiso   1.00
Cu399  Cu    0.83333   0.74999   0.29822   0.00000  Uiso   1.00
Cu400  Cu    0.83333   0.75000   0.20179   0.00000  Uiso   1.00
H401   H     0.99264   0.74975   0.19356   0.00000  Uiso   1.00
H402   H     0.67397   0.75088   0.30645   0.00000  Uiso   1.00
H403   H     0.77601   0.53029   0.29052   0.00000  Uiso   1.00
H404   H     0.78348   0.96879   0.18558   0.00000  Uiso   1.00
H405   H     0.77464   0.61108   0.29021   0.00000  Uiso   1.00
H406   H     0.78255   0.88829   0.18718   0.00000  Uiso   1.00
H407   H     0.90803   0.71855   0.04426   0.00000  Uiso   1.00
H408   H     0.75448   0.72789   0.45436   0.00000  Uiso   1.00
H409   H     0.90622   0.71826   0.13284   0.00000  Uiso   1.00
H410   H     0.75609   0.72715   0.36598   0.00000  Uiso   1.00
H411   H     0.76049   0.78180   0.11515   0.00000  Uiso   1.00
H412   H     0.91074   0.77239   0.38676   0.00000  Uiso   1.00
H413   H     0.75878   0.78168   0.02604   0.00000  Uiso   1.00
H414   H     0.91239   0.77217   0.47561   0.00000  Uiso   1.00
N415   N     0.83333   0.75001   0.12935   0.00000  Uiso   1.00
N416   N     0.83333   0.74999   0.37066   0.00000  Uiso   1.00
O417   O     0.83334   0.68572   0.29072   0.00000  Uiso   1.00
O418   O     0.83333   0.81427   0.20929   0.00000  Uiso   1.00
O419   O     0.83334   0.68573   0.20928   0.00000  Uiso   1.00
O420   O     0.83333   0.81427   0.29072   0.00000  Uiso   1.00
O421   O     0.75828   0.74999   0.28132   0.00000  Uiso   1.00
O422   O     0.90839   0.75000   0.21868   0.00000  Uiso   1.00
O423   O     0.75828   0.75000   0.19989   0.00000  Uiso   1.00
O424   O     0.90839   0.75000   0.30012   0.00000  Uiso   1.00
C425   C     0.92060   0.61875   0.20834   0.00000  Uiso   1.00
C426   C     0.95971   0.63238   0.25214   0.00000  Uiso   1.00
H427   H     0.99218   0.65036   0.23948   0.00000  Uiso   1.00
H428   H     0.94172   0.65439   0.27753   0.00000  Uiso   1.00
H429   H     0.97533   0.60254   0.27199   0.00000  Uiso   1.00
H430   H     0.94175   0.59890   0.18368   0.00000  Uiso   1.00
H431   H     0.90723   0.64823   0.18700   0.00000  Uiso   1.00
C432   C     0.90669   0.88277   0.32796   0.00000  Uiso   1.00
C433   C     0.88329   0.87595   0.37503   0.00000  Uiso   1.00
H434   H     0.84878   0.85445   0.36856   0.00000  Uiso   1.00
H435   H     0.91225   0.86005   0.40242   0.00000  Uiso   1.00
H436   H     0.87129   0.90775   0.39059   0.00000  Uiso   1.00
H437   H     0.91803   0.85019   0.31359   0.00000  Uiso   1.00
H438   H     0.94391   0.90061   0.33628   0.00000  Uiso   1.00
C439   C     0.90834   0.52015   0.19487   0.00000  Uiso   1.00
H440   H     0.92809   0.99142   0.21154   0.00000  Uiso   1.00
O441   O     0.91262   0.52835   0.15263   0.00000  Uiso   1.00
C442   C     0.90525   0.98247   0.32409   0.00000  Uiso   1.00
H443   H     0.91991   0.51360   0.31273   0.00000  Uiso   1.00
O444   O     0.91641   0.97236   0.36664   0.00000  Uiso   1.00
C445   C     0.16867   0.16501   0.74975   0.00000  Uiso   1.00
C446   C     0.16840   0.33511   0.75080   0.00000  Uiso   1.00
C447   C     0.20848   0.23271   0.55879   0.00000  Uiso   1.00
C448   C     0.12262   0.23794   0.94051   0.00000  Uiso   1.00
C449   C     0.20745   0.23254   0.60949   0.00000  Uiso   1.00
C450   C     0.12355   0.23761   0.88979   0.00000  Uiso   1.00
C451   C     0.12593   0.26754   0.59956   0.00000  Uiso   1.00
C452   C     0.20990   0.26220   0.90141   0.00000  Uiso   1.00
C453   C     0.12498   0.26749   0.54859   0.00000  Uiso   1.00
C454   C     0.21087   0.26212   0.95238   0.00000  Uiso   1.00
C455   C     0.16675   0.25013   0.52730   0.00000  Uiso   1.00
C456   C     0.16674   0.25011   0.97284   0.00000  Uiso   1.00
C457   C     0.06788   0.25004   0.73755   0.00000  Uiso   1.00
C458   C     0.26544   0.25029   0.76245   0.00000  Uiso   1.00
C459   C     0.01262   0.25014   0.73067   0.00000  Uiso   1.00
C460   C     0.32069   0.25054   0.76935   0.00000  Uiso   1.00
C461   C     0.13646   0.04774   0.77152   0.00000  Uiso   1.00
C462   C     0.14091   0.45194   0.71459   0.00000  Uiso   1.00
C463   C     0.13610   0.09354   0.77174   0.00000  Uiso   1.00
C464   C     0.14057   0.40622   0.71552   0.00000  Uiso   1.00
C465   C     0.17166   0.11673   0.74864   0.00000  Uiso   1.00
C466   C     0.17105   0.38361   0.75262   0.00000  Uiso   1.00
C467   C     0.20883   0.09374   0.72463   0.00000  Uiso   1.00
C468   C     0.20329   0.40740   0.79001   0.00000  Uiso   1.00
C469   C     0.20683   0.04678   0.72205   0.00000  Uiso   1.00
C470   C     0.20395   0.45454   0.78845   0.00000  Uiso   1.00
C471   C     0.17150   0.02440   0.74712   0.00000  Uiso   1.00
C472   C     0.17224   0.47601   0.75036   0.00000  Uiso   1.00
Cu473  Cu    0.16667   0.24999   0.79822   0.00000  Uiso   1.00
Cu474  Cu    0.16667   0.25000   0.70179   0.00000  Uiso   1.00
H475   H     0.32597   0.24975   0.69356   0.00000  Uiso   1.00
H476   H     0.00731   0.25088   0.80645   0.00000  Uiso   1.00
H477   H     0.10935   0.03029   0.79052   0.00000  Uiso   1.00
H478   H     0.11681   0.46879   0.68558   0.00000  Uiso   1.00
H479   H     0.10797   0.11108   0.79021   0.00000  Uiso   1.00
H480   H     0.11589   0.38829   0.68718   0.00000  Uiso   1.00
H481   H     0.24137   0.21855   0.54426   0.00000  Uiso   1.00
H482   H     0.08781   0.22789   0.95436   0.00000  Uiso   1.00
H483   H     0.23955   0.21826   0.63284   0.00000  Uiso   1.00
H484   H     0.08943   0.22715   0.86598   0.00000  Uiso   1.00
H485   H     0.09383   0.28180   0.61515   0.00000  Uiso   1.00
H486   H     0.24408   0.27239   0.88676   0.00000  Uiso   1.00
H487   H     0.09211   0.28168   0.52604   0.00000  Uiso   1.00
H488   H     0.24572   0.27217   0.97561   0.00000  Uiso   1.00
N489   N     0.16667   0.25001   0.62935   0.00000  Uiso   1.00
N490   N     0.16667   0.24999   0.87066   0.00000  Uiso   1.00
O491   O     0.16667   0.18572   0.79072   0.00000  Uiso   1.00
O492   O     0.16666   0.31427   0.70929   0.00000  Uiso   1.00
O493   O     0.16667   0.18573   0.70928   0.00000  Uiso   1.00
O494   O     0.16666   0.31427   0.79072   0.00000  Uiso   1.00
O495   O     0.09161   0.24999   0.78132   0.00000  Uiso   1.00
O496   O     0.24172   0.25000   0.71868   0.00000  Uiso   1.00
O497   O     0.09161   0.25000   0.69989   0.00000  Uiso   1.00
O498   O     0.24172   0.25000   0.80012   0.00000  Uiso   1.00
C499   C     0.25394   0.11875   0.70834   0.00000  Uiso   1.00
C500   C     0.29304   0.13238   0.75214   0.00000  Uiso   1.00
H501   H     0.32551   0.15036   0.73948   0.00000  Uiso   1.00
H502   H     0.27505   0.15439   0.77753   0.00000  Uiso   1.00
H503   H     0.30866   0.10254   0.77199   0.00000  Uiso   1.00
H504   H     0.27508   0.09890   0.68368   0.00000  Uiso   1.00
H505   H     0.24056   0.14823   0.68700   0.00000  Uiso   1.00
C506   C     0.24003   0.38277   0.82796   0.00000  Uiso   1.00
C507   C     0.21662   0.37595   0.87503   0.00000  Uiso   1.00
H508   H     0.18211   0.35445   0.86856   0.00000  Uiso   1.00
H509   H     0.24558   0.36005   0.90242   0.00000  Uiso   1.00
H510   H     0.20462   0.40775   0.89059   0.00000  Uiso   1.00
H511   H     0.25136   0.35019   0.81359   0.00000  Uiso   1.00
H512   H     0.27724   0.40061   0.83628   0.00000  Uiso   1.00
C513   C     0.24167   0.02015   0.69487   0.00000  Uiso   1.00
H514   H     0.26142   0.49142   0.71154   0.00000  Uiso   1.00
O515   O     0.24595   0.02835   0.65263   0.00000  Uiso   1.00
C516   C     0.23858   0.48247   0.82409   0.00000  Uiso   1.00
H517   H     0.25324   0.01360   0.81273   0.00000  Uiso   1.00
O518   O     0.24974   0.47236   0.86664   0.00000  Uiso   1.00
C519   C     0.50200   0.16501   0.74975   0.00000  Uiso   1.00
C520   C     0.50174   0.33511   0.75080   0.00000  Uiso   1.00
C521   C     0.54181   0.23271   0.55879   0.00000  Uiso   1.00
C522   C     0.45596   0.23794   0.94051   0.00000  Uiso   1.00
C523   C     0.54078   0.23254   0.60949   0.00000  Uiso   1.00
C524   C     0.45688   0.23761   0.88979   0.00000  Uiso   1.00
C525   C     0.45926   0.26754   0.59956   0.00000  Uiso   1.00
C526   C     0.54324   0.26220   0.90141   0.00000  Uiso   1.00
C527   C     0.45831   0.26749   0.54859   0.00000  Uiso   1.00
C528   C     0.54420   0.26212   0.95238   0.00000  Uiso   1.00
C529   C     0.50008   0.25013   0.52730   0.00000  Uiso   1.00
C530   C     0.50007   0.25011   0.97284   0.00000  Uiso   1.00
C531   C     0.40121   0.25004   0.73755   0.00000  Uiso   1.00
C532   C     0.59878   0.25029   0.76245   0.00000  Uiso   1.00
C533   C     0.34595   0.25014   0.73067   0.00000  Uiso   1.00
C534   C     0.65403   0.25054   0.76935   0.00000  Uiso   1.00
C535   C     0.46979   0.04774   0.77152   0.00000  Uiso   1.00
C536   C     0.47424   0.45194   0.71459   0.00000  Uiso   1.00
C537   C     0.46943   0.09354   0.77174   0.00000  Uiso   1.00
C538   C     0.47391   0.40622   0.71552   0.00000  Uiso   1.00
C539   C     0.50499   0.11673   0.74864   0.00000  Uiso   1.00
C540   C     0.50438   0.38361   0.75262   0.00000  Uiso   1.00
C541   C     0.54216   0.09374   0.72463   0.00000  Uiso   1.00
C542   C     0.53662   0.40740   0.79001   0.00000  Uiso   1.00
C543   C     0.54016   0.04678   0.72205   0.00000  Uiso   1.00
C544   C     0.53728   0.45454   0.78845   0.00000  Uiso   1.00
C545   C     0.50483   0.02440   0.74712   0.00000  Uiso   1.00
C546   C     0.50557   0.47601   0.75036   0.00000  Uiso   1.00
Cu547  Cu    0.50000   0.24999   0.79822   0.00000  Uiso   1.00
Cu548  Cu    0.50000   0.25000   0.70179   0.00000  Uiso   1.00
H549   H     0.65930   0.24975   0.69356   0.00000  Uiso   1.00
H550   H     0.34064   0.25088   0.80645   0.00000  Uiso   1.00
H551   H     0.44268   0.03029   0.79052   0.00000  Uiso   1.00
H552   H     0.45015   0.46879   0.68558   0.00000  Uiso   1.00
H553   H     0.44131   0.11108   0.79021   0.00000  Uiso   1.00
H554   H     0.44922   0.38829   0.68718   0.00000  Uiso   1.00
H555   H     0.57470   0.21855   0.54426   0.00000  Uiso   1.00
H556   H     0.42114   0.22789   0.95436   0.00000  Uiso   1.00
H557   H     0.57289   0.21826   0.63284   0.00000  Uiso   1.00
H558   H     0.42276   0.22715   0.86598   0.00000  Uiso   1.00
H559   H     0.42716   0.28180   0.61515   0.00000  Uiso   1.00
H560   H     0.57741   0.27239   0.88676   0.00000  Uiso   1.00
H561   H     0.42544   0.28168   0.52604   0.00000  Uiso   1.00
H562   H     0.57906   0.27217   0.97561   0.00000  Uiso   1.00
N563   N     0.50000   0.25001   0.62935   0.00000  Uiso   1.00
N564   N     0.50000   0.24999   0.87066   0.00000  Uiso   1.00
O565   O     0.50000   0.18572   0.79072   0.00000  Uiso   1.00
O566   O     0.50000   0.31427   0.70929   0.00000  Uiso   1.00
O567   O     0.50000   0.18573   0.70928   0.00000  Uiso   1.00
O568   O     0.50000   0.31427   0.79072   0.00000  Uiso   1.00
O569   O     0.42495   0.24999   0.78132   0.00000  Uiso   1.00
O570   O     0.57505   0.25000   0.71868   0.00000  Uiso   1.00
O571   O     0.42495   0.25000   0.69989   0.00000  Uiso   1.00
O572   O     0.57505   0.25000   0.80012   0.00000  Uiso   1.00
C573   C     0.58727   0.11875   0.70834   0.00000  Uiso   1.00
C574   C     0.62637   0.13238   0.75214   0.00000  Uiso   1.00
H575   H     0.65885   0.15036   0.73948   0.00000  Uiso   1.00
H576   H     0.60838   0.15439   0.77753   0.00000  Uiso   1.00
H577   H     0.64199   0.10254   0.77199   0.00000  Uiso   1.00
H578   H     0.60841   0.09890   0.68368   0.00000  Uiso   1.00
H579   H     0.57390   0.14823   0.68700   0.00000  Uiso   1.00
C580   C     0.57336   0.38277   0.82796   0.00000  Uiso   1.00
C581   C     0.54995   0.37595   0.87503   0.00000  Uiso   1.00
H582   H     0.51544   0.35445   0.86856   0.00000  Uiso   1.00
H583   H     0.57891   0.36005   0.90242   0.00000  Uiso   1.00
H584   H     0.53796   0.40775   0.89059   0.00000  Uiso   1.00
H585   H     0.58470   0.35019   0.81359   0.00000  Uiso   1.00
H586   H     0.61058   0.40061   0.83628   0.00000  Uiso   1.00
C587   C     0.57501   0.02015   0.69487   0.00000  Uiso   1.00
H588   H     0.59475   0.49142   0.71154   0.00000  Uiso   1.00
O589   O     0.57928   0.02835   0.65263   0.00000  Uiso   1.00
C590   C     0.57191   0.48247   0.82409   0.00000  Uiso   1.00
H591   H     0.58658   0.01360   0.81273   0.00000  Uiso   1.00
O592   O     0.58307   0.47236   0.86664   0.00000  Uiso   1.00
C593   C     0.83534   0.16501   0.74975   0.00000  Uiso   1.00
C594   C     0.83507   0.33511   0.75080   0.00000  Uiso   1.00
C595   C     0.87514   0.23271   0.55879   0.00000  Uiso   1.00
C596   C     0.78929   0.23794   0.94051   0.00000  Uiso   1.00
C597   C     0.87411   0.23254   0.60949   0.00000  Uiso   1.00
C598   C     0.79022   0.23761   0.88979   0.00000  Uiso   1.00
C599   C     0.79260   0.26754   0.59956   0.00000  Uiso   1.00
C600   C     0.87657   0.26220   0.90141   0.00000  Uiso   1.00
C601   C     0.79165   0.26749   0.54859   0.00000  Uiso   1.00
C602   C     0.87753   0.26212   0.95238   0.00000  Uiso   1.00
C603   C     0.83342   0.25013   0.52730   0.00000  Uiso   1.00
C604   C     0.83341   0.25011   0.97284   0.00000  Uiso   1.00
C605   C     0.73455   0.25004   0.73755   0.00000  Uiso   1.00
C606   C     0.93211   0.25029   0.76245   0.00000  Uiso   1.00
C607   C     0.67928   0.25014   0.73067   0.00000  Uiso   1.00
C608   C     0.98736   0.25054   0.76935   0.00000  Uiso   1.00
C609   C     0.80313   0.04774   0.77152   0.00000  Uiso   1.00
C610   C     0.80757   0.45194   0.71459   0.00000  Uiso   1.00
C611   C     0.80277   0.09354   0.77174   0.00000  Uiso   1.00
C612   C     0.80724   0.40622   0.71552   0.00000  Uiso   1.00
C613   C     0.83832   0.11673   0.74864   0.00000  Uiso   1.00
C614   C     0.83772   0.38361   0.75262   0.00000  Uiso   1.00
C615   C     0.87550   0.09374   0.72463   0.00000  Uiso   1.00
C616   C     0.86995   0.40740   0.79001   0.00000  Uiso   1.00
C617   C     0.87349   0.04678   0.72205   0.00000  Uiso   1.00
C618   C     0.87062   0.45454   0.78845   0.00000  Uiso   1.00
C619   C     0.83817   0.02440   0.74712   0.00000  Uiso   1.00
C620   C     0.83891   0.47601   0.75036   0.00000  Uiso   1.00
Cu621  Cu    0.83333   0.24999   0.79822   0.00000  Uiso   1.00
Cu622  Cu    0.83333   0.25000   0.70179   0.00000  Uiso   1.00
H623   H     0.99264   0.24975   0.69356   0.00000  Uiso   1.00
H624   H     0.67397   0.25088   0.80645   0.00000  Uiso   1.00
H625   H     0.77601   0.03029   0.79052   0.00000  Uiso   1.00
H626   H     0.78348   0.46879   0.68558   0.00000  Uiso   1.00
H627   H     0.77464   0.11108   0.79021   0.00000  Uiso   1.00
H628   H     0.78255   0.38829   0.68718   0.00000  Uiso   1.00
H629   H     0.90803   0.21855   0.54426   0.00000  Uiso   1.00
H630   H     0.75448   0.22789   0.95436   0.00000  Uiso   1.00
H631   H     0.90622   0.21826   0.63284   0.00000  Uiso   1.00
H632   H     0.75609   0.22715   0.86598   0.00000  Uiso   1.00
H633   H     0.76049   0.28180   0.61515   0.00000  Uiso   1.00
H634   H     0.91074   0.27239   0.88676   0.00000  Uiso   1.00
H635   H     0.75878   0.28168   0.52604   0.00000  Uiso   1.00
H636   H     0.91239   0.27217   0.97561   0.00000  Uiso   1.00
N637   N     0.83333   0.25001   0.62935   0.00000  Uiso   1.00
N638   N     0.83333   0.24999   0.87066   0.00000  Uiso   1.00
O639   O     0.83334   0.18572   0.79072   0.00000  Uiso   1.00
O640   O     0.83333   0.31427   0.70929   0.00000  Uiso   1.00
O641   O     0.83334   0.18573   0.70928   0.00000  Uiso   1.00
O642   O     0.83333   0.31427   0.79072   0.00000  Uiso   1.00
O643   O     0.75828   0.24999   0.78132   0.00000  Uiso   1.00
O644   O     0.90839   0.25000   0.71868   0.00000  Uiso   1.00
O645   O     0.75828   0.25000   0.69989   0.00000  Uiso   1.00
O646   O     0.90839   0.25000   0.80012   0.00000  Uiso   1.00
C647   C     0.92060   0.11875   0.70834   0.00000  Uiso   1.00
C648   C     0.95971   0.13238   0.75214   0.00000  Uiso   1.00
H649   H     0.99218   0.15036   0.73948   0.00000  Uiso   1.00
H650   H     0.94172   0.15439   0.77753   0.00000  Uiso   1.00
H651   H     0.97533   0.10254   0.77199   0.00000  Uiso   1.00
H652   H     0.94175   0.09890   0.68368   0.00000  Uiso   1.00
H653   H     0.90723   0.14823   0.68700   0.00000  Uiso   1.00
C654   C     0.90669   0.38277   0.82796   0.00000  Uiso   1.00
C655   C     0.88329   0.37595   0.87503   0.00000  Uiso   1.00
H656   H     0.84878   0.35445   0.86856   0.00000  Uiso   1.00
H657   H     0.91225   0.36005   0.90242   0.00000  Uiso   1.00
H658   H     0.87129   0.40775   0.89059   0.00000  Uiso   1.00
H659   H     0.91803   0.35019   0.81359   0.00000  Uiso   1.00
H660   H     0.94391   0.40061   0.83628   0.00000  Uiso   1.00
C661   C     0.90834   0.02015   0.69487   0.00000  Uiso   1.00
H662   H     0.92809   0.49142   0.71154   0.00000  Uiso   1.00
O663   O     0.91262   0.02835   0.65263   0.00000  Uiso   1.00
C664   C     0.90525   0.48247   0.82409   0.00000  Uiso   1.00
H665   H     0.91991   0.01360   0.81273   0.00000  Uiso   1.00
O666   O     0.91641   0.47236   0.86664   0.00000  Uiso   1.00
C667   C     0.16867   0.66501   0.74975   0.00000  Uiso   1.00
C668   C     0.16840   0.83511   0.75080   0.00000  Uiso   1.00
C669   C     0.20848   0.73271   0.55879   0.00000  Uiso   1.00
C670   C     0.12262   0.73794   0.94051   0.00000  Uiso   1.00
C671   C     0.20745   0.73254   0.60949   0.00000  Uiso   1.00
C672   C     0.12355   0.73761   0.88979   0.00000  Uiso   1.00
C673   C     0.12593   0.76754   0.59956   0.00000  Uiso   1.00
C674   C     0.20990   0.76220   0.90141   0.00000  Uiso   1.00
C675   C     0.12498   0.76749   0.54859   0.00000  Uiso   1.00
C676   C     0.21087   0.76212   0.95238   0.00000  Uiso   1.00
C677   C     0.16675   0.75013   0.52730   0.00000  Uiso   1.00
C678   C     0.16674   0.75011   0.97284   0.00000  Uiso   1.00
C679   C     0.06788   0.75004   0.73755   0.00000  Uiso   1.00
C680   C     0.26544   0.75029   0.76245   0.00000  Uiso   1.00
C681   C     0.01262   0.75014   0.73067   0.00000  Uiso   1.00
C682   C     0.32069   0.75054   0.76935   0.00000  Uiso   1.00
C683   C     0.13646   0.54774   0.77152   0.00000  Uiso   1.00
C684   C     0.14091   0.95194   0.71459   0.00000  Uiso   1.00
C685   C     0.13610   0.59354   0.77174   0.00000  Uiso   1.00
C686   C     0.14057   0.90622   0.71552   0.00000  Uiso   1.00
C687   C     0.17166   0.61673   0.74864   0.00000  Uiso   1.00
C688   C     0.17105   0.88361   0.75262   0.00000  Uiso   1.00
C689   C     0.20883   0.59374   0.72463   0.00000  Uiso   1.00
C690   C     0.20329   0.90740   0.79001   0.00000  Uiso   1.00
C691   C     0.20683   0.54678   0.72205   0.00000  Uiso   1.00
C692   C     0.20395   0.95454   0.78845   0.00000  Uiso   1.00
C693   C     0.17150   0.52440   0.74712   0.00000  Uiso   1.00
C694   C     0.17224   0.97601   0.75036   0.00000  Uiso   1.00
Cu695  Cu    0.16667   0.74999   0.79822   0.00000  Uiso   1.00
Cu696  Cu    0.16667   0.75000   0.70179   0.00000  Uiso   1.00
H697   H     0.32597   0.74975   0.69356   0.00000  Uiso   1.00
H698   H     0.00731   0.75088   0.80645   0.00000  Uiso   1.00
H699   H     0.10935   0.53029   0.79052   0.00000  Uiso   1.00
H700   H     0.11681   0.96879   0.68558   0.00000  Uiso   1.00
H701   H     0.10797   0.61108   0.79021   0.00000  Uiso   1.00
H702   H     0.11589   0.88829   0.68718   0.00000  Uiso   1.00
H703   H     0.24137   0.71855   0.54426   0.00000  Uiso   1.00
H704   H     0.08781   0.72789   0.95436   0.00000  Uiso   1.00
H705   H     0.23955   0.71826   0.63284   0.00000  Uiso   1.00
H706   H     0.08943   0.72715   0.86598   0.00000  Uiso   1.00
H707   H     0.09383   0.78180   0.61515   0.00000  Uiso   1.00
H708   H     0.24408   0.77239   0.88676   0.00000  Uiso   1.00
H709   H     0.09211   0.78168   0.52604   0.00000  Uiso   1.00
H710   H     0.24572   0.77217   0.97561   0.00000  Uiso   1.00
N711   N     0.16667   0.75001   0.62935   0.00000  Uiso   1.00
N712   N     0.16667   0.74999   0.87066   0.00000  Uiso   1.00
O713   O     0.16667   0.68572   0.79072   0.00000  Uiso   1.00
O714   O     0.16666   0.81427   0.70929   0.00000  Uiso   1.00
O715   O     0.16667   0.68573   0.70928   0.00000  Uiso   1.00
O716   O     0.16666   0.81427   0.79072   0.00000  Uiso   1.00
O717   O     0.09161   0.74999   0.78132   0.00000  Uiso   1.00
O718   O     0.24172   0.75000   0.71868   0.00000  Uiso   1.00
O719   O     0.09161   0.75000   0.69989   0.00000  Uiso   1.00
O720   O     0.24172   0.75000   0.80012   0.00000  Uiso   1.00
C721   C     0.25394   0.61875   0.70834   0.00000  Uiso   1.00
C722   C     0.29304   0.63238   0.75214   0.00000  Uiso   1.00
H723   H     0.32551   0.65036   0.73948   0.00000  Uiso   1.00
H724   H     0.27505   0.65439   0.77753   0.00000  Uiso   1.00
H725   H     0.30866   0.60254   0.77199   0.00000  Uiso   1.00
H726   H     0.27508   0.59890   0.68368   0.00000  Uiso   1.00
H727   H     0.24056   0.64823   0.68700   0.00000  Uiso   1.00
C728   C     0.24003   0.88277   0.82796   0.00000  Uiso   1.00
C729   C     0.21662   0.87595   0.87503   0.00000  Uiso   1.00
H730   H     0.18211   0.85445   0.86856   0.00000  Uiso   1.00
H731   H     0.24558   0.86005   0.90242   0.00000  Uiso   1.00
H732   H     0.20462   0.90775   0.89059   0.00000  Uiso   1.00
H733   H     0.25136   0.85019   0.81359   0.00000  Uiso   1.00
H734   H     0.27724   0.90061   0.83628   0.00000  Uiso   1.00
C735   C     0.24167   0.52015   0.69487   0.00000  Uiso   1.00
H736   H     0.26142   0.99142   0.71154   0.00000  Uiso   1.00
O737   O     0.24595   0.52835   0.65263   0.00000  Uiso   1.00
C738   C     0.23858   0.98247   0.82409   0.00000  Uiso   1.00
H739   H     0.25324   0.51360   0.81273   0.00000  Uiso   1.00
O740   O     0.24974   0.97236   0.86664   0.00000  Uiso   1.00
C741   C     0.50200   0.66501   0.74975   0.00000  Uiso   1.00
C742   C     0.50174   0.83511   0.75080   0.00000  Uiso   1.00
C743   C     0.54181   0.73271   0.55879   0.00000  Uiso   1.00
C744   C     0.45596   0.73794   0.94051   0.00000  Uiso   1.00
C745   C     0.54078   0.73254   0.60949   0.00000  Uiso   1.00
C746   C     0.45688   0.73761   0.88979   0.00000  Uiso   1.00
C747   C     0.45926   0.76754   0.59956   0.00000  Uiso   1.00
C748   C     0.54324   0.76220   0.90141   0.00000  Uiso   1.00
C749   C     0.45831   0.76749   0.54859   0.00000  Uiso   1.00
C750   C     0.54420   0.76212   0.95238   0.00000  Uiso   1.00
C751   C     0.50008   0.75013   0.52730   0.00000  Uiso   1.00
C752   C     0.50007   0.75011   0.97284   0.00000  Uiso   1.00
C753   C     0.40121   0.75004   0.73755   0.00000  Uiso   1.00
C754   C     0.59878   0.75029   0.76245   0.00000  Uiso   1.00
C755   C     0.34595   0.75014   0.73067   0.00000  Uiso   1.00
C756   C     0.65403   0.75054   0.76935   0.00000  Uiso   1.00
C757   C     0.46979   0.54774   0.77152   0.00000  Uiso   1.00
C758   C     0.47424   0.95194   0.71459   0.00000  Uiso   1.00
C759   C     0.46943   0.59354   0.77174   0.00000  Uiso   1.00
C760   C     0.47391   0.90622   0.71552   0.00000  Uiso   1.00
C761   C     0.50499   0.61673   0.74864   0.00000  Uiso   1.00
C762   C     0.50438   0.88361   0.75262   0.00000  Uiso   1.00
C763   C     0.54216   0.59374   0.72463   0.00000  Uiso   1.00
C764   C     0.53662   0.90740   0.79001   0.00000  Uiso   1.00
C765   C     0.54016   0.54678   0.72205   0.00000  Uiso   1.00
C766   C     0.53728   0.95454   0.78845   0.00000  Uiso   1.00
C767   C     0.50483   0.52440   0.74712   0.00000  Uiso   1.00
C768   C     0.50557   0.97601   0.75036   0.00000  Uiso   1.00
Cu769  Cu    0.50000   0.74999   0.79822   0.00000  Uiso   1.00
Cu770  Cu    0.50000   0.75000   0.70179   0.00000  Uiso   1.00
H771   H     0.65930   0.74975   0.69356   0.00000  Uiso   1.00
H772   H     0.34064   0.75088   0.80645   0.00000  Uiso   1.00
H773   H     0.44268   0.53029   0.79052   0.00000  Uiso   1.00
H774   H     0.45015   0.96879   0.68558   0.00000  Uiso   1.00
H775   H     0.44131   0.61108   0.79021   0.00000  Uiso   1.00
H776   H     0.44922   0.88829   0.68718   0.00000  Uiso   1.00
H777   H     0.57470   0.71855   0.54426   0.00000  Uiso   1.00
H778   H     0.42114   0.72789   0.95436   0.00000  Uiso   1.00
H779   H     0.57289   0.71826   0.63284   0.00000  Uiso   1.00
H780   H     0.42276   0.72715   0.86598   0.00000  Uiso   1.00
H781   H     0.42716   0.78180   0.61515   0.00000  Uiso   1.00
H782   H     0.57741   0.77239   0.88676   0.00000  Uiso   1.00
H783   H     0.42544   0.78168   0.52604   0.00000  Uiso   1.00
H784   H     0.57906   0.77217   0.97561   0.00000  Uiso   1.00
N785   N     0.50000   0.75001   0.62935   0.00000  Uiso   1.00
N786   N     0.50000   0.74999   0.87066   0.00000  Uiso   1.00
O787   O     0.50000   0.68572   0.79072   0.00000  Uiso   1.00
O788   O     0.50000   0.81427   0.70929   0.00000  Uiso   1.00
O789   O     0.50000   0.68573   0.70928   0.00000  Uiso   1.00
O790   O     0.50000   0.81427   0.79072   0.00000  Uiso   1.00
O791   O     0.42495   0.74999   0.78132   0.00000  Uiso   1.00
O792   O     0.57505   0.75000   0.71868   0.00000  Uiso   1.00
O793   O     0.42495   0.75000   0.69989   0.00000  Uiso   1.00
O794   O     0.57505   0.75000   0.80012   0.00000  Uiso   1.00
C795   C     0.58727   0.61875   0.70834   0.00000  Uiso   1.00
C796   C     0.62637   0.63238   0.75214   0.00000  Uiso   1.00
H797   H     0.65885   0.65036   0.73948   0.00000  Uiso   1.00
H798   H     0.60838   0.65439   0.77753   0.00000  Uiso   1.00
H799   H     0.64199   0.60254   0.77199   0.00000  Uiso   1.00
H800   H     0.60841   0.59890   0.68368   0.00000  Uiso   1.00
H801   H     0.57390   0.64823   0.68700   0.00000  Uiso   1.00
C802   C     0.57336   0.88277   0.82796   0.00000  Uiso   1.00
C803   C     0.54995   0.87595   0.87503   0.00000  Uiso   1.00
H804   H     0.51544   0.85445   0.86856   0.00000  Uiso   1.00
H805   H     0.57891   0.86005   0.90242   0.00000  Uiso   1.00
H806   H     0.53796   0.90775   0.89059   0.00000  Uiso   1.00
H807   H     0.58470   0.85019   0.81359   0.00000  Uiso   1.00
H808   H     0.61058   0.90061   0.83628   0.00000  Uiso   1.00
C809   C     0.57501   0.52015   0.69487   0.00000  Uiso   1.00
H810   H     0.59475   0.99142   0.71154   0.00000  Uiso   1.00
O811   O     0.57928   0.52835   0.65263   0.00000  Uiso   1.00
C812   C     0.57191   0.98247   0.82409   0.00000  Uiso   1.00
H813   H     0.58658   0.51360   0.81273   0.00000  Uiso   1.00
O814   O     0.58307   0.97236   0.86664   0.00000  Uiso   1.00
C815   C     0.83534   0.66501   0.74975   0.00000  Uiso   1.00
C816   C     0.83507   0.83511   0.75080   0.00000  Uiso   1.00
C817   C     0.87514   0.73271   0.55879   0.00000  Uiso   1.00
C818   C     0.78929   0.73794   0.94051   0.00000  Uiso   1.00
C819   C     0.87411   0.73254   0.60949   0.00000  Uiso   1.00
C820   C     0.79022   0.73761   0.88979   0.00000  Uiso   1.00
C821   C     0.79260   0.76754   0.59956   0.00000  Uiso   1.00
C822   C     0.87657   0.76220   0.90141   0.00000  Uiso   1.00
C823   C     0.79165   0.76749   0.54859   0.00000  Uiso   1.00
C824   C     0.87753   0.76212   0.95238   0.00000  Uiso   1.00
C825   C     0.83342   0.75013   0.52730   0.00000  Uiso   1.00
C826   C     0.83341   0.75011   0.97284   0.00000  Uiso   1.00
C827   C     0.73455   0.75004   0.73755   0.00000  Uiso   1.00
C828   C     0.93211   0.75029   0.76245   0.00000  Uiso   1.00
C829   C     0.67928   0.75014   0.73067   0.00000  Uiso   1.00
C830   C     0.98736   0.75054   0.76935   0.00000  Uiso   1.00
C831   C     0.80313   0.54774   0.77152   0.00000  Uiso   1.00
C832   C     0.80757   0.95194   0.71459   0.00000  Uiso   1.00
C833   C     0.80277   0.59354   0.77174   0.00000  Uiso   1.00
C834   C     0.80724   0.90622   0.71552   0.00000  Uiso   1.00
C835   C     0.83832   0.61673   0.74864   0.00000  Uiso   1.00
C836   C     0.83772   0.88361   0.75262   0.00000  Uiso   1.00
C837   C     0.87550   0.59374   0.72463   0.00000  Uiso   1.00
C838   C     0.86995   0.90740   0.79001   0.00000  Uiso   1.00
C839   C     0.87349   0.54678   0.72205   0.00000  Uiso   1.00
C840   C     0.87062   0.95454   0.78845   0.00000  Uiso   1.00
C841   C     0.83817   0.52440   0.74712   0.00000  Uiso   1.00
C842   C     0.83891   0.97601   0.75036   0.00000  Uiso   1.00
Cu843  Cu    0.83333   0.74999   0.79822   0.00000  Uiso   1.00
Cu844  Cu    0.83333   0.75000   0.70179   0.00000  Uiso   1.00
H845   H     0.99264   0.74975   0.69356   0.00000  Uiso   1.00
H846   H     0.67397   0.75088   0.80645   0.00000  Uiso   1.00
H847   H     0.77601   0.53029   0.79052   0.00000  Uiso   1.00
H848   H     0.78348   0.96879   0.68558   0.00000  Uiso   1.00
H849   H     0.77464   0.61108   0.79021   0.00000  Uiso   1.00
H850   H     0.78255   0.88829   0.68718   0.00000  Uiso   1.00
H851   H     0.90803   0.71855   0.54426   0.00000  Uiso   1.00
H852   H     0.75448   0.72789   0.95436   0.00000  Uiso   1.00
H853   H     0.90622   0.71826   0.63284   0.00000  Uiso   1.00
H854   H     0.75609   0.72715   0.86598   0.00000  Uiso   1.00
H855   H     0.76049   0.78180   0.61515   0.00000  Uiso   1.00
H856   H     0.91074   0.77239   0.88676   0.00000  Uiso   1.00
H857   H     0.75878   0.78168   0.52604   0.00000  Uiso   1.00
H858   H     0.91239   0.77217   0.97561   0.00000  Uiso   1.00
N859   N     0.83333   0.75001   0.62935   0.00000  Uiso   1.00
N860   N     0.83333   0.74999   0.87066   0.00000  Uiso   1.00
O861   O     0.83334   0.68572   0.79072   0.00000  Uiso   1.00
O862   O     0.83333   0.81427   0.70929   0.00000  Uiso   1.00
O863   O     0.83334   0.68573   0.70928   0.00000  Uiso   1.00
O864   O     0.83333   0.81427   0.79072   0.00000  Uiso   1.00
O865   O     0.75828   0.74999   0.78132   0.00000  Uiso   1.00
O866   O     0.90839   0.75000   0.71868   0.00000  Uiso   1.00
O867   O     0.75828   0.75000   0.69989   0.00000  Uiso   1.00
O868   O     0.90839   0.75000   0.80012   0.00000  Uiso   1.00
C869   C     0.92060   0.61875   0.70834   0.00000  Uiso   1.00
C870   C     0.95971   0.63238   0.75214   0.00000  Uiso   1.00
H871   H     0.99218   0.65036   0.73948   0.00000  Uiso   1.00
H872   H     0.94172   0.65439   0.77753   0.00000  Uiso   1.00
H873   H     0.97533   0.60254   0.77199   0.00000  Uiso   1.00
H874   H     0.94175   0.59890   0.68368   0.00000  Uiso   1.00
H875   H     0.90723   0.64823   0.68700   0.00000  Uiso   1.00
C876   C     0.90669   0.88277   0.82796   0.00000  Uiso   1.00
C877   C     0.88329   0.87595   0.87503   0.00000  Uiso   1.00
H878   H     0.84878   0.85445   0.86856   0.00000  Uiso   1.00
H879   H     0.91225   0.86005   0.90242   0.00000  Uiso   1.00
H880   H     0.87129   0.90775   0.89059   0.00000  Uiso   1.00
H881   H     0.91803   0.85019   0.81359   0.00000  Uiso   1.00
H882   H     0.94391   0.90061   0.83628   0.00000  Uiso   1.00
C883   C     0.90834   0.52015   0.69487   0.00000  Uiso   1.00
H884   H     0.92809   0.99142   0.71154   0.00000  Uiso   1.00
O885   O     0.91262   0.52835   0.65263   0.00000  Uiso   1.00
C886   C     0.90525   0.98247   0.82409   0.00000  Uiso   1.00
H887   H     0.91991   0.51360   0.81273   0.00000  Uiso   1.00
O888   O     0.91641   0.97236   0.86664   0.00000  Uiso   1.00
loop_
_geom_bond_atom_site_label_1
_geom_bond_atom_site_label_2
_geom_bond_distance
_geom_bond_site_symmetry_2
_ccdc_geom_bond_type
C1     C21     1.460   .     S
C1     O49     1.288   .     A
C1     O47     1.293   .     A
C2     C22     1.466   .     S
C2     O50     1.288   .     A
C2     O48     1.296   .     A
C3     C11     1.407   .     A
C3     C5      1.409   .     A
C3     H37     1.083   .     S
C4     C6      1.409   .     A
C4     C12     1.406   .     A
C4     H38     1.083   .     S
C5     H39     1.081   .     S
C5     N45     1.366   .     A
C6     N46     1.368   .     A
C6     H40     1.080   .     S
C7     C9      1.409   .     A
C7     N45     1.366   .     A
C7     H41     1.081   .     S
C8     H42     1.080   .     S
C8     C10     1.409   .     A
C8     N46     1.367   .     A
C9     C11     1.407   .     A
C9     H43     1.083   .     S
C10    C12     1.407   .     A
C10    H44     1.083   .     S
C11    C456    1.509   1_554 S
C12    C455    1.509   .     S
C13    C15     1.433   .     S
C13    O53     1.286   .     A
C13    O51     1.284   .     A
C14    O52     1.284   .     A
C14    C16     1.433   .     S
C14    O54     1.286   .     A
C15    C164    1.334   1_455 S
C15    H179    1.087   1_455 S
C16    C89     1.334   .     S
C16    H106    1.087   .     S
C17    H33     1.084   .     S
C17    C27     1.394   .     A
C17    C19     1.383   .     A
C18    H34     1.084   .     S
C18    C28     1.392   .     A
C18    C20     1.381   .     A
C19    H35     1.084   .     S
C19    C21     1.397   .     A
C20    C22     1.398   .     A
C20    H36     1.084   .     S
C21    C23     1.424   .     A
C22    C24     1.428   .     A
C23    C55     1.528   .     S
C23    C25     1.419   .     A
C24    C62     1.525   .     S
C24    C26     1.425   .     A
C25    C69     1.486   .     S
C25    C27     1.412   .     A
C26    C72     1.496   .     S
C26    C28     1.415   .     A
C27    C250    1.465   1_545 S
C28    C249    1.465   .     S
Cu29   Cu30    2.672   .     S
Cu29   N46     2.007   .     S
Cu29   O47     1.948   .     S
Cu29   O50     1.955   .     S
Cu29   O51     1.956   .     S
Cu29   O54     1.958   .     S
Cu30   N45     2.007   .     S
Cu30   O49     1.955   .     S
Cu30   O53     1.958   .     S
Cu30   O48     1.948   .     S
Cu30   O52     1.956   .     S
H31    C89     1.087   .     S
H32    C164    1.087   1_455 S
C55    C56     1.527   .     S
C55    H60     1.104   .     S
C55    H61     1.106   .     S
C56    H59     1.111   .     S
C56    H58     1.109   .     S
C56    H57     1.110   .     S
C62    H68     1.109   .     S
C62    C63     1.533   .     S
C62    H67     1.109   .     S
C63    H65     1.110   .     S
C63    H66     1.107   .     S
C63    H64     1.107   .     S
C69    O71     1.221   .     D
C69    H292    1.085   1_545 S
H70    C291    1.085   .     S
C72    O74     1.219   .     D
C72    H295    1.085   .     S
H73    C294    1.085   1_545 S
C75    C95     1.460   .     S
C75    O123    1.288   .     A
C75    O121    1.293   .     A
C76    C96     1.466   .     S
C76    O124    1.288   .     A
C76    O122    1.296   .     A
C77    C85     1.407   .     A
C77    C79     1.409   .     A
C77    H111    1.083   .     S
C78    C80     1.409   .     A
C78    C86     1.406   .     A
C78    H112    1.083   .     S
C79    H113    1.081   .     S
C79    N119    1.366   .     A
C80    N120    1.368   .     A
C80    H114    1.080   .     S
C81    C83     1.409   .     A
C81    N119    1.366   .     A
C81    H115    1.081   .     S
C82    H116    1.080   .     S
C82    C84     1.409   .     A
C82    N120    1.367   .     A
C83    C85     1.407   .     A
C83    H117    1.083   .     S
C84    C86     1.407   .     A
C84    H118    1.083   .     S
C85    C530    1.509   1_554 S
C86    C529    1.509   .     S
C87    C89     1.433   .     S
C87    O127    1.286   .     A
C87    O125    1.284   .     A
C88    O126    1.284   .     A
C88    C90     1.433   .     S
C88    O128    1.286   .     A
C90    C163    1.334   .     S
C90    H180    1.087   .     S
C91    H107    1.084   .     S
C91    C101    1.394   .     A
C91    C93     1.383   .     A
C92    H108    1.084   .     S
C92    C102    1.392   .     A
C92    C94     1.381   .     A
C93    H109    1.084   .     S
C93    C95     1.397   .     A
C94    C96     1.398   .     A
C94    H110    1.084   .     S
C95    C97     1.424   .     A
C96    C98     1.428   .     A
C97    C129    1.528   .     S
C97    C99     1.419   .     A
C98    C136    1.525   .     S
C98    C100    1.425   .     A
C99    C143    1.486   .     S
C99    C101    1.412   .     A
C100   C146    1.496   .     S
C100   C102    1.415   .     A
C101   C324    1.465   1_545 S
C102   C323    1.465   .     S
Cu103  Cu104   2.672   .     S
Cu103  N120    2.007   .     S
Cu103  O121    1.948   .     S
Cu103  O124    1.955   .     S
Cu103  O125    1.956   .     S
Cu103  O128    1.958   .     S
Cu104  N119    2.007   .     S
Cu104  O123    1.955   .     S
Cu104  O127    1.958   .     S
Cu104  O122    1.948   .     S
Cu104  O126    1.956   .     S
H105   C163    1.087   .     S
C129   C130    1.527   .     S
C129   H134    1.104   .     S
C129   H135    1.106   .     S
C130   H133    1.111   .     S
C130   H132    1.109   .     S
C130   H131    1.110   .     S
C136   H142    1.109   .     S
C136   C137    1.533   .     S
C136   H141    1.109   .     S
C137   H139    1.110   .     S
C137   H140    1.107   .     S
C137   H138    1.107   .     S
C143   O145    1.221   .     D
C143   H366    1.085   1_545 S
H144   C365    1.085   .     S
C146   O148    1.219   .     D
C146   H369    1.085   .     S
H147   C368    1.085   1_545 S
C149   C169    1.460   .     S
C149   O197    1.288   .     A
C149   O195    1.293   .     A
C150   C170    1.466   .     S
C150   O198    1.288   .     A
C150   O196    1.296   .     A
C151   C159    1.407   .     A
C151   C153    1.409   .     A
C151   H185    1.083   .     S
C152   C154    1.409   .     A
C152   C160    1.406   .     A
C152   H186    1.083   .     S
C153   H187    1.081   .     S
C153   N193    1.366   .     A
C154   N194    1.368   .     A
C154   H188    1.080   .     S
C155   C157    1.409   .     A
C155   N193    1.366   .     A
C155   H189    1.081   .     S
C156   H190    1.080   .     S
C156   C158    1.409   .     A
C156   N194    1.367   .     A
C157   C159    1.407   .     A
C157   H191    1.083   .     S
C158   C160    1.407   .     A
C158   H192    1.083   .     S
C159   C604    1.509   1_554 S
C160   C603    1.509   .     S
C161   C163    1.433   .     S
C161   O201    1.286   .     A
C161   O199    1.284   .     A
C162   O200    1.284   .     A
C162   C164    1.433   .     S
C162   O202    1.286   .     A
C164   C15     1.334   1_655 S
C164   H32     1.087   1_655 S
C165   H181    1.084   .     S
C165   C175    1.394   .     A
C165   C167    1.383   .     A
C166   H182    1.084   .     S
C166   C176    1.392   .     A
C166   C168    1.381   .     A
C167   H183    1.084   .     S
C167   C169    1.397   .     A
C168   C170    1.398   .     A
C168   H184    1.084   .     S
C169   C171    1.424   .     A
C170   C172    1.428   .     A
C171   C203    1.528   .     S
C171   C173    1.419   .     A
C172   C210    1.525   .     S
C172   C174    1.425   .     A
C173   C217    1.486   .     S
C173   C175    1.412   .     A
C174   C220    1.496   .     S
C174   C176    1.415   .     A
C175   C398    1.465   1_545 S
C176   C397    1.465   .     S
Cu177  Cu178   2.672   .     S
Cu177  N194    2.007   .     S
Cu177  O195    1.948   .     S
Cu177  O198    1.955   .     S
Cu177  O199    1.956   .     S
Cu177  O202    1.958   .     S
Cu178  N193    2.007   .     S
Cu178  O197    1.955   .     S
Cu178  O201    1.958   .     S
Cu178  O196    1.948   .     S
Cu178  O200    1.956   .     S
H179   C15     1.087   1_655 S
C203   C204    1.527   .     S
C203   H208    1.104   .     S
C203   H209    1.106   .     S
C204   H207    1.111   .     S
C204   H206    1.109   .     S
C204   H205    1.110   .     S
C210   H216    1.109   .     S
C210   C211    1.533   .     S
C210   H215    1.109   .     S
C211   H213    1.110   .     S
C211   H214    1.107   .     S
C211   H212    1.107   .     S
C217   O219    1.221   .     D
C217   H440    1.085   1_545 S
H218   C439    1.085   .     S
C220   O222    1.219   .     D
C220   H443    1.085   .     S
H221   C442    1.085   1_545 S
C223   C243    1.460   .     S
C223   O271    1.288   .     A
C223   O269    1.293   .     A
C224   C244    1.466   .     S
C224   O272    1.288   .     A
C224   O270    1.296   .     A
C225   C233    1.407   .     A
C225   C227    1.409   .     A
C225   H259    1.083   .     S
C226   C228    1.409   .     A
C226   C234    1.406   .     A
C226   H260    1.083   .     S
C227   H261    1.081   .     S
C227   N267    1.366   .     A
C228   N268    1.368   .     A
C228   H262    1.080   .     S
C229   C231    1.409   .     A
C229   N267    1.366   .     A
C229   H263    1.081   .     S
C230   H264    1.080   .     S
C230   C232    1.409   .     A
C230   N268    1.367   .     A
C231   C233    1.407   .     A
C231   H265    1.083   .     S
C232   C234    1.407   .     A
C232   H266    1.083   .     S
C233   C678    1.509   1_554 S
C234   C677    1.509   .     S
C235   C237    1.433   .     S
C235   O275    1.286   .     A
C235   O273    1.284   .     A
C236   O274    1.284   .     A
C236   C238    1.433   .     S
C236   O276    1.286   .     A
C237   C386    1.334   1_455 S
C237   H401    1.087   1_455 S
C238   C311    1.334   .     S
C238   H328    1.087   .     S
C239   H255    1.084   .     S
C239   C249    1.394   .     A
C239   C241    1.383   .     A
C240   H256    1.084   .     S
C240   C250    1.392   .     A
C240   C242    1.381   .     A
C241   H257    1.084   .     S
C241   C243    1.397   .     A
C242   C244    1.398   .     A
C242   H258    1.084   .     S
C243   C245    1.424   .     A
C244   C246    1.428   .     A
C245   C277    1.528   .     S
C245   C247    1.419   .     A
C246   C284    1.525   .     S
C246   C248    1.425   .     A
C247   C291    1.486   .     S
C247   C249    1.412   .     A
C248   C294    1.496   .     S
C248   C250    1.415   .     A
C250   C27     1.465   1_565 S
Cu251  Cu252   2.672   .     S
Cu251  N268    2.007   .     S
Cu251  O269    1.948   .     S
Cu251  O272    1.955   .     S
Cu251  O273    1.956   .     S
Cu251  O276    1.958   .     S
Cu252  N267    2.007   .     S
Cu252  O271    1.955   .     S
Cu252  O275    1.958   .     S
Cu252  O270    1.948   .     S
Cu252  O274    1.956   .     S
H253   C311    1.087   .     S
H254   C386    1.087   1_455 S
C277   C278    1.527   .     S
C277   H282    1.104   .     S
C277   H283    1.106   .     S
C278   H281    1.111   .     S
C278   H280    1.109   .     S
C278   H279    1.110   .     S
C284   H290    1.109   .     S
C284   C285    1.533   .     S
C284   H289    1.109   .     S
C285   H287    1.110   .     S
C285   H288    1.107   .     S
C285   H286    1.107   .     S
C291   O293    1.221   .     D
H292   C69     1.085   1_565 S
C294   O296    1.219   .     D
C294   H73     1.085   1_565 S
C297   C317    1.460   .     S
C297   O345    1.288   .     A
C297   O343    1.293   .     A
C298   C318    1.466   .     S
C298   O346    1.288   .     A
C298   O344    1.296   .     A
C299   C307    1.407   .     A
C299   C301    1.409   .     A
C299   H333    1.083   .     S
C300   C302    1.409   .     A
C300   C308    1.406   .     A
C300   H334    1.083   .     S
C301   H335    1.081   .     S
C301   N341    1.366   .     A
C302   N342    1.368   .     A
C302   H336    1.080   .     S
C303   C305    1.409   .     A
C303   N341    1.366   .     A
C303   H337    1.081   .     S
C304   H338    1.080   .     S
C304   C306    1.409   .     A
C304   N342    1.367   .     A
C305   C307    1.407   .     A
C305   H339    1.083   .     S
C306   C308    1.407   .     A
C306   H340    1.083   .     S
C307   C752    1.509   1_554 S
C308   C751    1.509   .     S
C309   C311    1.433   .     S
C309   O349    1.286   .     A
C309   O347    1.284   .     A
C310   O348    1.284   .     A
C310   C312    1.433   .     S
C310   O350    1.286   .     A
C312   C385    1.334   .     S
C312   H402    1.087   .     S
C313   H329    1.084   .     S
C313   C323    1.394   .     A
C313   C315    1.383   .     A
C314   H330    1.084   .     S
C314   C324    1.392   .     A
C314   C316    1.381   .     A
C315   H331    1.084   .     S
C315   C317    1.397   .     A
C316   C318    1.398   .     A
C316   H332    1.084   .     S
C317   C319    1.424   .     A
C318   C320    1.428   .     A
C319   C351    1.528   .     S
C319   C321    1.419   .     A
C320   C358    1.525   .     S
C320   C322    1.425   .     A
C321   C365    1.486   .     S
C321   C323    1.412   .     A
C322   C368    1.496   .     S
C322   C324    1.415   .     A
C324   C101    1.465   1_565 S
Cu325  Cu326   2.672   .     S
Cu325  N342    2.007   .     S
Cu325  O343    1.948   .     S
Cu325  O346    1.955   .     S
Cu325  O347    1.956   .     S
Cu325  O350    1.958   .     S
Cu326  N341    2.007   .     S
Cu326  O345    1.955   .     S
Cu326  O349    1.958   .     S
Cu326  O344    1.948   .     S
Cu326  O348    1.956   .     S
H327   C385    1.087   .     S
C351   C352    1.527   .     S
C351   H356    1.104   .     S
C351   H357    1.106   .     S
C352   H355    1.111   .     S
C352   H354    1.109   .     S
C352   H353    1.110   .     S
C358   H364    1.109   .     S
C358   C359    1.533   .     S
C358   H363    1.109   .     S
C359   H361    1.110   .     S
C359   H362    1.107   .     S
C359   H360    1.107   .     S
C365   O367    1.221   .     D
H366   C143    1.085   1_565 S
C368   O370    1.219   .     D
C368   H147    1.085   1_565 S
C371   C391    1.460   .     S
C371   O419    1.288   .     A
C371   O417    1.293   .     A
C372   C392    1.466   .     S
C372   O420    1.288   .     A
C372   O418    1.296   .     A
C373   C381    1.407   .     A
C373   C375    1.409   .     A
C373   H407    1.083   .     S
C374   C376    1.409   .     A
C374   C382    1.406   .     A
C374   H408    1.083   .     S
C375   H409    1.081   .     S
C375   N415    1.366   .     A
C376   N416    1.368   .     A
C376   H410    1.080   .     S
C377   C379    1.409   .     A
C377   N415    1.366   .     A
C377   H411    1.081   .     S
C378   H412    1.080   .     S
C378   C380    1.409   .     A
C378   N416    1.367   .     A
C379   C381    1.407   .     A
C379   H413    1.083   .     S
C380   C382    1.407   .     A
C380   H414    1.083   .     S
C381   C826    1.509   1_554 S
C382   C825    1.509   .     S
C383   C385    1.433   .     S
C383   O423    1.286   .     A
C383   O421    1.284   .     A
C384   O422    1.284   .     A
C384   C386    1.433   .     S
C384   O424    1.286   .     A
C386   C237    1.334   1_655 S
C386   H254    1.087   1_655 S
C387   H403    1.084   .     S
C387   C397    1.394   .     A
C387   C389    1.383   .     A
C388   H404    1.084   .     S
C388   C398    1.392   .     A
C388   C390    1.381   .     A
C389   H405    1.084   .     S
C389   C391    1.397   .     A
C390   C392    1.398   .     A
C390   H406    1.084   .     S
C391   C393    1.424   .     A
C392   C394    1.428   .     A
C393   C425    1.528   .     S
C393   C395    1.419   .     A
C394   C432    1.525   .     S
C394   C396    1.425   .     A
C395   C439    1.486   .     S
C395   C397    1.412   .     A
C396   C442    1.496   .     S
C396   C398    1.415   .     A
C398   C175    1.465   1_565 S
Cu399  Cu400   2.672   .     S
Cu399  N416    2.007   .     S
Cu399  O417    1.948   .     S
Cu399  O420    1.955   .     S
Cu399  O421    1.956   .     S
Cu399  O424    1.958   .     S
Cu400  N415    2.007   .     S
Cu400  O419    1.955   .     S
Cu400  O423    1.958   .     S
Cu400  O418    1.948   .     S
Cu400  O422    1.956   .     S
H401   C237    1.087   1_655 S
C425   C426    1.527   .     S
C425   H430    1.104   .     S
C425   H431    1.106   .     S
C426   H429    1.111   .     S
C426   H428    1.109   .     S
C426   H427    1.110   .     S
C432   H438    1.109   .     S
C432   C433    1.533   .     S
C432   H437    1.109   .     S
C433   H435    1.110   .     S
C433   H436    1.107   .     S
C433   H434    1.107   .     S
C439   O441    1.221   .     D
H440   C217    1.085   1_565 S
C442   O444    1.219   .     D
C442   H221    1.085   1_565 S
C445   C465    1.460   .     S
C445   O493    1.288   .     A
C445   O491    1.293   .     A
C446   C466    1.466   .     S
C446   O494    1.288   .     A
C446   O492    1.296   .     A
C447   C455    1.407   .     A
C447   C449    1.409   .     A
C447   H481    1.083   .     S
C448   C450    1.409   .     A
C448   C456    1.406   .     A
C448   H482    1.083   .     S
C449   H483    1.081   .     S
C449   N489    1.366   .     A
C450   N490    1.368   .     A
C450   H484    1.080   .     S
C451   C453    1.409   .     A
C451   N489    1.366   .     A
C451   H485    1.081   .     S
C452   H486    1.080   .     S
C452   C454    1.409   .     A
C452   N490    1.367   .     A
C453   C455    1.407   .     A
C453   H487    1.083   .     S
C454   C456    1.407   .     A
C454   H488    1.083   .     S
C456   C11     1.509   1_556 S
C457   C459    1.433   .     S
C457   O497    1.286   .     A
C457   O495    1.284   .     A
C458   O496    1.284   .     A
C458   C460    1.433   .     S
C458   O498    1.286   .     A
C459   C608    1.334   1_455 S
C459   H623    1.087   1_455 S
C460   C533    1.334   .     S
C460   H550    1.087   .     S
C461   H477    1.084   .     S
C461   C471    1.394   .     A
C461   C463    1.383   .     A
C462   H478    1.084   .     S
C462   C472    1.392   .     A
C462   C464    1.381   .     A
C463   H479    1.084   .     S
C463   C465    1.397   .     A
C464   C466    1.398   .     A
C464   H480    1.084   .     S
C465   C467    1.424   .     A
C466   C468    1.428   .     A
C467   C499    1.528   .     S
C467   C469    1.419   .     A
C468   C506    1.525   .     S
C468   C470    1.425   .     A
C469   C513    1.486   .     S
C469   C471    1.412   .     A
C470   C516    1.496   .     S
C470   C472    1.415   .     A
C471   C694    1.465   1_545 S
C472   C693    1.465   .     S
Cu473  Cu474   2.672   .     S
Cu473  N490    2.007   .     S
Cu473  O491    1.948   .     S
Cu473  O494    1.955   .     S
Cu473  O495    1.956   .     S
Cu473  O498    1.958   .     S
Cu474  N489    2.007   .     S
Cu474  O493    1.955   .     S
Cu474  O497    1.958   .     S
Cu474  O492    1.948   .     S
Cu474  O496    1.956   .     S
H475   C533    1.087   .     S
H476   C608    1.087   1_455 S
C499   C500    1.527   .     S
C499   H504    1.104   .     S
C499   H505    1.106   .     S
C500   H503    1.111   .     S
C500   H502    1.109   .     S
C500   H501    1.110   .     S
C506   H512    1.109   .     S
C506   C507    1.533   .     S
C506   H511    1.109   .     S
C507   H509    1.110   .     S
C507   H510    1.107   .     S
C507   H508    1.107   .     S
C513   O515    1.221   .     D
C513   H736    1.085   1_545 S
H514   C735    1.085   .     S
C516   O518    1.219   .     D
C516   H739    1.085   .     S
H517   C738    1.085   1_545 S
C519   C539    1.460   .     S
C519   O567    1.288   .     A
C519   O565    1.293   .     A
C520   C540    1.466   .     S
C520   O568    1.288   .     A
C520   O566    1.296   .     A
C521   C529    1.407   .     A
C521   C523    1.409   .     A
C521   H555    1.083   .     S
C522   C524    1.409   .     A
C522   C530    1.406   .     A
C522   H556    1.083   .     S
C523   H557    1.081   .     S
C523   N563    1.366   .     A
C524   N564    1.368   .     A
C524   H558    1.080   .     S
C525   C527    1.409   .     A
C525   N563    1.366   .     A
C525   H559    1.081   .     S
C526   H560    1.080   .     S
C526   C528    1.409   .     A
C526   N564    1.367   .     A
C527   C529    1.407   .     A
C527   H561    1.083   .     S
C528   C530    1.407   .     A
C528   H562    1.083   .     S
C530   C85     1.509   1_556 S
C531   C533    1.433   .     S
C531   O571    1.286   .     A
C531   O569    1.284   .     A
C532   O570    1.284   .     A
C532   C534    1.433   .     S
C532   O572    1.286   .     A
C534   C607    1.334   .     S
C534   H624    1.087   .     S
C535   H551    1.084   .     S
C535   C545    1.394   .     A
C535   C537    1.383   .     A
C536   H552    1.084   .     S
C536   C546    1.392   .     A
C536   C538    1.381   .     A
C537   H553    1.084   .     S
C537   C539    1.397   .     A
C538   C540    1.398   .     A
C538   H554    1.084   .     S
C539   C541    1.424   .     A
C540   C542    1.428   .     A
C541   C573    1.528   .     S
C541   C543    1.419   .     A
C542   C580    1.525   .     S
C542   C544    1.425   .     A
C543   C587    1.486   .     S
C543   C545    1.412   .     A
C544   C590    1.496   .     S
C544   C546    1.415   .     A
C545   C768    1.465   1_545 S
C546   C767    1.465   .     S
Cu547  Cu548   2.672   .     S
Cu547  N564    2.007   .     S
Cu547  O565    1.948   .     S
Cu547  O568    1.955   .     S
Cu547  O569    1.956   .     S
Cu547  O572    1.958   .     S
Cu548  N563    2.007   .     S
Cu548  O567    1.955   .     S
Cu548  O571    1.958   .     S
Cu548  O566    1.948   .     S
Cu548  O570    1.956   .     S
H549   C607    1.087   .     S
C573   C574    1.527   .     S
C573   H578    1.104   .     S
C573   H579    1.106   .     S
C574   H577    1.111   .     S
C574   H576    1.109   .     S
C574   H575    1.110   .     S
C580   H586    1.109   .     S
C580   C581    1.533   .     S
C580   H585    1.109   .     S
C581   H583    1.110   .     S
C581   H584    1.107   .     S
C581   H582    1.107   .     S
C587   O589    1.221   .     D
C587   H810    1.085   1_545 S
H588   C809    1.085   .     S
C590   O592    1.219   .     D
C590   H813    1.085   .     S
H591   C812    1.085   1_545 S
C593   C613    1.460   .     S
C593   O641    1.288   .     A
C593   O639    1.293   .     A
C594   C614    1.466   .     S
C594   O642    1.288   .     A
C594   O640    1.296   .     A
C595   C603    1.407   .     A
C595   C597    1.409   .     A
C595   H629    1.083   .     S
C596   C598    1.409   .     A
C596   C604    1.406   .     A
C596   H630    1.083   .     S
C597   H631    1.081   .     S
C597   N637    1.366   .     A
C598   N638    1.368   .     A
C598   H632    1.080   .     S
C599   C601    1.409   .     A
C599   N637    1.366   .     A
C599   H633    1.081   .     S
C600   H634    1.080   .     S
C600   C602    1.409   .     A
C600   N638    1.367   .     A
C601   C603    1.407   .     A
C601   H635    1.083   .     S
C602   C604    1.407   .     A
C602   H636    1.083   .     S
C604   C159    1.509   1_556 S
C605   C607    1.433   .     S
C605   O645    1.286   .     A
C605   O643    1.284   .     A
C606   O644    1.284   .     A
C606   C608    1.433   .     S
C606   O646    1.286   .     A
C608   C459    1.334   1_655 S
C608   H476    1.087   1_655 S
C609   H625    1.084   .     S
C609   C619    1.394   .     A
C609   C611    1.383   .     A
C610   H626    1.084   .     S
C610   C620    1.392   .     A
C610   C612    1.381   .     A
C611   H627    1.084   .     S
C611   C613    1.397   .     A
C612   C614    1.398   .     A
C612   H628    1.084   .     S
C613   C615    1.424   .     A
C614   C616    1.428   .     A
C615   C647    1.528   .     S
C615   C617    1.419   .     A
C616   C654    1.525   .     S
C616   C618    1.425   .     A
C617   C661    1.486   .     S
C617   C619    1.412   .     A
C618   C664    1.496   .     S
C618   C620    1.415   .     A
C619   C842    1.465   1_545 S
C620   C841    1.465   .     S
Cu621  Cu622   2.672   .     S
Cu621  N638    2.007   .     S
Cu621  O639    1.948   .     S
Cu621  O642    1.955   .     S
Cu621  O643    1.956   .     S
Cu621  O646    1.958   .     S
Cu622  N637    2.007   .     S
Cu622  O641    1.955   .     S
Cu622  O645    1.958   .     S
Cu622  O640    1.948   .     S
Cu622  O644    1.956   .     S
H623   C459    1.087   1_655 S
C647   C648    1.527   .     S
C647   H652    1.104   .     S
C647   H653    1.106   .     S
C648   H651    1.111   .     S
C648   H650    1.109   .     S
C648   H649    1.110   .     S
C654   H660    1.109   .     S
C654   C655    1.533   .     S
C654   H659    1.109   .     S
C655   H657    1.110   .     S
C655   H658    1.107   .     S
C655   H656    1.107   .     S
C661   O663    1.221   .     D
C661   H884    1.085   1_545 S
H662   C883    1.085   .     S
C664   O666    1.219   .     D
C664   H887    1.085   .     S
H665   C886    1.085   1_545 S
C667   C687    1.460   .     S
C667   O715    1.288   .     A
C667   O713    1.293   .     A
C668   C688    1.466   .     S
C668   O716    1.288   .     A
C668   O714    1.296   .     A
C669   C677    1.407   .     A
C669   C671    1.409   .     A
C669   H703    1.083   .     S
C670   C672    1.409   .     A
C670   C678    1.406   .     A
C670   H704    1.083   .     S
C671   H705    1.081   .     S
C671   N711    1.366   .     A
C672   N712    1.368   .     A
C672   H706    1.080   .     S
C673   C675    1.409   .     A
C673   N711    1.366   .     A
C673   H707    1.081   .     S
C674   H708    1.080   .     S
C674   C676    1.409   .     A
C674   N712    1.367   .     A
C675   C677    1.407   .     A
C675   H709    1.083   .     S
C676   C678    1.407   .     A
C676   H710    1.083   .     S
C678   C233    1.509   1_556 S
C679   C681    1.433   .     S
C679   O719    1.286   .     A
C679   O717    1.284   .     A
C680   O718    1.284   .     A
C680   C682    1.433   .     S
C680   O720    1.286   .     A
C681   C830    1.334   1_455 S
C681   H845    1.087   1_455 S
C682   C755    1.334   .     S
C682   H772    1.087   .     S
C683   H699    1.084   .     S
C683   C693    1.394   .     A
C683   C685    1.383   .     A
C684   H700    1.084   .     S
C684   C694    1.392   .     A
C684   C686    1.381   .     A
C685   H701    1.084   .     S
C685   C687    1.397   .     A
C686   C688    1.398   .     A
C686   H702    1.084   .     S
C687   C689    1.424   .     A
C688   C690    1.428   .     A
C689   C721    1.528   .     S
C689   C691    1.419   .     A
C690   C728    1.525   .     S
C690   C692    1.425   .     A
C691   C735    1.486   .     S
C691   C693    1.412   .     A
C692   C738    1.496   .     S
C692   C694    1.415   .     A
C694   C471    1.465   1_565 S
Cu695  Cu696   2.672   .     S
Cu695  N712    2.007   .     S
Cu695  O713    1.948   .     S
Cu695  O716    1.955   .     S
Cu695  O717    1.956   .     S
Cu695  O720    1.958   .     S
Cu696  N711    2.007   .     S
Cu696  O715    1.955   .     S
Cu696  O719    1.958   .     S
Cu696  O714    1.948   .     S
Cu696  O718    1.956   .     S
H697   C755    1.087   .     S
H698   C830    1.087   1_455 S
C721   C722    1.527   .     S
C721   H726    1.104   .     S
C721   H727    1.106   .     S
C722   H725    1.111   .     S
C722   H724    1.109   .     S
C722   H723    1.110   .     S
C728   H734    1.109   .     S
C728   C729    1.533   .     S
C728   H733    1.109   .     S
C729   H731    1.110   .     S
C729   H732    1.107   .     S
C729   H730    1.107   .     S
C735   O737    1.221   .     D
H736   C513    1.085   1_565 S
C738   O740    1.219   .     D
C738   H517    1.085   1_565 S
C741   C761    1.460   .     S
C741   O789    1.288   .     A
C741   O787    1.293   .     A
C742   C762    1.466   .     S
C742   O790    1.288   .     A
C742   O788    1.296   .     A
C743   C751    1.407   .     A
C743   C745    1.409   .     A
C743   H777    1.083   .     S
C744   C746    1.409   .     A
C744   C752    1.406   .     A
C744   H778    1.083   .     S
C745   H779    1.081   .     S
C745   N785    1.366   .     A
C746   N786    1.368   .     A
C746   H780    1.080   .     S
C747   C749    1.409   .     A
C747   N785    1.366   .     A
C747   H781    1.081   .     S
C748   H782    1.080   .     S
C748   C750    1.409   .     A
C748   N786    1.367   .     A
C749   C751    1.407   .     A
C749   H783    1.083   .     S
C750   C752    1.407   .     A
C750   H784    1.083   .     S
C752   C307    1.509   1_556 S
C753   C755    1.433   .     S
C753   O793    1.286   .     A
C753   O791    1.284   .     A
C754   O792    1.284   .     A
C754   C756    1.433   .     S
C754   O794    1.286   .     A
C756   C829    1.334   .     S
C756   H846    1.087   .     S
C757   H773    1.084   .     S
C757   C767    1.394   .     A
C757   C759    1.383   .     A
C758   H774    1.084   .     S
C758   C768    1.392   .     A
C758   C760    1.381   .     A
C759   H775    1.084   .     S
C759   C761    1.397   .     A
C760   C762    1.398   .     A
C760   H776    1.084   .     S
C761   C763    1.424   .     A
C762   C764    1.428   .     A
C763   C795    1.528   .     S
C763   C765    1.419   .     A
C764   C802    1.525   .     S
C764   C766    1.425   .     A
C765   C809    1.486   .     S
C765   C767    1.412   .     A
C766   C812    1.496   .     S
C766   C768    1.415   .     A
C768   C545    1.465   1_565 S
Cu769  Cu770   2.672   .     S
Cu769  N786    2.007   .     S
Cu769  O787    1.948   .     S
Cu769  O790    1.955   .     S
Cu769  O791    1.956   .     S
Cu769  O794    1.958   .     S
Cu770  N785    2.007   .     S
Cu770  O789    1.955   .     S
Cu770  O793    1.958   .     S
Cu770  O788    1.948   .     S
Cu770  O792    1.956   .     S
H771   C829    1.087   .     S
C795   C796    1.527   .     S
C795   H800    1.104   .     S
C795   H801    1.106   .     S
C796   H799    1.111   .     S
C796   H798    1.109   .     S
C796   H797    1.110   .     S
C802   H808    1.109   .     S
C802   C803    1.533   .     S
C802   H807    1.109   .     S
C803   H805    1.110   .     S
C803   H806    1.107   .     S
C803   H804    1.107   .     S
C809   O811    1.221   .     D
H810   C587    1.085   1_565 S
C812   O814    1.219   .     D
C812   H591    1.085   1_565 S
C815   C835    1.460   .     S
C815   O863    1.288   .     A
C815   O861    1.293   .     A
C816   C836    1.466   .     S
C816   O864    1.288   .     A
C816   O862    1.296   .     A
C817   C825    1.407   .     A
C817   C819    1.409   .     A
C817   H851    1.083   .     S
C818   C820    1.409   .     A
C818   C826    1.406   .     A
C818   H852    1.083   .     S
C819   H853    1.081   .     S
C819   N859    1.366   .     A
C820   N860    1.368   .     A
C820   H854    1.080   .     S
C821   C823    1.409   .     A
C821   N859    1.366   .     A
C821   H855    1.081   .     S
C822   H856    1.080   .     S
C822   C824    1.409   .     A
C822   N860    1.367   .     A
C823   C825    1.407   .     A
C823   H857    1.083   .     S
C824   C826    1.407   .     A
C824   H858    1.083   .     S
C826   C381    1.509   1_556 S
C827   C829    1.433   .     S
C827   O867    1.286   .     A
C827   O865    1.284   .     A
C828   O866    1.284   .     A
C828   C830    1.433   .     S
C828   O868    1.286   .     A
C830   C681    1.334   1_655 S
C830   H698    1.087   1_655 S
C831   H847    1.084   .     S
C831   C841    1.394   .     A
C831   C833    1.383   .     A
C832   H848    1.084   .     S
C832   C842    1.392   .     A
C832   C834    1.381   .     A
C833   H849    1.084   .     S
C833   C835    1.397   .     A
C834   C836    1.398   .     A
C834   H850    1.084   .     S
C835   C837    1.424   .     A
C836   C838    1.428   .     A
C837   C869    1.528   .     S
C837   C839    1.419   .     A
C838   C876    1.525   .     S
C838   C840    1.425   .     A
C839   C883    1.486   .     S
C839   C841    1.412   .     A
C840   C886    1.496   .     S
C840   C842    1.415   .     A
C842   C619    1.465   1_565 S
Cu843  Cu844   2.672   .     S
Cu843  N860    2.007   .     S
Cu843  O861    1.948   .     S
Cu843  O864    1.955   .     S
Cu843  O865    1.956   .     S
Cu843  O868    1.958   .     S
Cu844  N859    2.007   .     S
Cu844  O863    1.955   .     S
Cu844  O867    1.958   .     S
Cu844  O862    1.948   .     S
Cu844  O866    1.956   .     S
H845   C681    1.087   1_655 S
C869   C870    1.527   .     S
C869   H874    1.104   .     S
C869   H875    1.106   .     S
C870   H873    1.111   .     S
C870   H872    1.109   .     S
C870   H871    1.110   .     S
C876   H882    1.109   .     S
C876   C877    1.533   .     S
C876   H881    1.109   .     S
C877   H879    1.110   .     S
C877   H880    1.107   .     S
C877   H878    1.107   .     S
C883   O885    1.221   .     D
H884   C661    1.085   1_565 S
C886   O888    1.219   .     D
C886   H665    1.085   1_565 S
