data_str_m2_o10_o18_pcu_sym.8
_audit_creation_date              2020-01-03
_audit_creation_method            'Materials Studio'
_symmetry_space_group_name_H-M    'P1'
_symmetry_Int_Tables_number       1
_symmetry_cell_setting            triclinic
loop_
_symmetry_equiv_pos_as_xyz
  x,y,z
_cell_length_a                    22.3283
_cell_length_b                    25.9833
_cell_length_c                    31.5503
_cell_angle_alpha                 92.4573
_cell_angle_beta                  75.3267
_cell_angle_gamma                 101.8032
loop_
_atom_site_label
_atom_site_type_symbol
_atom_site_fract_x
_atom_site_fract_y
_atom_site_fract_z
_atom_site_U_iso_or_equiv
_atom_site_adp_type
_atom_site_occupancy
C1     C     0.17981   0.26622   0.25283   0.00000  Uiso   1.00
C2     C     0.20546   0.17134   0.16684   0.00000  Uiso   1.00
C3     C     0.10285   0.16227   0.38181   0.00000  Uiso   1.00
C4     C     0.22954   0.17955   0.11909   0.00000  Uiso   1.00
C5     C     0.01941   0.13518   0.44774   0.00000  Uiso   1.00
C6     C     0.30228   0.22600   0.05556   0.00000  Uiso   1.00
C7     C     0.03757   0.15044   0.40325   0.00000  Uiso   1.00
C8     C     0.28813   0.21298   0.09999   0.00000  Uiso   1.00
C9     C     0.14624   0.17252   0.40760   0.00000  Uiso   1.00
C10    C     0.18826   0.15863   0.09282   0.00000  Uiso   1.00
C11    C     0.12731   0.16534   0.45322   0.00000  Uiso   1.00
C12    C     0.15356   0.06721   0.24726   0.00000  Uiso   1.00
C13    C     0.19988   0.17507   0.04906   0.00000  Uiso   1.00
C14    C     0.06462   0.14042   0.47225   0.00000  Uiso   1.00
C15    C     0.25788   0.20989   0.03099   0.00000  Uiso   1.00
C16    C     0.16991   0.18079   0.47997   0.00000  Uiso   1.00
C17    C     0.15453   0.16081   0.02346   0.00000  Uiso   1.00
C18    C     0.33278   0.24146   0.12626   0.00000  Uiso   1.00
C19    C     0.04783   0.20963   0.13047   0.00000  Uiso   1.00
C20    C     0.32085   0.15991   0.38171   0.00000  Uiso   1.00
C21    C     0.33223   0.21849   0.36953   0.00000  Uiso   1.00
C22    C     0.18572   0.00463   0.30685   0.00000  Uiso   1.00
C23    C     0.09318   0.13008   0.04010   0.00000  Uiso   1.00
C24    C     0.13390   0.01618   0.33901   0.00000  Uiso   1.00
C25    C     0.14069   0.03216   0.38072   0.00000  Uiso   1.00
C26    C     0.19897   0.03637   0.39076   0.00000  Uiso   1.00
C27    C     0.25053   0.02447   0.35914   0.00000  Uiso   1.00
C28    C     0.24405   0.00868   0.31732   0.00000  Uiso   1.00
C29    C     0.16081   0.00190   0.18902   0.00000  Uiso   1.00
C30    C     0.11389   0.01125   0.16945   0.00000  Uiso   1.00
C31    C     0.12553   0.01417   0.12384   0.00000  Uiso   1.00
C32    C     0.18266   0.00534   0.09720   0.00000  Uiso   1.00
C33    C     0.22917   0.32856   0.11615   0.00000  Uiso   1.00
C34    C     0.22530   0.21882   0.46514   0.00000  Uiso   1.00
C35    C     0.21870   0.32740   0.16175   0.00000  Uiso   1.00
C36    C     0.04805   0.12266   0.01562   0.00000  Uiso   1.00
C37    C     0.26945   0.23189   0.48960   0.00000  Uiso   1.00
C38    C     0.17855   0.32011   0.26246   0.00000  Uiso   1.00
C39    C     0.15619   0.01387   0.23635   0.00000  Uiso   1.00
C40    C     0.12781   0.16424   0.33339   0.00000  Uiso   1.00
Cu41   Cu    0.10737   0.16108   0.24516   0.00000  Uiso   1.00
Cu42   Cu    0.22596   0.17225   0.25483   0.00000  Uiso   1.00
H43    H     0.00029   0.10219   0.03047   0.00000  Uiso   1.00
H44    H     0.33061   0.12594   0.21833   0.00000  Uiso   1.00
H45    H     0.07261   0.22757   0.15552   0.00000  Uiso   1.00
H46    H     0.02501   0.16829   0.14017   0.00000  Uiso   1.00
H47    H     0.08338   0.21049   0.09874   0.00000  Uiso   1.00
H48    H     0.02513   0.27914   0.10977   0.00000  Uiso   1.00
H49    H     0.30728   0.25300   0.15892   0.00000  Uiso   1.00
H50    H     0.00360   0.24354   0.39826   0.00000  Uiso   1.00
H51    H     0.04306   0.23122   0.34386   0.00000  Uiso   1.00
H52    H     0.29290   0.22670   0.35715   0.00000  Uiso   1.00
H53    H     0.31876   0.13458   0.35277   0.00000  Uiso   1.00
H54    H     0.31196   0.26099   0.47670   0.00000  Uiso   1.00
H55    H     0.27357   0.14873   0.40458   0.00000  Uiso   1.00
H56    H     0.08831   0.01263   0.33181   0.00000  Uiso   1.00
H57    H     0.10073   0.04122   0.40528   0.00000  Uiso   1.00
H58    H     0.20416   0.04886   0.42303   0.00000  Uiso   1.00
H59    H     0.29564   0.02769   0.36698   0.00000  Uiso   1.00
H60    H     0.28456   0.33330   0.29306   0.00000  Uiso   1.00
H61    H     0.06951   0.01891   0.18942   0.00000  Uiso   1.00
H62    H     0.09078   0.02457   0.10911   0.00000  Uiso   1.00
H63    H     0.19150   0.00764   0.06190   0.00000  Uiso   1.00
H64    H     0.27438   0.32393   0.09546   0.00000  Uiso   1.00
H65    H     0.14539   0.13182   0.10825   0.00000  Uiso   1.00
H66    H     0.25716   0.32384   0.17575   0.00000  Uiso   1.00
H67    H     0.19528   0.18492   0.39151   0.00000  Uiso   1.00
H68    H     0.30321   0.12153   0.46376   0.00000  Uiso   1.00
H69    H     0.01316   0.25239   0.04086   0.00000  Uiso   1.00
H70    H     0.07732   0.11364   0.07273   0.00000  Uiso   1.00
H71    H     0.23366   0.24071   0.43521   0.00000  Uiso   1.00
H72    H     0.00328   0.20832   0.28063   0.00000  Uiso   1.00
N73    N     0.31506   0.18068   0.26212   0.00000  Uiso   1.00
N74    N     0.01827   0.15265   0.23788   0.00000  Uiso   1.00
O75    O     0.12815   0.23809   0.24686   0.00000  Uiso   1.00
O76    O     0.20518   0.09524   0.25314   0.00000  Uiso   1.00
O77    O     0.22829   0.24753   0.25502   0.00000  Uiso   1.00
O78    O     0.10504   0.08580   0.24498   0.00000  Uiso   1.00
O79    O     0.08851   0.15930   0.30854   0.00000  Uiso   1.00
O80    O     0.24482   0.17403   0.19145   0.00000  Uiso   1.00
O81    O     0.18866   0.16874   0.31671   0.00000  Uiso   1.00
O82    O     0.14468   0.16460   0.18329   0.00000  Uiso   1.00
C83    C     0.51314   0.26622   0.25283   0.00000  Uiso   1.00
C84    C     0.53880   0.17134   0.16684   0.00000  Uiso   1.00
C85    C     0.43619   0.16227   0.38181   0.00000  Uiso   1.00
C86    C     0.56288   0.17955   0.11909   0.00000  Uiso   1.00
C87    C     0.35274   0.13518   0.44774   0.00000  Uiso   1.00
C88    C     0.63561   0.22600   0.05556   0.00000  Uiso   1.00
C89    C     0.37091   0.15044   0.40325   0.00000  Uiso   1.00
C90    C     0.62146   0.21298   0.09999   0.00000  Uiso   1.00
C91    C     0.47957   0.17252   0.40760   0.00000  Uiso   1.00
C92    C     0.52160   0.15863   0.09282   0.00000  Uiso   1.00
C93    C     0.46065   0.16534   0.45322   0.00000  Uiso   1.00
C94    C     0.48689   0.06721   0.24726   0.00000  Uiso   1.00
C95    C     0.53322   0.17507   0.04906   0.00000  Uiso   1.00
C96    C     0.39796   0.14042   0.47225   0.00000  Uiso   1.00
C97    C     0.59121   0.20989   0.03099   0.00000  Uiso   1.00
C98    C     0.50324   0.18079   0.47997   0.00000  Uiso   1.00
C99    C     0.48786   0.16081   0.02346   0.00000  Uiso   1.00
C100   C     0.66611   0.24146   0.12626   0.00000  Uiso   1.00
C101   C     0.38116   0.20963   0.13047   0.00000  Uiso   1.00
C102   C     0.65419   0.15991   0.38171   0.00000  Uiso   1.00
C103   C     0.66556   0.21849   0.36953   0.00000  Uiso   1.00
C104   C     0.51905   0.00463   0.30685   0.00000  Uiso   1.00
C105   C     0.42652   0.13008   0.04010   0.00000  Uiso   1.00
C106   C     0.46724   0.01618   0.33901   0.00000  Uiso   1.00
C107   C     0.47402   0.03216   0.38072   0.00000  Uiso   1.00
C108   C     0.53230   0.03637   0.39076   0.00000  Uiso   1.00
C109   C     0.58387   0.02447   0.35914   0.00000  Uiso   1.00
C110   C     0.57739   0.00868   0.31732   0.00000  Uiso   1.00
C111   C     0.49415   0.00190   0.18902   0.00000  Uiso   1.00
C112   C     0.44723   0.01125   0.16945   0.00000  Uiso   1.00
C113   C     0.45886   0.01417   0.12384   0.00000  Uiso   1.00
C114   C     0.51600   0.00534   0.09720   0.00000  Uiso   1.00
C115   C     0.56251   0.32856   0.11615   0.00000  Uiso   1.00
C116   C     0.55864   0.21882   0.46514   0.00000  Uiso   1.00
C117   C     0.55204   0.32740   0.16175   0.00000  Uiso   1.00
C118   C     0.38138   0.12266   0.01562   0.00000  Uiso   1.00
C119   C     0.60279   0.23189   0.48960   0.00000  Uiso   1.00
C120   C     0.51188   0.32011   0.26246   0.00000  Uiso   1.00
C121   C     0.48953   0.01387   0.23635   0.00000  Uiso   1.00
C122   C     0.46115   0.16424   0.33339   0.00000  Uiso   1.00
Cu123  Cu    0.44071   0.16108   0.24516   0.00000  Uiso   1.00
Cu124  Cu    0.55929   0.17225   0.25483   0.00000  Uiso   1.00
H125   H     0.33363   0.10219   0.03047   0.00000  Uiso   1.00
H126   H     0.66395   0.12594   0.21833   0.00000  Uiso   1.00
H127   H     0.40594   0.22757   0.15552   0.00000  Uiso   1.00
H128   H     0.35835   0.16829   0.14017   0.00000  Uiso   1.00
H129   H     0.41672   0.21049   0.09874   0.00000  Uiso   1.00
H130   H     0.35846   0.27914   0.10977   0.00000  Uiso   1.00
H131   H     0.64061   0.25300   0.15892   0.00000  Uiso   1.00
H132   H     0.33694   0.24354   0.39826   0.00000  Uiso   1.00
H133   H     0.37639   0.23122   0.34386   0.00000  Uiso   1.00
H134   H     0.62624   0.22670   0.35715   0.00000  Uiso   1.00
H135   H     0.65209   0.13458   0.35277   0.00000  Uiso   1.00
H136   H     0.64530   0.26099   0.47670   0.00000  Uiso   1.00
H137   H     0.60690   0.14873   0.40458   0.00000  Uiso   1.00
H138   H     0.42164   0.01263   0.33181   0.00000  Uiso   1.00
H139   H     0.43406   0.04122   0.40528   0.00000  Uiso   1.00
H140   H     0.53750   0.04886   0.42303   0.00000  Uiso   1.00
H141   H     0.62897   0.02769   0.36698   0.00000  Uiso   1.00
H142   H     0.61789   0.33330   0.29306   0.00000  Uiso   1.00
H143   H     0.40285   0.01891   0.18942   0.00000  Uiso   1.00
H144   H     0.42411   0.02457   0.10911   0.00000  Uiso   1.00
H145   H     0.52484   0.00764   0.06190   0.00000  Uiso   1.00
H146   H     0.60772   0.32393   0.09546   0.00000  Uiso   1.00
H147   H     0.47872   0.13182   0.10825   0.00000  Uiso   1.00
H148   H     0.59050   0.32384   0.17575   0.00000  Uiso   1.00
H149   H     0.52862   0.18492   0.39151   0.00000  Uiso   1.00
H150   H     0.63654   0.12153   0.46376   0.00000  Uiso   1.00
H151   H     0.34649   0.25239   0.04086   0.00000  Uiso   1.00
H152   H     0.41065   0.11364   0.07273   0.00000  Uiso   1.00
H153   H     0.56699   0.24071   0.43521   0.00000  Uiso   1.00
H154   H     0.33661   0.20832   0.28063   0.00000  Uiso   1.00
N155   N     0.64839   0.18068   0.26212   0.00000  Uiso   1.00
N156   N     0.35161   0.15265   0.23788   0.00000  Uiso   1.00
O157   O     0.46148   0.23809   0.24686   0.00000  Uiso   1.00
O158   O     0.53852   0.09524   0.25314   0.00000  Uiso   1.00
O159   O     0.56163   0.24753   0.25502   0.00000  Uiso   1.00
O160   O     0.43837   0.08580   0.24498   0.00000  Uiso   1.00
O161   O     0.42185   0.15930   0.30854   0.00000  Uiso   1.00
O162   O     0.57815   0.17403   0.19145   0.00000  Uiso   1.00
O163   O     0.52199   0.16874   0.31671   0.00000  Uiso   1.00
O164   O     0.47801   0.16460   0.18329   0.00000  Uiso   1.00
C165   C     0.84647   0.26622   0.25283   0.00000  Uiso   1.00
C166   C     0.87213   0.17134   0.16684   0.00000  Uiso   1.00
C167   C     0.76952   0.16227   0.38181   0.00000  Uiso   1.00
C168   C     0.89621   0.17955   0.11909   0.00000  Uiso   1.00
C169   C     0.68607   0.13518   0.44774   0.00000  Uiso   1.00
C170   C     0.96895   0.22600   0.05556   0.00000  Uiso   1.00
C171   C     0.70424   0.15044   0.40325   0.00000  Uiso   1.00
C172   C     0.95479   0.21298   0.09999   0.00000  Uiso   1.00
C173   C     0.81291   0.17252   0.40760   0.00000  Uiso   1.00
C174   C     0.85493   0.15863   0.09282   0.00000  Uiso   1.00
C175   C     0.79398   0.16534   0.45322   0.00000  Uiso   1.00
C176   C     0.82023   0.06721   0.24726   0.00000  Uiso   1.00
C177   C     0.86655   0.17507   0.04906   0.00000  Uiso   1.00
C178   C     0.73129   0.14042   0.47225   0.00000  Uiso   1.00
C179   C     0.92454   0.20989   0.03099   0.00000  Uiso   1.00
C180   C     0.83657   0.18079   0.47997   0.00000  Uiso   1.00
C181   C     0.82119   0.16081   0.02346   0.00000  Uiso   1.00
C182   C     0.99945   0.24146   0.12626   0.00000  Uiso   1.00
C183   C     0.71450   0.20963   0.13047   0.00000  Uiso   1.00
C184   C     0.98752   0.15991   0.38171   0.00000  Uiso   1.00
C185   C     0.99890   0.21849   0.36953   0.00000  Uiso   1.00
C186   C     0.85238   0.00463   0.30685   0.00000  Uiso   1.00
C187   C     0.75985   0.13008   0.04010   0.00000  Uiso   1.00
C188   C     0.80057   0.01618   0.33901   0.00000  Uiso   1.00
C189   C     0.80735   0.03216   0.38072   0.00000  Uiso   1.00
C190   C     0.86563   0.03637   0.39076   0.00000  Uiso   1.00
C191   C     0.91720   0.02447   0.35914   0.00000  Uiso   1.00
C192   C     0.91072   0.00868   0.31732   0.00000  Uiso   1.00
C193   C     0.82748   0.00190   0.18902   0.00000  Uiso   1.00
C194   C     0.78056   0.01125   0.16945   0.00000  Uiso   1.00
C195   C     0.79220   0.01417   0.12384   0.00000  Uiso   1.00
C196   C     0.84933   0.00534   0.09720   0.00000  Uiso   1.00
C197   C     0.89584   0.32856   0.11615   0.00000  Uiso   1.00
C198   C     0.89197   0.21882   0.46514   0.00000  Uiso   1.00
C199   C     0.88537   0.32740   0.16175   0.00000  Uiso   1.00
C200   C     0.71471   0.12266   0.01562   0.00000  Uiso   1.00
C201   C     0.93612   0.23189   0.48960   0.00000  Uiso   1.00
C202   C     0.84521   0.32011   0.26246   0.00000  Uiso   1.00
C203   C     0.82286   0.01387   0.23635   0.00000  Uiso   1.00
C204   C     0.79448   0.16424   0.33339   0.00000  Uiso   1.00
Cu205  Cu    0.77404   0.16108   0.24516   0.00000  Uiso   1.00
Cu206  Cu    0.89263   0.17225   0.25483   0.00000  Uiso   1.00
H207   H     0.66696   0.10219   0.03047   0.00000  Uiso   1.00
H208   H     0.99728   0.12594   0.21833   0.00000  Uiso   1.00
H209   H     0.73928   0.22757   0.15552   0.00000  Uiso   1.00
H210   H     0.69168   0.16829   0.14017   0.00000  Uiso   1.00
H211   H     0.75005   0.21049   0.09874   0.00000  Uiso   1.00
H212   H     0.69179   0.27914   0.10977   0.00000  Uiso   1.00
H213   H     0.97394   0.25300   0.15892   0.00000  Uiso   1.00
H214   H     0.67027   0.24354   0.39826   0.00000  Uiso   1.00
H215   H     0.70972   0.23122   0.34386   0.00000  Uiso   1.00
H216   H     0.95957   0.22670   0.35715   0.00000  Uiso   1.00
H217   H     0.98543   0.13458   0.35277   0.00000  Uiso   1.00
H218   H     0.97863   0.26099   0.47670   0.00000  Uiso   1.00
H219   H     0.94023   0.14873   0.40458   0.00000  Uiso   1.00
H220   H     0.75498   0.01263   0.33181   0.00000  Uiso   1.00
H221   H     0.76740   0.04122   0.40528   0.00000  Uiso   1.00
H222   H     0.87083   0.04886   0.42303   0.00000  Uiso   1.00
H223   H     0.96230   0.02769   0.36698   0.00000  Uiso   1.00
H224   H     0.95122   0.33330   0.29306   0.00000  Uiso   1.00
H225   H     0.73618   0.01891   0.18942   0.00000  Uiso   1.00
H226   H     0.75745   0.02457   0.10911   0.00000  Uiso   1.00
H227   H     0.85817   0.00764   0.06190   0.00000  Uiso   1.00
H228   H     0.94105   0.32393   0.09546   0.00000  Uiso   1.00
H229   H     0.81206   0.13182   0.10825   0.00000  Uiso   1.00
H230   H     0.92383   0.32384   0.17575   0.00000  Uiso   1.00
H231   H     0.86195   0.18492   0.39151   0.00000  Uiso   1.00
H232   H     0.96988   0.12153   0.46376   0.00000  Uiso   1.00
H233   H     0.67982   0.25239   0.04086   0.00000  Uiso   1.00
H234   H     0.74398   0.11364   0.07273   0.00000  Uiso   1.00
H235   H     0.90032   0.24071   0.43521   0.00000  Uiso   1.00
H236   H     0.66995   0.20832   0.28063   0.00000  Uiso   1.00
N237   N     0.98173   0.18068   0.26212   0.00000  Uiso   1.00
N238   N     0.68494   0.15265   0.23788   0.00000  Uiso   1.00
O239   O     0.79482   0.23809   0.24686   0.00000  Uiso   1.00
O240   O     0.87185   0.09524   0.25314   0.00000  Uiso   1.00
O241   O     0.89496   0.24753   0.25502   0.00000  Uiso   1.00
O242   O     0.77171   0.08580   0.24498   0.00000  Uiso   1.00
O243   O     0.75518   0.15930   0.30854   0.00000  Uiso   1.00
O244   O     0.91149   0.17403   0.19145   0.00000  Uiso   1.00
O245   O     0.85532   0.16874   0.31671   0.00000  Uiso   1.00
O246   O     0.81134   0.16460   0.18329   0.00000  Uiso   1.00
C247   C     0.17981   0.59955   0.25283   0.00000  Uiso   1.00
C248   C     0.20546   0.50468   0.16684   0.00000  Uiso   1.00
C249   C     0.10285   0.49560   0.38181   0.00000  Uiso   1.00
C250   C     0.22954   0.51288   0.11909   0.00000  Uiso   1.00
C251   C     0.01941   0.46852   0.44774   0.00000  Uiso   1.00
C252   C     0.30228   0.55933   0.05556   0.00000  Uiso   1.00
C253   C     0.03757   0.48377   0.40325   0.00000  Uiso   1.00
C254   C     0.28813   0.54631   0.09999   0.00000  Uiso   1.00
C255   C     0.14624   0.50586   0.40760   0.00000  Uiso   1.00
C256   C     0.18826   0.49197   0.09282   0.00000  Uiso   1.00
C257   C     0.12731   0.49867   0.45322   0.00000  Uiso   1.00
C258   C     0.15356   0.40055   0.24726   0.00000  Uiso   1.00
C259   C     0.19988   0.50840   0.04906   0.00000  Uiso   1.00
C260   C     0.06462   0.47376   0.47225   0.00000  Uiso   1.00
C261   C     0.25788   0.54322   0.03099   0.00000  Uiso   1.00
C262   C     0.16991   0.51412   0.47997   0.00000  Uiso   1.00
C263   C     0.15453   0.49414   0.02346   0.00000  Uiso   1.00
C264   C     0.33278   0.57479   0.12626   0.00000  Uiso   1.00
C265   C     0.04783   0.54296   0.13047   0.00000  Uiso   1.00
C266   C     0.32085   0.49324   0.38171   0.00000  Uiso   1.00
C267   C     0.33223   0.55182   0.36953   0.00000  Uiso   1.00
C268   C     0.18572   0.33796   0.30685   0.00000  Uiso   1.00
C269   C     0.09318   0.46341   0.04010   0.00000  Uiso   1.00
C270   C     0.13390   0.34952   0.33901   0.00000  Uiso   1.00
C271   C     0.14069   0.36550   0.38072   0.00000  Uiso   1.00
C272   C     0.19897   0.36971   0.39076   0.00000  Uiso   1.00
C273   C     0.25053   0.35780   0.35914   0.00000  Uiso   1.00
C274   C     0.24405   0.34201   0.31732   0.00000  Uiso   1.00
C275   C     0.16081   0.33523   0.18902   0.00000  Uiso   1.00
C276   C     0.11389   0.34458   0.16945   0.00000  Uiso   1.00
C277   C     0.12553   0.34750   0.12384   0.00000  Uiso   1.00
C278   C     0.18266   0.33867   0.09720   0.00000  Uiso   1.00
C279   C     0.22917   0.66189   0.11615   0.00000  Uiso   1.00
C280   C     0.22530   0.55216   0.46514   0.00000  Uiso   1.00
C281   C     0.21870   0.66074   0.16175   0.00000  Uiso   1.00
C282   C     0.04805   0.45600   0.01562   0.00000  Uiso   1.00
C283   C     0.26945   0.56522   0.48960   0.00000  Uiso   1.00
C284   C     0.17855   0.65344   0.26246   0.00000  Uiso   1.00
C285   C     0.15619   0.34720   0.23635   0.00000  Uiso   1.00
C286   C     0.12781   0.49757   0.33339   0.00000  Uiso   1.00
Cu287  Cu    0.10737   0.49441   0.24516   0.00000  Uiso   1.00
Cu288  Cu    0.22596   0.50559   0.25483   0.00000  Uiso   1.00
H289   H     0.00029   0.43552   0.03047   0.00000  Uiso   1.00
H290   H     0.33061   0.45927   0.21833   0.00000  Uiso   1.00
H291   H     0.07261   0.56091   0.15552   0.00000  Uiso   1.00
H292   H     0.02501   0.50162   0.14017   0.00000  Uiso   1.00
H293   H     0.08338   0.54382   0.09874   0.00000  Uiso   1.00
H294   H     0.02513   0.61247   0.10977   0.00000  Uiso   1.00
H295   H     0.30728   0.58633   0.15892   0.00000  Uiso   1.00
H296   H     0.00360   0.57687   0.39826   0.00000  Uiso   1.00
H297   H     0.04306   0.56455   0.34386   0.00000  Uiso   1.00
H298   H     0.29290   0.56003   0.35715   0.00000  Uiso   1.00
H299   H     0.31876   0.46791   0.35277   0.00000  Uiso   1.00
H300   H     0.31196   0.59432   0.47670   0.00000  Uiso   1.00
H301   H     0.27357   0.48206   0.40458   0.00000  Uiso   1.00
H302   H     0.08831   0.34597   0.33181   0.00000  Uiso   1.00
H303   H     0.10073   0.37455   0.40528   0.00000  Uiso   1.00
H304   H     0.20416   0.38219   0.42303   0.00000  Uiso   1.00
H305   H     0.29564   0.36103   0.36698   0.00000  Uiso   1.00
H306   H     0.28456   0.66664   0.29306   0.00000  Uiso   1.00
H307   H     0.06951   0.35224   0.18942   0.00000  Uiso   1.00
H308   H     0.09078   0.35790   0.10911   0.00000  Uiso   1.00
H309   H     0.19150   0.34098   0.06190   0.00000  Uiso   1.00
H310   H     0.27438   0.65726   0.09546   0.00000  Uiso   1.00
H311   H     0.14539   0.46515   0.10825   0.00000  Uiso   1.00
H312   H     0.25716   0.65717   0.17575   0.00000  Uiso   1.00
H313   H     0.19528   0.51825   0.39151   0.00000  Uiso   1.00
H314   H     0.30321   0.45486   0.46376   0.00000  Uiso   1.00
H315   H     0.01316   0.58572   0.04086   0.00000  Uiso   1.00
H316   H     0.07732   0.44697   0.07273   0.00000  Uiso   1.00
H317   H     0.23366   0.57404   0.43521   0.00000  Uiso   1.00
H318   H     0.00328   0.54165   0.28063   0.00000  Uiso   1.00
N319   N     0.31506   0.51401   0.26212   0.00000  Uiso   1.00
N320   N     0.01827   0.48599   0.23788   0.00000  Uiso   1.00
O321   O     0.12815   0.57142   0.24686   0.00000  Uiso   1.00
O322   O     0.20518   0.42858   0.25314   0.00000  Uiso   1.00
O323   O     0.22829   0.58086   0.25502   0.00000  Uiso   1.00
O324   O     0.10504   0.41914   0.24498   0.00000  Uiso   1.00
O325   O     0.08851   0.49263   0.30854   0.00000  Uiso   1.00
O326   O     0.24482   0.50737   0.19145   0.00000  Uiso   1.00
O327   O     0.18866   0.50207   0.31671   0.00000  Uiso   1.00
O328   O     0.14468   0.49793   0.18329   0.00000  Uiso   1.00
C329   C     0.51314   0.59955   0.25283   0.00000  Uiso   1.00
C330   C     0.53880   0.50468   0.16684   0.00000  Uiso   1.00
C331   C     0.43619   0.49560   0.38181   0.00000  Uiso   1.00
C332   C     0.56288   0.51288   0.11909   0.00000  Uiso   1.00
C333   C     0.35274   0.46852   0.44774   0.00000  Uiso   1.00
C334   C     0.63561   0.55933   0.05556   0.00000  Uiso   1.00
C335   C     0.37091   0.48377   0.40325   0.00000  Uiso   1.00
C336   C     0.62146   0.54631   0.09999   0.00000  Uiso   1.00
C337   C     0.47957   0.50586   0.40760   0.00000  Uiso   1.00
C338   C     0.52160   0.49197   0.09282   0.00000  Uiso   1.00
C339   C     0.46065   0.49867   0.45322   0.00000  Uiso   1.00
C340   C     0.48689   0.40055   0.24726   0.00000  Uiso   1.00
C341   C     0.53322   0.50840   0.04906   0.00000  Uiso   1.00
C342   C     0.39796   0.47376   0.47225   0.00000  Uiso   1.00
C343   C     0.59121   0.54322   0.03099   0.00000  Uiso   1.00
C344   C     0.50324   0.51412   0.47997   0.00000  Uiso   1.00
C345   C     0.48786   0.49414   0.02346   0.00000  Uiso   1.00
C346   C     0.66611   0.57479   0.12626   0.00000  Uiso   1.00
C347   C     0.38116   0.54296   0.13047   0.00000  Uiso   1.00
C348   C     0.65419   0.49324   0.38171   0.00000  Uiso   1.00
C349   C     0.66556   0.55182   0.36953   0.00000  Uiso   1.00
C350   C     0.51905   0.33796   0.30685   0.00000  Uiso   1.00
C351   C     0.42652   0.46341   0.04010   0.00000  Uiso   1.00
C352   C     0.46724   0.34952   0.33901   0.00000  Uiso   1.00
C353   C     0.47402   0.36550   0.38072   0.00000  Uiso   1.00
C354   C     0.53230   0.36971   0.39076   0.00000  Uiso   1.00
C355   C     0.58387   0.35780   0.35914   0.00000  Uiso   1.00
C356   C     0.57739   0.34201   0.31732   0.00000  Uiso   1.00
C357   C     0.49415   0.33523   0.18902   0.00000  Uiso   1.00
C358   C     0.44723   0.34458   0.16945   0.00000  Uiso   1.00
C359   C     0.45886   0.34750   0.12384   0.00000  Uiso   1.00
C360   C     0.51600   0.33867   0.09720   0.00000  Uiso   1.00
C361   C     0.56251   0.66189   0.11615   0.00000  Uiso   1.00
C362   C     0.55864   0.55216   0.46514   0.00000  Uiso   1.00
C363   C     0.55204   0.66074   0.16175   0.00000  Uiso   1.00
C364   C     0.38138   0.45600   0.01562   0.00000  Uiso   1.00
C365   C     0.60279   0.56522   0.48960   0.00000  Uiso   1.00
C366   C     0.51188   0.65344   0.26246   0.00000  Uiso   1.00
C367   C     0.48953   0.34720   0.23635   0.00000  Uiso   1.00
C368   C     0.46115   0.49757   0.33339   0.00000  Uiso   1.00
Cu369  Cu    0.44071   0.49441   0.24516   0.00000  Uiso   1.00
Cu370  Cu    0.55929   0.50559   0.25483   0.00000  Uiso   1.00
H371   H     0.33363   0.43552   0.03047   0.00000  Uiso   1.00
H372   H     0.66395   0.45927   0.21833   0.00000  Uiso   1.00
H373   H     0.40594   0.56091   0.15552   0.00000  Uiso   1.00
H374   H     0.35835   0.50162   0.14017   0.00000  Uiso   1.00
H375   H     0.41672   0.54382   0.09874   0.00000  Uiso   1.00
H376   H     0.35846   0.61247   0.10977   0.00000  Uiso   1.00
H377   H     0.64061   0.58633   0.15892   0.00000  Uiso   1.00
H378   H     0.33694   0.57687   0.39826   0.00000  Uiso   1.00
H379   H     0.37639   0.56455   0.34386   0.00000  Uiso   1.00
H380   H     0.62624   0.56003   0.35715   0.00000  Uiso   1.00
H381   H     0.65209   0.46791   0.35277   0.00000  Uiso   1.00
H382   H     0.64530   0.59432   0.47670   0.00000  Uiso   1.00
H383   H     0.60690   0.48206   0.40458   0.00000  Uiso   1.00
H384   H     0.42164   0.34597   0.33181   0.00000  Uiso   1.00
H385   H     0.43406   0.37455   0.40528   0.00000  Uiso   1.00
H386   H     0.53750   0.38219   0.42303   0.00000  Uiso   1.00
H387   H     0.62897   0.36103   0.36698   0.00000  Uiso   1.00
H388   H     0.61789   0.66664   0.29306   0.00000  Uiso   1.00
H389   H     0.40285   0.35224   0.18942   0.00000  Uiso   1.00
H390   H     0.42411   0.35790   0.10911   0.00000  Uiso   1.00
H391   H     0.52484   0.34098   0.06190   0.00000  Uiso   1.00
H392   H     0.60772   0.65726   0.09546   0.00000  Uiso   1.00
H393   H     0.47872   0.46515   0.10825   0.00000  Uiso   1.00
H394   H     0.59050   0.65717   0.17575   0.00000  Uiso   1.00
H395   H     0.52862   0.51825   0.39151   0.00000  Uiso   1.00
H396   H     0.63654   0.45486   0.46376   0.00000  Uiso   1.00
H397   H     0.34649   0.58572   0.04086   0.00000  Uiso   1.00
H398   H     0.41065   0.44697   0.07273   0.00000  Uiso   1.00
H399   H     0.56699   0.57404   0.43521   0.00000  Uiso   1.00
H400   H     0.33661   0.54165   0.28063   0.00000  Uiso   1.00
N401   N     0.64839   0.51401   0.26212   0.00000  Uiso   1.00
N402   N     0.35161   0.48599   0.23788   0.00000  Uiso   1.00
O403   O     0.46148   0.57142   0.24686   0.00000  Uiso   1.00
O404   O     0.53852   0.42858   0.25314   0.00000  Uiso   1.00
O405   O     0.56163   0.58086   0.25502   0.00000  Uiso   1.00
O406   O     0.43837   0.41914   0.24498   0.00000  Uiso   1.00
O407   O     0.42185   0.49263   0.30854   0.00000  Uiso   1.00
O408   O     0.57815   0.50737   0.19145   0.00000  Uiso   1.00
O409   O     0.52199   0.50207   0.31671   0.00000  Uiso   1.00
O410   O     0.47801   0.49793   0.18329   0.00000  Uiso   1.00
C411   C     0.84647   0.59955   0.25283   0.00000  Uiso   1.00
C412   C     0.87213   0.50468   0.16684   0.00000  Uiso   1.00
C413   C     0.76952   0.49560   0.38181   0.00000  Uiso   1.00
C414   C     0.89621   0.51288   0.11909   0.00000  Uiso   1.00
C415   C     0.68607   0.46852   0.44774   0.00000  Uiso   1.00
C416   C     0.96895   0.55933   0.05556   0.00000  Uiso   1.00
C417   C     0.70424   0.48377   0.40325   0.00000  Uiso   1.00
C418   C     0.95479   0.54631   0.09999   0.00000  Uiso   1.00
C419   C     0.81291   0.50586   0.40760   0.00000  Uiso   1.00
C420   C     0.85493   0.49197   0.09282   0.00000  Uiso   1.00
C421   C     0.79398   0.49867   0.45322   0.00000  Uiso   1.00
C422   C     0.82023   0.40055   0.24726   0.00000  Uiso   1.00
C423   C     0.86655   0.50840   0.04906   0.00000  Uiso   1.00
C424   C     0.73129   0.47376   0.47225   0.00000  Uiso   1.00
C425   C     0.92454   0.54322   0.03099   0.00000  Uiso   1.00
C426   C     0.83657   0.51412   0.47997   0.00000  Uiso   1.00
C427   C     0.82119   0.49414   0.02346   0.00000  Uiso   1.00
C428   C     0.99945   0.57479   0.12626   0.00000  Uiso   1.00
C429   C     0.71450   0.54296   0.13047   0.00000  Uiso   1.00
C430   C     0.98752   0.49324   0.38171   0.00000  Uiso   1.00
C431   C     0.99890   0.55182   0.36953   0.00000  Uiso   1.00
C432   C     0.85238   0.33796   0.30685   0.00000  Uiso   1.00
C433   C     0.75985   0.46341   0.04010   0.00000  Uiso   1.00
C434   C     0.80057   0.34952   0.33901   0.00000  Uiso   1.00
C435   C     0.80735   0.36550   0.38072   0.00000  Uiso   1.00
C436   C     0.86563   0.36971   0.39076   0.00000  Uiso   1.00
C437   C     0.91720   0.35780   0.35914   0.00000  Uiso   1.00
C438   C     0.91072   0.34201   0.31732   0.00000  Uiso   1.00
C439   C     0.82748   0.33523   0.18902   0.00000  Uiso   1.00
C440   C     0.78056   0.34458   0.16945   0.00000  Uiso   1.00
C441   C     0.79220   0.34750   0.12384   0.00000  Uiso   1.00
C442   C     0.84933   0.33867   0.09720   0.00000  Uiso   1.00
C443   C     0.89584   0.66189   0.11615   0.00000  Uiso   1.00
C444   C     0.89197   0.55216   0.46514   0.00000  Uiso   1.00
C445   C     0.88537   0.66074   0.16175   0.00000  Uiso   1.00
C446   C     0.71471   0.45600   0.01562   0.00000  Uiso   1.00
C447   C     0.93612   0.56522   0.48960   0.00000  Uiso   1.00
C448   C     0.84521   0.65344   0.26246   0.00000  Uiso   1.00
C449   C     0.82286   0.34720   0.23635   0.00000  Uiso   1.00
C450   C     0.79448   0.49757   0.33339   0.00000  Uiso   1.00
Cu451  Cu    0.77404   0.49441   0.24516   0.00000  Uiso   1.00
Cu452  Cu    0.89263   0.50559   0.25483   0.00000  Uiso   1.00
H453   H     0.66696   0.43552   0.03047   0.00000  Uiso   1.00
H454   H     0.99728   0.45927   0.21833   0.00000  Uiso   1.00
H455   H     0.73928   0.56091   0.15552   0.00000  Uiso   1.00
H456   H     0.69168   0.50162   0.14017   0.00000  Uiso   1.00
H457   H     0.75005   0.54382   0.09874   0.00000  Uiso   1.00
H458   H     0.69179   0.61247   0.10977   0.00000  Uiso   1.00
H459   H     0.97394   0.58633   0.15892   0.00000  Uiso   1.00
H460   H     0.67027   0.57687   0.39826   0.00000  Uiso   1.00
H461   H     0.70972   0.56455   0.34386   0.00000  Uiso   1.00
H462   H     0.95957   0.56003   0.35715   0.00000  Uiso   1.00
H463   H     0.98543   0.46791   0.35277   0.00000  Uiso   1.00
H464   H     0.97863   0.59432   0.47670   0.00000  Uiso   1.00
H465   H     0.94023   0.48206   0.40458   0.00000  Uiso   1.00
H466   H     0.75498   0.34597   0.33181   0.00000  Uiso   1.00
H467   H     0.76740   0.37455   0.40528   0.00000  Uiso   1.00
H468   H     0.87083   0.38219   0.42303   0.00000  Uiso   1.00
H469   H     0.96230   0.36103   0.36698   0.00000  Uiso   1.00
H470   H     0.95122   0.66664   0.29306   0.00000  Uiso   1.00
H471   H     0.73618   0.35224   0.18942   0.00000  Uiso   1.00
H472   H     0.75745   0.35790   0.10911   0.00000  Uiso   1.00
H473   H     0.85817   0.34098   0.06190   0.00000  Uiso   1.00
H474   H     0.94105   0.65726   0.09546   0.00000  Uiso   1.00
H475   H     0.81206   0.46515   0.10825   0.00000  Uiso   1.00
H476   H     0.92383   0.65717   0.17575   0.00000  Uiso   1.00
H477   H     0.86195   0.51825   0.39151   0.00000  Uiso   1.00
H478   H     0.96988   0.45486   0.46376   0.00000  Uiso   1.00
H479   H     0.67982   0.58572   0.04086   0.00000  Uiso   1.00
H480   H     0.74398   0.44697   0.07273   0.00000  Uiso   1.00
H481   H     0.90032   0.57404   0.43521   0.00000  Uiso   1.00
H482   H     0.66995   0.54165   0.28063   0.00000  Uiso   1.00
N483   N     0.98173   0.51401   0.26212   0.00000  Uiso   1.00
N484   N     0.68494   0.48599   0.23788   0.00000  Uiso   1.00
O485   O     0.79482   0.57142   0.24686   0.00000  Uiso   1.00
O486   O     0.87185   0.42858   0.25314   0.00000  Uiso   1.00
O487   O     0.89496   0.58086   0.25502   0.00000  Uiso   1.00
O488   O     0.77171   0.41914   0.24498   0.00000  Uiso   1.00
O489   O     0.75518   0.49263   0.30854   0.00000  Uiso   1.00
O490   O     0.91149   0.50737   0.19145   0.00000  Uiso   1.00
O491   O     0.85532   0.50207   0.31671   0.00000  Uiso   1.00
O492   O     0.81134   0.49793   0.18329   0.00000  Uiso   1.00
C493   C     0.17981   0.93288   0.25283   0.00000  Uiso   1.00
C494   C     0.20546   0.83801   0.16684   0.00000  Uiso   1.00
C495   C     0.10285   0.82894   0.38181   0.00000  Uiso   1.00
C496   C     0.22954   0.84622   0.11909   0.00000  Uiso   1.00
C497   C     0.01941   0.80185   0.44774   0.00000  Uiso   1.00
C498   C     0.30228   0.89266   0.05556   0.00000  Uiso   1.00
C499   C     0.03757   0.81711   0.40325   0.00000  Uiso   1.00
C500   C     0.28813   0.87965   0.09999   0.00000  Uiso   1.00
C501   C     0.14624   0.83919   0.40760   0.00000  Uiso   1.00
C502   C     0.18826   0.82530   0.09282   0.00000  Uiso   1.00
C503   C     0.12731   0.83200   0.45322   0.00000  Uiso   1.00
C504   C     0.15356   0.73388   0.24726   0.00000  Uiso   1.00
C505   C     0.19988   0.84174   0.04906   0.00000  Uiso   1.00
C506   C     0.06462   0.80709   0.47225   0.00000  Uiso   1.00
C507   C     0.25788   0.87656   0.03099   0.00000  Uiso   1.00
C508   C     0.16991   0.84746   0.47997   0.00000  Uiso   1.00
C509   C     0.15453   0.82748   0.02346   0.00000  Uiso   1.00
C510   C     0.33278   0.90812   0.12626   0.00000  Uiso   1.00
C511   C     0.04783   0.87630   0.13047   0.00000  Uiso   1.00
C512   C     0.32085   0.82658   0.38171   0.00000  Uiso   1.00
C513   C     0.33223   0.88516   0.36953   0.00000  Uiso   1.00
C514   C     0.18572   0.67129   0.30685   0.00000  Uiso   1.00
C515   C     0.09318   0.79674   0.04010   0.00000  Uiso   1.00
C516   C     0.13390   0.68285   0.33901   0.00000  Uiso   1.00
C517   C     0.14069   0.69883   0.38072   0.00000  Uiso   1.00
C518   C     0.19897   0.70304   0.39076   0.00000  Uiso   1.00
C519   C     0.25053   0.69113   0.35914   0.00000  Uiso   1.00
C520   C     0.24405   0.67534   0.31732   0.00000  Uiso   1.00
C521   C     0.16081   0.66857   0.18902   0.00000  Uiso   1.00
C522   C     0.11389   0.67792   0.16945   0.00000  Uiso   1.00
C523   C     0.12553   0.68083   0.12384   0.00000  Uiso   1.00
C524   C     0.18266   0.67201   0.09720   0.00000  Uiso   1.00
C525   C     0.22917   0.99522   0.11615   0.00000  Uiso   1.00
C526   C     0.22530   0.88549   0.46514   0.00000  Uiso   1.00
C527   C     0.21870   0.99407   0.16175   0.00000  Uiso   1.00
C528   C     0.04805   0.78933   0.01562   0.00000  Uiso   1.00
C529   C     0.26945   0.89856   0.48960   0.00000  Uiso   1.00
C530   C     0.17855   0.98677   0.26246   0.00000  Uiso   1.00
C531   C     0.15619   0.68054   0.23635   0.00000  Uiso   1.00
C532   C     0.12781   0.83090   0.33339   0.00000  Uiso   1.00
Cu533  Cu    0.10737   0.82775   0.24516   0.00000  Uiso   1.00
Cu534  Cu    0.22596   0.83892   0.25483   0.00000  Uiso   1.00
H535   H     0.00029   0.76886   0.03047   0.00000  Uiso   1.00
H536   H     0.33061   0.79260   0.21833   0.00000  Uiso   1.00
H537   H     0.07261   0.89424   0.15552   0.00000  Uiso   1.00
H538   H     0.02501   0.83496   0.14017   0.00000  Uiso   1.00
H539   H     0.08338   0.87716   0.09874   0.00000  Uiso   1.00
H540   H     0.02513   0.94581   0.10977   0.00000  Uiso   1.00
H541   H     0.30728   0.91967   0.15892   0.00000  Uiso   1.00
H542   H     0.00360   0.91021   0.39826   0.00000  Uiso   1.00
H543   H     0.04306   0.89788   0.34386   0.00000  Uiso   1.00
H544   H     0.29290   0.89337   0.35715   0.00000  Uiso   1.00
H545   H     0.31876   0.80125   0.35277   0.00000  Uiso   1.00
H546   H     0.31196   0.92765   0.47670   0.00000  Uiso   1.00
H547   H     0.27357   0.81540   0.40458   0.00000  Uiso   1.00
H548   H     0.08831   0.67930   0.33181   0.00000  Uiso   1.00
H549   H     0.10073   0.70789   0.40528   0.00000  Uiso   1.00
H550   H     0.20416   0.71552   0.42303   0.00000  Uiso   1.00
H551   H     0.29564   0.69436   0.36698   0.00000  Uiso   1.00
H552   H     0.28456   0.99997   0.29306   0.00000  Uiso   1.00
H553   H     0.06951   0.68557   0.18942   0.00000  Uiso   1.00
H554   H     0.09078   0.69124   0.10911   0.00000  Uiso   1.00
H555   H     0.19150   0.67431   0.06190   0.00000  Uiso   1.00
H556   H     0.27438   0.99059   0.09546   0.00000  Uiso   1.00
H557   H     0.14539   0.79849   0.10825   0.00000  Uiso   1.00
H558   H     0.25716   0.99050   0.17575   0.00000  Uiso   1.00
H559   H     0.19528   0.85159   0.39151   0.00000  Uiso   1.00
H560   H     0.30321   0.78820   0.46376   0.00000  Uiso   1.00
H561   H     0.01316   0.91905   0.04086   0.00000  Uiso   1.00
H562   H     0.07732   0.78030   0.07273   0.00000  Uiso   1.00
H563   H     0.23366   0.90738   0.43521   0.00000  Uiso   1.00
H564   H     0.00328   0.87498   0.28063   0.00000  Uiso   1.00
N565   N     0.31506   0.84735   0.26212   0.00000  Uiso   1.00
N566   N     0.01827   0.81932   0.23788   0.00000  Uiso   1.00
O567   O     0.12815   0.90476   0.24686   0.00000  Uiso   1.00
O568   O     0.20518   0.76191   0.25314   0.00000  Uiso   1.00
O569   O     0.22829   0.91420   0.25502   0.00000  Uiso   1.00
O570   O     0.10504   0.75247   0.24498   0.00000  Uiso   1.00
O571   O     0.08851   0.82597   0.30854   0.00000  Uiso   1.00
O572   O     0.24482   0.84070   0.19145   0.00000  Uiso   1.00
O573   O     0.18866   0.83540   0.31671   0.00000  Uiso   1.00
O574   O     0.14468   0.83126   0.18329   0.00000  Uiso   1.00
C575   C     0.51314   0.93288   0.25283   0.00000  Uiso   1.00
C576   C     0.53880   0.83801   0.16684   0.00000  Uiso   1.00
C577   C     0.43619   0.82894   0.38181   0.00000  Uiso   1.00
C578   C     0.56288   0.84622   0.11909   0.00000  Uiso   1.00
C579   C     0.35274   0.80185   0.44774   0.00000  Uiso   1.00
C580   C     0.63561   0.89266   0.05556   0.00000  Uiso   1.00
C581   C     0.37091   0.81711   0.40325   0.00000  Uiso   1.00
C582   C     0.62146   0.87965   0.09999   0.00000  Uiso   1.00
C583   C     0.47957   0.83919   0.40760   0.00000  Uiso   1.00
C584   C     0.52160   0.82530   0.09282   0.00000  Uiso   1.00
C585   C     0.46065   0.83200   0.45322   0.00000  Uiso   1.00
C586   C     0.48689   0.73388   0.24726   0.00000  Uiso   1.00
C587   C     0.53322   0.84174   0.04906   0.00000  Uiso   1.00
C588   C     0.39796   0.80709   0.47225   0.00000  Uiso   1.00
C589   C     0.59121   0.87656   0.03099   0.00000  Uiso   1.00
C590   C     0.50324   0.84746   0.47997   0.00000  Uiso   1.00
C591   C     0.48786   0.82748   0.02346   0.00000  Uiso   1.00
C592   C     0.66611   0.90812   0.12626   0.00000  Uiso   1.00
C593   C     0.38116   0.87630   0.13047   0.00000  Uiso   1.00
C594   C     0.65419   0.82658   0.38171   0.00000  Uiso   1.00
C595   C     0.66556   0.88516   0.36953   0.00000  Uiso   1.00
C596   C     0.51905   0.67129   0.30685   0.00000  Uiso   1.00
C597   C     0.42652   0.79674   0.04010   0.00000  Uiso   1.00
C598   C     0.46724   0.68285   0.33901   0.00000  Uiso   1.00
C599   C     0.47402   0.69883   0.38072   0.00000  Uiso   1.00
C600   C     0.53230   0.70304   0.39076   0.00000  Uiso   1.00
C601   C     0.58387   0.69113   0.35914   0.00000  Uiso   1.00
C602   C     0.57739   0.67534   0.31732   0.00000  Uiso   1.00
C603   C     0.49415   0.66857   0.18902   0.00000  Uiso   1.00
C604   C     0.44723   0.67792   0.16945   0.00000  Uiso   1.00
C605   C     0.45886   0.68083   0.12384   0.00000  Uiso   1.00
C606   C     0.51600   0.67201   0.09720   0.00000  Uiso   1.00
C607   C     0.56251   0.99522   0.11615   0.00000  Uiso   1.00
C608   C     0.55864   0.88549   0.46514   0.00000  Uiso   1.00
C609   C     0.55204   0.99407   0.16175   0.00000  Uiso   1.00
C610   C     0.38138   0.78933   0.01562   0.00000  Uiso   1.00
C611   C     0.60279   0.89856   0.48960   0.00000  Uiso   1.00
C612   C     0.51188   0.98677   0.26246   0.00000  Uiso   1.00
C613   C     0.48953   0.68054   0.23635   0.00000  Uiso   1.00
C614   C     0.46115   0.83090   0.33339   0.00000  Uiso   1.00
Cu615  Cu    0.44071   0.82775   0.24516   0.00000  Uiso   1.00
Cu616  Cu    0.55929   0.83892   0.25483   0.00000  Uiso   1.00
H617   H     0.33363   0.76886   0.03047   0.00000  Uiso   1.00
H618   H     0.66395   0.79260   0.21833   0.00000  Uiso   1.00
H619   H     0.40594   0.89424   0.15552   0.00000  Uiso   1.00
H620   H     0.35835   0.83496   0.14017   0.00000  Uiso   1.00
H621   H     0.41672   0.87716   0.09874   0.00000  Uiso   1.00
H622   H     0.35846   0.94581   0.10977   0.00000  Uiso   1.00
H623   H     0.64061   0.91967   0.15892   0.00000  Uiso   1.00
H624   H     0.33694   0.91021   0.39826   0.00000  Uiso   1.00
H625   H     0.37639   0.89788   0.34386   0.00000  Uiso   1.00
H626   H     0.62624   0.89337   0.35715   0.00000  Uiso   1.00
H627   H     0.65209   0.80125   0.35277   0.00000  Uiso   1.00
H628   H     0.64530   0.92765   0.47670   0.00000  Uiso   1.00
H629   H     0.60690   0.81540   0.40458   0.00000  Uiso   1.00
H630   H     0.42164   0.67930   0.33181   0.00000  Uiso   1.00
H631   H     0.43406   0.70789   0.40528   0.00000  Uiso   1.00
H632   H     0.53750   0.71552   0.42303   0.00000  Uiso   1.00
H633   H     0.62897   0.69436   0.36698   0.00000  Uiso   1.00
H634   H     0.61789   0.99997   0.29306   0.00000  Uiso   1.00
H635   H     0.40285   0.68557   0.18942   0.00000  Uiso   1.00
H636   H     0.42411   0.69124   0.10911   0.00000  Uiso   1.00
H637   H     0.52484   0.67431   0.06190   0.00000  Uiso   1.00
H638   H     0.60772   0.99059   0.09546   0.00000  Uiso   1.00
H639   H     0.47872   0.79849   0.10825   0.00000  Uiso   1.00
H640   H     0.59050   0.99050   0.17575   0.00000  Uiso   1.00
H641   H     0.52862   0.85159   0.39151   0.00000  Uiso   1.00
H642   H     0.63654   0.78820   0.46376   0.00000  Uiso   1.00
H643   H     0.34649   0.91905   0.04086   0.00000  Uiso   1.00
H644   H     0.41065   0.78030   0.07273   0.00000  Uiso   1.00
H645   H     0.56699   0.90738   0.43521   0.00000  Uiso   1.00
H646   H     0.33661   0.87498   0.28063   0.00000  Uiso   1.00
N647   N     0.64839   0.84735   0.26212   0.00000  Uiso   1.00
N648   N     0.35161   0.81932   0.23788   0.00000  Uiso   1.00
O649   O     0.46148   0.90476   0.24686   0.00000  Uiso   1.00
O650   O     0.53852   0.76191   0.25314   0.00000  Uiso   1.00
O651   O     0.56163   0.91420   0.25502   0.00000  Uiso   1.00
O652   O     0.43837   0.75247   0.24498   0.00000  Uiso   1.00
O653   O     0.42185   0.82597   0.30854   0.00000  Uiso   1.00
O654   O     0.57815   0.84070   0.19145   0.00000  Uiso   1.00
O655   O     0.52199   0.83540   0.31671   0.00000  Uiso   1.00
O656   O     0.47801   0.83126   0.18329   0.00000  Uiso   1.00
C657   C     0.84647   0.93288   0.25283   0.00000  Uiso   1.00
C658   C     0.87213   0.83801   0.16684   0.00000  Uiso   1.00
C659   C     0.76952   0.82894   0.38181   0.00000  Uiso   1.00
C660   C     0.89621   0.84622   0.11909   0.00000  Uiso   1.00
C661   C     0.68607   0.80185   0.44774   0.00000  Uiso   1.00
C662   C     0.96895   0.89266   0.05556   0.00000  Uiso   1.00
C663   C     0.70424   0.81711   0.40325   0.00000  Uiso   1.00
C664   C     0.95479   0.87965   0.09999   0.00000  Uiso   1.00
C665   C     0.81291   0.83919   0.40760   0.00000  Uiso   1.00
C666   C     0.85493   0.82530   0.09282   0.00000  Uiso   1.00
C667   C     0.79398   0.83200   0.45322   0.00000  Uiso   1.00
C668   C     0.82023   0.73388   0.24726   0.00000  Uiso   1.00
C669   C     0.86655   0.84174   0.04906   0.00000  Uiso   1.00
C670   C     0.73129   0.80709   0.47225   0.00000  Uiso   1.00
C671   C     0.92454   0.87656   0.03099   0.00000  Uiso   1.00
C672   C     0.83657   0.84746   0.47997   0.00000  Uiso   1.00
C673   C     0.82119   0.82748   0.02346   0.00000  Uiso   1.00
C674   C     0.99945   0.90812   0.12626   0.00000  Uiso   1.00
C675   C     0.71450   0.87630   0.13047   0.00000  Uiso   1.00
C676   C     0.98752   0.82658   0.38171   0.00000  Uiso   1.00
C677   C     0.99890   0.88516   0.36953   0.00000  Uiso   1.00
C678   C     0.85238   0.67129   0.30685   0.00000  Uiso   1.00
C679   C     0.75985   0.79674   0.04010   0.00000  Uiso   1.00
C680   C     0.80057   0.68285   0.33901   0.00000  Uiso   1.00
C681   C     0.80735   0.69883   0.38072   0.00000  Uiso   1.00
C682   C     0.86563   0.70304   0.39076   0.00000  Uiso   1.00
C683   C     0.91720   0.69113   0.35914   0.00000  Uiso   1.00
C684   C     0.91072   0.67534   0.31732   0.00000  Uiso   1.00
C685   C     0.82748   0.66857   0.18902   0.00000  Uiso   1.00
C686   C     0.78056   0.67792   0.16945   0.00000  Uiso   1.00
C687   C     0.79220   0.68083   0.12384   0.00000  Uiso   1.00
C688   C     0.84933   0.67201   0.09720   0.00000  Uiso   1.00
C689   C     0.89584   0.99522   0.11615   0.00000  Uiso   1.00
C690   C     0.89197   0.88549   0.46514   0.00000  Uiso   1.00
C691   C     0.88537   0.99407   0.16175   0.00000  Uiso   1.00
C692   C     0.71471   0.78933   0.01562   0.00000  Uiso   1.00
C693   C     0.93612   0.89856   0.48960   0.00000  Uiso   1.00
C694   C     0.84521   0.98677   0.26246   0.00000  Uiso   1.00
C695   C     0.82286   0.68054   0.23635   0.00000  Uiso   1.00
C696   C     0.79448   0.83090   0.33339   0.00000  Uiso   1.00
Cu697  Cu    0.77404   0.82775   0.24516   0.00000  Uiso   1.00
Cu698  Cu    0.89263   0.83892   0.25483   0.00000  Uiso   1.00
H699   H     0.66696   0.76886   0.03047   0.00000  Uiso   1.00
H700   H     0.99728   0.79260   0.21833   0.00000  Uiso   1.00
H701   H     0.73928   0.89424   0.15552   0.00000  Uiso   1.00
H702   H     0.69168   0.83496   0.14017   0.00000  Uiso   1.00
H703   H     0.75005   0.87716   0.09874   0.00000  Uiso   1.00
H704   H     0.69179   0.94581   0.10977   0.00000  Uiso   1.00
H705   H     0.97394   0.91967   0.15892   0.00000  Uiso   1.00
H706   H     0.67027   0.91021   0.39826   0.00000  Uiso   1.00
H707   H     0.70972   0.89788   0.34386   0.00000  Uiso   1.00
H708   H     0.95957   0.89337   0.35715   0.00000  Uiso   1.00
H709   H     0.98543   0.80125   0.35277   0.00000  Uiso   1.00
H710   H     0.97863   0.92765   0.47670   0.00000  Uiso   1.00
H711   H     0.94023   0.81540   0.40458   0.00000  Uiso   1.00
H712   H     0.75498   0.67930   0.33181   0.00000  Uiso   1.00
H713   H     0.76740   0.70789   0.40528   0.00000  Uiso   1.00
H714   H     0.87083   0.71552   0.42303   0.00000  Uiso   1.00
H715   H     0.96230   0.69436   0.36698   0.00000  Uiso   1.00
H716   H     0.95122   0.99997   0.29306   0.00000  Uiso   1.00
H717   H     0.73618   0.68557   0.18942   0.00000  Uiso   1.00
H718   H     0.75745   0.69124   0.10911   0.00000  Uiso   1.00
H719   H     0.85817   0.67431   0.06190   0.00000  Uiso   1.00
H720   H     0.94105   0.99059   0.09546   0.00000  Uiso   1.00
H721   H     0.81206   0.79849   0.10825   0.00000  Uiso   1.00
H722   H     0.92383   0.99050   0.17575   0.00000  Uiso   1.00
H723   H     0.86195   0.85159   0.39151   0.00000  Uiso   1.00
H724   H     0.96988   0.78820   0.46376   0.00000  Uiso   1.00
H725   H     0.67982   0.91905   0.04086   0.00000  Uiso   1.00
H726   H     0.74398   0.78030   0.07273   0.00000  Uiso   1.00
H727   H     0.90032   0.90738   0.43521   0.00000  Uiso   1.00
H728   H     0.66995   0.87498   0.28063   0.00000  Uiso   1.00
N729   N     0.98173   0.84735   0.26212   0.00000  Uiso   1.00
N730   N     0.68494   0.81932   0.23788   0.00000  Uiso   1.00
O731   O     0.79482   0.90476   0.24686   0.00000  Uiso   1.00
O732   O     0.87185   0.76191   0.25314   0.00000  Uiso   1.00
O733   O     0.89496   0.91420   0.25502   0.00000  Uiso   1.00
O734   O     0.77171   0.75247   0.24498   0.00000  Uiso   1.00
O735   O     0.75518   0.82597   0.30854   0.00000  Uiso   1.00
O736   O     0.91149   0.84070   0.19145   0.00000  Uiso   1.00
O737   O     0.85532   0.83540   0.31671   0.00000  Uiso   1.00
O738   O     0.81134   0.83126   0.18329   0.00000  Uiso   1.00
C739   C     0.17981   0.26622   0.75283   0.00000  Uiso   1.00
C740   C     0.20546   0.17134   0.66684   0.00000  Uiso   1.00
C741   C     0.10285   0.16227   0.88181   0.00000  Uiso   1.00
C742   C     0.22954   0.17955   0.61909   0.00000  Uiso   1.00
C743   C     0.01941   0.13518   0.94774   0.00000  Uiso   1.00
C744   C     0.30228   0.22600   0.55556   0.00000  Uiso   1.00
C745   C     0.03757   0.15044   0.90325   0.00000  Uiso   1.00
C746   C     0.28813   0.21298   0.59999   0.00000  Uiso   1.00
C747   C     0.14624   0.17252   0.90760   0.00000  Uiso   1.00
C748   C     0.18826   0.15863   0.59282   0.00000  Uiso   1.00
C749   C     0.12731   0.16534   0.95322   0.00000  Uiso   1.00
C750   C     0.15356   0.06721   0.74726   0.00000  Uiso   1.00
C751   C     0.19988   0.17507   0.54906   0.00000  Uiso   1.00
C752   C     0.06462   0.14042   0.97225   0.00000  Uiso   1.00
C753   C     0.25788   0.20989   0.53099   0.00000  Uiso   1.00
C754   C     0.16991   0.18079   0.97997   0.00000  Uiso   1.00
C755   C     0.15453   0.16081   0.52346   0.00000  Uiso   1.00
C756   C     0.33278   0.24146   0.62626   0.00000  Uiso   1.00
C757   C     0.04783   0.20963   0.63047   0.00000  Uiso   1.00
C758   C     0.32085   0.15991   0.88171   0.00000  Uiso   1.00
C759   C     0.33223   0.21849   0.86953   0.00000  Uiso   1.00
C760   C     0.18572   0.00463   0.80685   0.00000  Uiso   1.00
C761   C     0.09318   0.13008   0.54010   0.00000  Uiso   1.00
C762   C     0.13390   0.01618   0.83901   0.00000  Uiso   1.00
C763   C     0.14069   0.03216   0.88072   0.00000  Uiso   1.00
C764   C     0.19897   0.03637   0.89076   0.00000  Uiso   1.00
C765   C     0.25053   0.02447   0.85914   0.00000  Uiso   1.00
C766   C     0.24405   0.00868   0.81732   0.00000  Uiso   1.00
C767   C     0.16081   0.00190   0.68902   0.00000  Uiso   1.00
C768   C     0.11389   0.01125   0.66945   0.00000  Uiso   1.00
C769   C     0.12553   0.01417   0.62384   0.00000  Uiso   1.00
C770   C     0.18266   0.00534   0.59720   0.00000  Uiso   1.00
C771   C     0.22917   0.32856   0.61615   0.00000  Uiso   1.00
C772   C     0.22530   0.21882   0.96514   0.00000  Uiso   1.00
C773   C     0.21870   0.32740   0.66175   0.00000  Uiso   1.00
C774   C     0.04805   0.12266   0.51562   0.00000  Uiso   1.00
C775   C     0.26945   0.23189   0.98960   0.00000  Uiso   1.00
C776   C     0.17855   0.32011   0.76246   0.00000  Uiso   1.00
C777   C     0.15619   0.01387   0.73635   0.00000  Uiso   1.00
C778   C     0.12781   0.16424   0.83339   0.00000  Uiso   1.00
Cu779  Cu    0.10737   0.16108   0.74516   0.00000  Uiso   1.00
Cu780  Cu    0.22596   0.17225   0.75483   0.00000  Uiso   1.00
H781   H     0.00029   0.10219   0.53047   0.00000  Uiso   1.00
H782   H     0.33061   0.12594   0.71833   0.00000  Uiso   1.00
H783   H     0.07261   0.22757   0.65552   0.00000  Uiso   1.00
H784   H     0.02501   0.16829   0.64017   0.00000  Uiso   1.00
H785   H     0.08338   0.21049   0.59874   0.00000  Uiso   1.00
H786   H     0.02513   0.27914   0.60977   0.00000  Uiso   1.00
H787   H     0.30728   0.25300   0.65892   0.00000  Uiso   1.00
H788   H     0.00360   0.24354   0.89826   0.00000  Uiso   1.00
H789   H     0.04306   0.23122   0.84386   0.00000  Uiso   1.00
H790   H     0.29290   0.22670   0.85715   0.00000  Uiso   1.00
H791   H     0.31876   0.13458   0.85277   0.00000  Uiso   1.00
H792   H     0.31196   0.26099   0.97670   0.00000  Uiso   1.00
H793   H     0.27357   0.14873   0.90458   0.00000  Uiso   1.00
H794   H     0.08831   0.01263   0.83181   0.00000  Uiso   1.00
H795   H     0.10073   0.04122   0.90528   0.00000  Uiso   1.00
H796   H     0.20416   0.04886   0.92303   0.00000  Uiso   1.00
H797   H     0.29564   0.02769   0.86698   0.00000  Uiso   1.00
H798   H     0.28456   0.33330   0.79306   0.00000  Uiso   1.00
H799   H     0.06951   0.01891   0.68942   0.00000  Uiso   1.00
H800   H     0.09078   0.02457   0.60911   0.00000  Uiso   1.00
H801   H     0.19150   0.00764   0.56190   0.00000  Uiso   1.00
H802   H     0.27438   0.32393   0.59546   0.00000  Uiso   1.00
H803   H     0.14539   0.13182   0.60825   0.00000  Uiso   1.00
H804   H     0.25716   0.32384   0.67575   0.00000  Uiso   1.00
H805   H     0.19528   0.18492   0.89151   0.00000  Uiso   1.00
H806   H     0.30321   0.12153   0.96376   0.00000  Uiso   1.00
H807   H     0.01316   0.25239   0.54086   0.00000  Uiso   1.00
H808   H     0.07732   0.11364   0.57273   0.00000  Uiso   1.00
H809   H     0.23366   0.24071   0.93521   0.00000  Uiso   1.00
H810   H     0.00328   0.20832   0.78063   0.00000  Uiso   1.00
N811   N     0.31506   0.18068   0.76212   0.00000  Uiso   1.00
N812   N     0.01827   0.15265   0.73788   0.00000  Uiso   1.00
O813   O     0.12815   0.23809   0.74686   0.00000  Uiso   1.00
O814   O     0.20518   0.09524   0.75314   0.00000  Uiso   1.00
O815   O     0.22829   0.24753   0.75502   0.00000  Uiso   1.00
O816   O     0.10504   0.08580   0.74498   0.00000  Uiso   1.00
O817   O     0.08851   0.15930   0.80854   0.00000  Uiso   1.00
O818   O     0.24482   0.17403   0.69145   0.00000  Uiso   1.00
O819   O     0.18866   0.16874   0.81671   0.00000  Uiso   1.00
O820   O     0.14468   0.16460   0.68329   0.00000  Uiso   1.00
C821   C     0.51314   0.26622   0.75283   0.00000  Uiso   1.00
C822   C     0.53880   0.17134   0.66684   0.00000  Uiso   1.00
C823   C     0.43619   0.16227   0.88181   0.00000  Uiso   1.00
C824   C     0.56288   0.17955   0.61909   0.00000  Uiso   1.00
C825   C     0.35274   0.13518   0.94774   0.00000  Uiso   1.00
C826   C     0.63561   0.22600   0.55556   0.00000  Uiso   1.00
C827   C     0.37091   0.15044   0.90325   0.00000  Uiso   1.00
C828   C     0.62146   0.21298   0.59999   0.00000  Uiso   1.00
C829   C     0.47957   0.17252   0.90760   0.00000  Uiso   1.00
C830   C     0.52160   0.15863   0.59282   0.00000  Uiso   1.00
C831   C     0.46065   0.16534   0.95322   0.00000  Uiso   1.00
C832   C     0.48689   0.06721   0.74726   0.00000  Uiso   1.00
C833   C     0.53322   0.17507   0.54906   0.00000  Uiso   1.00
C834   C     0.39796   0.14042   0.97225   0.00000  Uiso   1.00
C835   C     0.59121   0.20989   0.53099   0.00000  Uiso   1.00
C836   C     0.50324   0.18079   0.97997   0.00000  Uiso   1.00
C837   C     0.48786   0.16081   0.52346   0.00000  Uiso   1.00
C838   C     0.66611   0.24146   0.62626   0.00000  Uiso   1.00
C839   C     0.38116   0.20963   0.63047   0.00000  Uiso   1.00
C840   C     0.65419   0.15991   0.88171   0.00000  Uiso   1.00
C841   C     0.66556   0.21849   0.86953   0.00000  Uiso   1.00
C842   C     0.51905   0.00463   0.80685   0.00000  Uiso   1.00
C843   C     0.42652   0.13008   0.54010   0.00000  Uiso   1.00
C844   C     0.46724   0.01618   0.83901   0.00000  Uiso   1.00
C845   C     0.47402   0.03216   0.88072   0.00000  Uiso   1.00
C846   C     0.53230   0.03637   0.89076   0.00000  Uiso   1.00
C847   C     0.58387   0.02447   0.85914   0.00000  Uiso   1.00
C848   C     0.57739   0.00868   0.81732   0.00000  Uiso   1.00
C849   C     0.49415   0.00190   0.68902   0.00000  Uiso   1.00
C850   C     0.44723   0.01125   0.66945   0.00000  Uiso   1.00
C851   C     0.45886   0.01417   0.62384   0.00000  Uiso   1.00
C852   C     0.51600   0.00534   0.59720   0.00000  Uiso   1.00
C853   C     0.56251   0.32856   0.61615   0.00000  Uiso   1.00
C854   C     0.55864   0.21882   0.96514   0.00000  Uiso   1.00
C855   C     0.55204   0.32740   0.66175   0.00000  Uiso   1.00
C856   C     0.38138   0.12266   0.51562   0.00000  Uiso   1.00
C857   C     0.60279   0.23189   0.98960   0.00000  Uiso   1.00
C858   C     0.51188   0.32011   0.76246   0.00000  Uiso   1.00
C859   C     0.48953   0.01387   0.73635   0.00000  Uiso   1.00
C860   C     0.46115   0.16424   0.83339   0.00000  Uiso   1.00
Cu861  Cu    0.44071   0.16108   0.74516   0.00000  Uiso   1.00
Cu862  Cu    0.55929   0.17225   0.75483   0.00000  Uiso   1.00
H863   H     0.33363   0.10219   0.53047   0.00000  Uiso   1.00
H864   H     0.66395   0.12594   0.71833   0.00000  Uiso   1.00
H865   H     0.40594   0.22757   0.65552   0.00000  Uiso   1.00
H866   H     0.35835   0.16829   0.64017   0.00000  Uiso   1.00
H867   H     0.41672   0.21049   0.59874   0.00000  Uiso   1.00
H868   H     0.35846   0.27914   0.60977   0.00000  Uiso   1.00
H869   H     0.64061   0.25300   0.65892   0.00000  Uiso   1.00
H870   H     0.33694   0.24354   0.89826   0.00000  Uiso   1.00
H871   H     0.37639   0.23122   0.84386   0.00000  Uiso   1.00
H872   H     0.62624   0.22670   0.85715   0.00000  Uiso   1.00
H873   H     0.65209   0.13458   0.85277   0.00000  Uiso   1.00
H874   H     0.64530   0.26099   0.97670   0.00000  Uiso   1.00
H875   H     0.60690   0.14873   0.90458   0.00000  Uiso   1.00
H876   H     0.42164   0.01263   0.83181   0.00000  Uiso   1.00
H877   H     0.43406   0.04122   0.90528   0.00000  Uiso   1.00
H878   H     0.53750   0.04886   0.92303   0.00000  Uiso   1.00
H879   H     0.62897   0.02769   0.86698   0.00000  Uiso   1.00
H880   H     0.61789   0.33330   0.79306   0.00000  Uiso   1.00
H881   H     0.40285   0.01891   0.68942   0.00000  Uiso   1.00
H882   H     0.42411   0.02457   0.60911   0.00000  Uiso   1.00
H883   H     0.52484   0.00764   0.56190   0.00000  Uiso   1.00
H884   H     0.60772   0.32393   0.59546   0.00000  Uiso   1.00
H885   H     0.47872   0.13182   0.60825   0.00000  Uiso   1.00
H886   H     0.59050   0.32384   0.67575   0.00000  Uiso   1.00
H887   H     0.52862   0.18492   0.89151   0.00000  Uiso   1.00
H888   H     0.63654   0.12153   0.96376   0.00000  Uiso   1.00
H889   H     0.34649   0.25239   0.54086   0.00000  Uiso   1.00
H890   H     0.41065   0.11364   0.57273   0.00000  Uiso   1.00
H891   H     0.56699   0.24071   0.93521   0.00000  Uiso   1.00
H892   H     0.33661   0.20832   0.78063   0.00000  Uiso   1.00
N893   N     0.64839   0.18068   0.76212   0.00000  Uiso   1.00
N894   N     0.35161   0.15265   0.73788   0.00000  Uiso   1.00
O895   O     0.46148   0.23809   0.74686   0.00000  Uiso   1.00
O896   O     0.53852   0.09524   0.75314   0.00000  Uiso   1.00
O897   O     0.56163   0.24753   0.75502   0.00000  Uiso   1.00
O898   O     0.43837   0.08580   0.74498   0.00000  Uiso   1.00
O899   O     0.42185   0.15930   0.80854   0.00000  Uiso   1.00
O900   O     0.57815   0.17403   0.69145   0.00000  Uiso   1.00
O901   O     0.52199   0.16874   0.81671   0.00000  Uiso   1.00
O902   O     0.47801   0.16460   0.68329   0.00000  Uiso   1.00
C903   C     0.84647   0.26622   0.75283   0.00000  Uiso   1.00
C904   C     0.87213   0.17134   0.66684   0.00000  Uiso   1.00
C905   C     0.76952   0.16227   0.88181   0.00000  Uiso   1.00
C906   C     0.89621   0.17955   0.61909   0.00000  Uiso   1.00
C907   C     0.68607   0.13518   0.94774   0.00000  Uiso   1.00
C908   C     0.96895   0.22600   0.55556   0.00000  Uiso   1.00
C909   C     0.70424   0.15044   0.90325   0.00000  Uiso   1.00
C910   C     0.95479   0.21298   0.59999   0.00000  Uiso   1.00
C911   C     0.81291   0.17252   0.90760   0.00000  Uiso   1.00
C912   C     0.85493   0.15863   0.59282   0.00000  Uiso   1.00
C913   C     0.79398   0.16534   0.95322   0.00000  Uiso   1.00
C914   C     0.82023   0.06721   0.74726   0.00000  Uiso   1.00
C915   C     0.86655   0.17507   0.54906   0.00000  Uiso   1.00
C916   C     0.73129   0.14042   0.97225   0.00000  Uiso   1.00
C917   C     0.92454   0.20989   0.53099   0.00000  Uiso   1.00
C918   C     0.83657   0.18079   0.97997   0.00000  Uiso   1.00
C919   C     0.82119   0.16081   0.52346   0.00000  Uiso   1.00
C920   C     0.99945   0.24146   0.62626   0.00000  Uiso   1.00
C921   C     0.71450   0.20963   0.63047   0.00000  Uiso   1.00
C922   C     0.98752   0.15991   0.88171   0.00000  Uiso   1.00
C923   C     0.99890   0.21849   0.86953   0.00000  Uiso   1.00
C924   C     0.85238   0.00463   0.80685   0.00000  Uiso   1.00
C925   C     0.75985   0.13008   0.54010   0.00000  Uiso   1.00
C926   C     0.80057   0.01618   0.83901   0.00000  Uiso   1.00
C927   C     0.80735   0.03216   0.88072   0.00000  Uiso   1.00
C928   C     0.86563   0.03637   0.89076   0.00000  Uiso   1.00
C929   C     0.91720   0.02447   0.85914   0.00000  Uiso   1.00
C930   C     0.91072   0.00868   0.81732   0.00000  Uiso   1.00
C931   C     0.82748   0.00190   0.68902   0.00000  Uiso   1.00
C932   C     0.78056   0.01125   0.66945   0.00000  Uiso   1.00
C933   C     0.79220   0.01417   0.62384   0.00000  Uiso   1.00
C934   C     0.84933   0.00534   0.59720   0.00000  Uiso   1.00
C935   C     0.89584   0.32856   0.61615   0.00000  Uiso   1.00
C936   C     0.89197   0.21882   0.96514   0.00000  Uiso   1.00
C937   C     0.88537   0.32740   0.66175   0.00000  Uiso   1.00
C938   C     0.71471   0.12266   0.51562   0.00000  Uiso   1.00
C939   C     0.93612   0.23189   0.98960   0.00000  Uiso   1.00
C940   C     0.84521   0.32011   0.76246   0.00000  Uiso   1.00
C941   C     0.82286   0.01387   0.73635   0.00000  Uiso   1.00
C942   C     0.79448   0.16424   0.83339   0.00000  Uiso   1.00
Cu943  Cu    0.77404   0.16108   0.74516   0.00000  Uiso   1.00
Cu944  Cu    0.89263   0.17225   0.75483   0.00000  Uiso   1.00
H945   H     0.66696   0.10219   0.53047   0.00000  Uiso   1.00
H946   H     0.99728   0.12594   0.71833   0.00000  Uiso   1.00
H947   H     0.73928   0.22757   0.65552   0.00000  Uiso   1.00
H948   H     0.69168   0.16829   0.64017   0.00000  Uiso   1.00
H949   H     0.75005   0.21049   0.59874   0.00000  Uiso   1.00
H950   H     0.69179   0.27914   0.60977   0.00000  Uiso   1.00
H951   H     0.97394   0.25300   0.65892   0.00000  Uiso   1.00
H952   H     0.67027   0.24354   0.89826   0.00000  Uiso   1.00
H953   H     0.70972   0.23122   0.84386   0.00000  Uiso   1.00
H954   H     0.95957   0.22670   0.85715   0.00000  Uiso   1.00
H955   H     0.98543   0.13458   0.85277   0.00000  Uiso   1.00
H956   H     0.97863   0.26099   0.97670   0.00000  Uiso   1.00
H957   H     0.94023   0.14873   0.90458   0.00000  Uiso   1.00
H958   H     0.75498   0.01263   0.83181   0.00000  Uiso   1.00
H959   H     0.76740   0.04122   0.90528   0.00000  Uiso   1.00
H960   H     0.87083   0.04886   0.92303   0.00000  Uiso   1.00
H961   H     0.96230   0.02769   0.86698   0.00000  Uiso   1.00
H962   H     0.95122   0.33330   0.79306   0.00000  Uiso   1.00
H963   H     0.73618   0.01891   0.68942   0.00000  Uiso   1.00
H964   H     0.75745   0.02457   0.60911   0.00000  Uiso   1.00
H965   H     0.85817   0.00764   0.56190   0.00000  Uiso   1.00
H966   H     0.94105   0.32393   0.59546   0.00000  Uiso   1.00
H967   H     0.81206   0.13182   0.60825   0.00000  Uiso   1.00
H968   H     0.92383   0.32384   0.67575   0.00000  Uiso   1.00
H969   H     0.86195   0.18492   0.89151   0.00000  Uiso   1.00
H970   H     0.96988   0.12153   0.96376   0.00000  Uiso   1.00
H971   H     0.67982   0.25239   0.54086   0.00000  Uiso   1.00
H972   H     0.74398   0.11364   0.57273   0.00000  Uiso   1.00
H973   H     0.90032   0.24071   0.93521   0.00000  Uiso   1.00
H974   H     0.66995   0.20832   0.78063   0.00000  Uiso   1.00
N975   N     0.98173   0.18068   0.76212   0.00000  Uiso   1.00
N976   N     0.68494   0.15265   0.73788   0.00000  Uiso   1.00
O977   O     0.79482   0.23809   0.74686   0.00000  Uiso   1.00
O978   O     0.87185   0.09524   0.75314   0.00000  Uiso   1.00
O979   O     0.89496   0.24753   0.75502   0.00000  Uiso   1.00
O980   O     0.77171   0.08580   0.74498   0.00000  Uiso   1.00
O981   O     0.75518   0.15930   0.80854   0.00000  Uiso   1.00
O982   O     0.91149   0.17403   0.69145   0.00000  Uiso   1.00
O983   O     0.85532   0.16874   0.81671   0.00000  Uiso   1.00
O984   O     0.81134   0.16460   0.68329   0.00000  Uiso   1.00
C985   C     0.17981   0.59955   0.75283   0.00000  Uiso   1.00
C986   C     0.20546   0.50468   0.66684   0.00000  Uiso   1.00
C987   C     0.10285   0.49560   0.88181   0.00000  Uiso   1.00
C988   C     0.22954   0.51288   0.61909   0.00000  Uiso   1.00
C989   C     0.01941   0.46852   0.94774   0.00000  Uiso   1.00
C990   C     0.30228   0.55933   0.55556   0.00000  Uiso   1.00
C991   C     0.03757   0.48377   0.90325   0.00000  Uiso   1.00
C992   C     0.28813   0.54631   0.59999   0.00000  Uiso   1.00
C993   C     0.14624   0.50586   0.90760   0.00000  Uiso   1.00
C994   C     0.18826   0.49197   0.59282   0.00000  Uiso   1.00
C995   C     0.12731   0.49867   0.95322   0.00000  Uiso   1.00
C996   C     0.15356   0.40055   0.74726   0.00000  Uiso   1.00
C997   C     0.19988   0.50840   0.54906   0.00000  Uiso   1.00
C998   C     0.06462   0.47376   0.97225   0.00000  Uiso   1.00
C999   C     0.25788   0.54322   0.53099   0.00000  Uiso   1.00
C1000  C     0.16991   0.51412   0.97997   0.00000  Uiso   1.00
C1001  C     0.15453   0.49414   0.52346   0.00000  Uiso   1.00
C1002  C     0.33278   0.57479   0.62626   0.00000  Uiso   1.00
C1003  C     0.04783   0.54296   0.63047   0.00000  Uiso   1.00
C1004  C     0.32085   0.49324   0.88171   0.00000  Uiso   1.00
C1005  C     0.33223   0.55182   0.86953   0.00000  Uiso   1.00
C1006  C     0.18572   0.33796   0.80685   0.00000  Uiso   1.00
C1007  C     0.09318   0.46341   0.54010   0.00000  Uiso   1.00
C1008  C     0.13390   0.34952   0.83901   0.00000  Uiso   1.00
C1009  C     0.14069   0.36550   0.88072   0.00000  Uiso   1.00
C1010  C     0.19897   0.36971   0.89076   0.00000  Uiso   1.00
C1011  C     0.25053   0.35780   0.85914   0.00000  Uiso   1.00
C1012  C     0.24405   0.34201   0.81732   0.00000  Uiso   1.00
C1013  C     0.16081   0.33523   0.68902   0.00000  Uiso   1.00
C1014  C     0.11389   0.34458   0.66945   0.00000  Uiso   1.00
C1015  C     0.12553   0.34750   0.62384   0.00000  Uiso   1.00
C1016  C     0.18266   0.33867   0.59720   0.00000  Uiso   1.00
C1017  C     0.22917   0.66189   0.61615   0.00000  Uiso   1.00
C1018  C     0.22530   0.55216   0.96514   0.00000  Uiso   1.00
C1019  C     0.21870   0.66074   0.66175   0.00000  Uiso   1.00
C1020  C     0.04805   0.45600   0.51562   0.00000  Uiso   1.00
C1021  C     0.26945   0.56522   0.98960   0.00000  Uiso   1.00
C1022  C     0.17855   0.65344   0.76246   0.00000  Uiso   1.00
C1023  C     0.15619   0.34720   0.73635   0.00000  Uiso   1.00
C1024  C     0.12781   0.49757   0.83339   0.00000  Uiso   1.00
Cu1025 Cu    0.10737   0.49441   0.74516   0.00000  Uiso   1.00
Cu1026 Cu    0.22596   0.50559   0.75483   0.00000  Uiso   1.00
H1027  H     0.00029   0.43552   0.53047   0.00000  Uiso   1.00
H1028  H     0.33061   0.45927   0.71833   0.00000  Uiso   1.00
H1029  H     0.07261   0.56091   0.65552   0.00000  Uiso   1.00
H1030  H     0.02501   0.50162   0.64017   0.00000  Uiso   1.00
H1031  H     0.08338   0.54382   0.59874   0.00000  Uiso   1.00
H1032  H     0.02513   0.61247   0.60977   0.00000  Uiso   1.00
H1033  H     0.30728   0.58633   0.65892   0.00000  Uiso   1.00
H1034  H     0.00360   0.57687   0.89826   0.00000  Uiso   1.00
H1035  H     0.04306   0.56455   0.84386   0.00000  Uiso   1.00
H1036  H     0.29290   0.56003   0.85715   0.00000  Uiso   1.00
H1037  H     0.31876   0.46791   0.85277   0.00000  Uiso   1.00
H1038  H     0.31196   0.59432   0.97670   0.00000  Uiso   1.00
H1039  H     0.27357   0.48206   0.90458   0.00000  Uiso   1.00
H1040  H     0.08831   0.34597   0.83181   0.00000  Uiso   1.00
H1041  H     0.10073   0.37455   0.90528   0.00000  Uiso   1.00
H1042  H     0.20416   0.38219   0.92303   0.00000  Uiso   1.00
H1043  H     0.29564   0.36103   0.86698   0.00000  Uiso   1.00
H1044  H     0.28456   0.66664   0.79306   0.00000  Uiso   1.00
H1045  H     0.06951   0.35224   0.68942   0.00000  Uiso   1.00
H1046  H     0.09078   0.35790   0.60911   0.00000  Uiso   1.00
H1047  H     0.19150   0.34098   0.56190   0.00000  Uiso   1.00
H1048  H     0.27438   0.65726   0.59546   0.00000  Uiso   1.00
H1049  H     0.14539   0.46515   0.60825   0.00000  Uiso   1.00
H1050  H     0.25716   0.65717   0.67575   0.00000  Uiso   1.00
H1051  H     0.19528   0.51825   0.89151   0.00000  Uiso   1.00
H1052  H     0.30321   0.45486   0.96376   0.00000  Uiso   1.00
H1053  H     0.01316   0.58572   0.54086   0.00000  Uiso   1.00
H1054  H     0.07732   0.44697   0.57273   0.00000  Uiso   1.00
H1055  H     0.23366   0.57404   0.93521   0.00000  Uiso   1.00
H1056  H     0.00328   0.54165   0.78063   0.00000  Uiso   1.00
N1057  N     0.31506   0.51401   0.76212   0.00000  Uiso   1.00
N1058  N     0.01827   0.48599   0.73788   0.00000  Uiso   1.00
O1059  O     0.12815   0.57142   0.74686   0.00000  Uiso   1.00
O1060  O     0.20518   0.42858   0.75314   0.00000  Uiso   1.00
O1061  O     0.22829   0.58086   0.75502   0.00000  Uiso   1.00
O1062  O     0.10504   0.41914   0.74498   0.00000  Uiso   1.00
O1063  O     0.08851   0.49263   0.80854   0.00000  Uiso   1.00
O1064  O     0.24482   0.50737   0.69145   0.00000  Uiso   1.00
O1065  O     0.18866   0.50207   0.81671   0.00000  Uiso   1.00
O1066  O     0.14468   0.49793   0.68329   0.00000  Uiso   1.00
C1067  C     0.51314   0.59955   0.75283   0.00000  Uiso   1.00
C1068  C     0.53880   0.50468   0.66684   0.00000  Uiso   1.00
C1069  C     0.43619   0.49560   0.88181   0.00000  Uiso   1.00
C1070  C     0.56288   0.51288   0.61909   0.00000  Uiso   1.00
C1071  C     0.35274   0.46852   0.94774   0.00000  Uiso   1.00
C1072  C     0.63561   0.55933   0.55556   0.00000  Uiso   1.00
C1073  C     0.37091   0.48377   0.90325   0.00000  Uiso   1.00
C1074  C     0.62146   0.54631   0.59999   0.00000  Uiso   1.00
C1075  C     0.47957   0.50586   0.90760   0.00000  Uiso   1.00
C1076  C     0.52160   0.49197   0.59282   0.00000  Uiso   1.00
C1077  C     0.46065   0.49867   0.95322   0.00000  Uiso   1.00
C1078  C     0.48689   0.40055   0.74726   0.00000  Uiso   1.00
C1079  C     0.53322   0.50840   0.54906   0.00000  Uiso   1.00
C1080  C     0.39796   0.47376   0.97225   0.00000  Uiso   1.00
C1081  C     0.59121   0.54322   0.53099   0.00000  Uiso   1.00
C1082  C     0.50324   0.51412   0.97997   0.00000  Uiso   1.00
C1083  C     0.48786   0.49414   0.52346   0.00000  Uiso   1.00
C1084  C     0.66611   0.57479   0.62626   0.00000  Uiso   1.00
C1085  C     0.38116   0.54296   0.63047   0.00000  Uiso   1.00
C1086  C     0.65419   0.49324   0.88171   0.00000  Uiso   1.00
C1087  C     0.66556   0.55182   0.86953   0.00000  Uiso   1.00
C1088  C     0.51905   0.33796   0.80685   0.00000  Uiso   1.00
C1089  C     0.42652   0.46341   0.54010   0.00000  Uiso   1.00
C1090  C     0.46724   0.34952   0.83901   0.00000  Uiso   1.00
C1091  C     0.47402   0.36550   0.88072   0.00000  Uiso   1.00
C1092  C     0.53230   0.36971   0.89076   0.00000  Uiso   1.00
C1093  C     0.58387   0.35780   0.85914   0.00000  Uiso   1.00
C1094  C     0.57739   0.34201   0.81732   0.00000  Uiso   1.00
C1095  C     0.49415   0.33523   0.68902   0.00000  Uiso   1.00
C1096  C     0.44723   0.34458   0.66945   0.00000  Uiso   1.00
C1097  C     0.45886   0.34750   0.62384   0.00000  Uiso   1.00
C1098  C     0.51600   0.33867   0.59720   0.00000  Uiso   1.00
C1099  C     0.56251   0.66189   0.61615   0.00000  Uiso   1.00
C1100  C     0.55864   0.55216   0.96514   0.00000  Uiso   1.00
C1101  C     0.55204   0.66074   0.66175   0.00000  Uiso   1.00
C1102  C     0.38138   0.45600   0.51562   0.00000  Uiso   1.00
C1103  C     0.60279   0.56522   0.98960   0.00000  Uiso   1.00
C1104  C     0.51188   0.65344   0.76246   0.00000  Uiso   1.00
C1105  C     0.48953   0.34720   0.73635   0.00000  Uiso   1.00
C1106  C     0.46115   0.49757   0.83339   0.00000  Uiso   1.00
Cu1107 Cu    0.44071   0.49441   0.74516   0.00000  Uiso   1.00
Cu1108 Cu    0.55929   0.50559   0.75483   0.00000  Uiso   1.00
H1109  H     0.33363   0.43552   0.53047   0.00000  Uiso   1.00
H1110  H     0.66395   0.45927   0.71833   0.00000  Uiso   1.00
H1111  H     0.40594   0.56091   0.65552   0.00000  Uiso   1.00
H1112  H     0.35835   0.50162   0.64017   0.00000  Uiso   1.00
H1113  H     0.41672   0.54382   0.59874   0.00000  Uiso   1.00
H1114  H     0.35846   0.61247   0.60977   0.00000  Uiso   1.00
H1115  H     0.64061   0.58633   0.65892   0.00000  Uiso   1.00
H1116  H     0.33694   0.57687   0.89826   0.00000  Uiso   1.00
H1117  H     0.37639   0.56455   0.84386   0.00000  Uiso   1.00
H1118  H     0.62624   0.56003   0.85715   0.00000  Uiso   1.00
H1119  H     0.65209   0.46791   0.85277   0.00000  Uiso   1.00
H1120  H     0.64530   0.59432   0.97670   0.00000  Uiso   1.00
H1121  H     0.60690   0.48206   0.90458   0.00000  Uiso   1.00
H1122  H     0.42164   0.34597   0.83181   0.00000  Uiso   1.00
H1123  H     0.43406   0.37455   0.90528   0.00000  Uiso   1.00
H1124  H     0.53750   0.38219   0.92303   0.00000  Uiso   1.00
H1125  H     0.62897   0.36103   0.86698   0.00000  Uiso   1.00
H1126  H     0.61789   0.66664   0.79306   0.00000  Uiso   1.00
H1127  H     0.40285   0.35224   0.68942   0.00000  Uiso   1.00
H1128  H     0.42411   0.35790   0.60911   0.00000  Uiso   1.00
H1129  H     0.52484   0.34098   0.56190   0.00000  Uiso   1.00
H1130  H     0.60772   0.65726   0.59546   0.00000  Uiso   1.00
H1131  H     0.47872   0.46515   0.60825   0.00000  Uiso   1.00
H1132  H     0.59050   0.65717   0.67575   0.00000  Uiso   1.00
H1133  H     0.52862   0.51825   0.89151   0.00000  Uiso   1.00
H1134  H     0.63654   0.45486   0.96376   0.00000  Uiso   1.00
H1135  H     0.34649   0.58572   0.54086   0.00000  Uiso   1.00
H1136  H     0.41065   0.44697   0.57273   0.00000  Uiso   1.00
H1137  H     0.56699   0.57404   0.93521   0.00000  Uiso   1.00
H1138  H     0.33661   0.54165   0.78063   0.00000  Uiso   1.00
N1139  N     0.64839   0.51401   0.76212   0.00000  Uiso   1.00
N1140  N     0.35161   0.48599   0.73788   0.00000  Uiso   1.00
O1141  O     0.46148   0.57142   0.74686   0.00000  Uiso   1.00
O1142  O     0.53852   0.42858   0.75314   0.00000  Uiso   1.00
O1143  O     0.56163   0.58086   0.75502   0.00000  Uiso   1.00
O1144  O     0.43837   0.41914   0.74498   0.00000  Uiso   1.00
O1145  O     0.42185   0.49263   0.80854   0.00000  Uiso   1.00
O1146  O     0.57815   0.50737   0.69145   0.00000  Uiso   1.00
O1147  O     0.52199   0.50207   0.81671   0.00000  Uiso   1.00
O1148  O     0.47801   0.49793   0.68329   0.00000  Uiso   1.00
C1149  C     0.84647   0.59955   0.75283   0.00000  Uiso   1.00
C1150  C     0.87213   0.50468   0.66684   0.00000  Uiso   1.00
C1151  C     0.76952   0.49560   0.88181   0.00000  Uiso   1.00
C1152  C     0.89621   0.51288   0.61909   0.00000  Uiso   1.00
C1153  C     0.68607   0.46852   0.94774   0.00000  Uiso   1.00
C1154  C     0.96895   0.55933   0.55556   0.00000  Uiso   1.00
C1155  C     0.70424   0.48377   0.90325   0.00000  Uiso   1.00
C1156  C     0.95479   0.54631   0.59999   0.00000  Uiso   1.00
C1157  C     0.81291   0.50586   0.90760   0.00000  Uiso   1.00
C1158  C     0.85493   0.49197   0.59282   0.00000  Uiso   1.00
C1159  C     0.79398   0.49867   0.95322   0.00000  Uiso   1.00
C1160  C     0.82023   0.40055   0.74726   0.00000  Uiso   1.00
C1161  C     0.86655   0.50840   0.54906   0.00000  Uiso   1.00
C1162  C     0.73129   0.47376   0.97225   0.00000  Uiso   1.00
C1163  C     0.92454   0.54322   0.53099   0.00000  Uiso   1.00
C1164  C     0.83657   0.51412   0.97997   0.00000  Uiso   1.00
C1165  C     0.82119   0.49414   0.52346   0.00000  Uiso   1.00
C1166  C     0.99945   0.57479   0.62626   0.00000  Uiso   1.00
C1167  C     0.71450   0.54296   0.63047   0.00000  Uiso   1.00
C1168  C     0.98752   0.49324   0.88171   0.00000  Uiso   1.00
C1169  C     0.99890   0.55182   0.86953   0.00000  Uiso   1.00
C1170  C     0.85238   0.33796   0.80685   0.00000  Uiso   1.00
C1171  C     0.75985   0.46341   0.54010   0.00000  Uiso   1.00
C1172  C     0.80057   0.34952   0.83901   0.00000  Uiso   1.00
C1173  C     0.80735   0.36550   0.88072   0.00000  Uiso   1.00
C1174  C     0.86563   0.36971   0.89076   0.00000  Uiso   1.00
C1175  C     0.91720   0.35780   0.85914   0.00000  Uiso   1.00
C1176  C     0.91072   0.34201   0.81732   0.00000  Uiso   1.00
C1177  C     0.82748   0.33523   0.68902   0.00000  Uiso   1.00
C1178  C     0.78056   0.34458   0.66945   0.00000  Uiso   1.00
C1179  C     0.79220   0.34750   0.62384   0.00000  Uiso   1.00
C1180  C     0.84933   0.33867   0.59720   0.00000  Uiso   1.00
C1181  C     0.89584   0.66189   0.61615   0.00000  Uiso   1.00
C1182  C     0.89197   0.55216   0.96514   0.00000  Uiso   1.00
C1183  C     0.88537   0.66074   0.66175   0.00000  Uiso   1.00
C1184  C     0.71471   0.45600   0.51562   0.00000  Uiso   1.00
C1185  C     0.93612   0.56522   0.98960   0.00000  Uiso   1.00
C1186  C     0.84521   0.65344   0.76246   0.00000  Uiso   1.00
C1187  C     0.82286   0.34720   0.73635   0.00000  Uiso   1.00
C1188  C     0.79448   0.49757   0.83339   0.00000  Uiso   1.00
Cu1189 Cu    0.77404   0.49441   0.74516   0.00000  Uiso   1.00
Cu1190 Cu    0.89263   0.50559   0.75483   0.00000  Uiso   1.00
H1191  H     0.66696   0.43552   0.53047   0.00000  Uiso   1.00
H1192  H     0.99728   0.45927   0.71833   0.00000  Uiso   1.00
H1193  H     0.73928   0.56091   0.65552   0.00000  Uiso   1.00
H1194  H     0.69168   0.50162   0.64017   0.00000  Uiso   1.00
H1195  H     0.75005   0.54382   0.59874   0.00000  Uiso   1.00
H1196  H     0.69179   0.61247   0.60977   0.00000  Uiso   1.00
H1197  H     0.97394   0.58633   0.65892   0.00000  Uiso   1.00
H1198  H     0.67027   0.57687   0.89826   0.00000  Uiso   1.00
H1199  H     0.70972   0.56455   0.84386   0.00000  Uiso   1.00
H1200  H     0.95957   0.56003   0.85715   0.00000  Uiso   1.00
H1201  H     0.98543   0.46791   0.85277   0.00000  Uiso   1.00
H1202  H     0.97863   0.59432   0.97670   0.00000  Uiso   1.00
H1203  H     0.94023   0.48206   0.90458   0.00000  Uiso   1.00
H1204  H     0.75498   0.34597   0.83181   0.00000  Uiso   1.00
H1205  H     0.76740   0.37455   0.90528   0.00000  Uiso   1.00
H1206  H     0.87083   0.38219   0.92303   0.00000  Uiso   1.00
H1207  H     0.96230   0.36103   0.86698   0.00000  Uiso   1.00
H1208  H     0.95122   0.66664   0.79306   0.00000  Uiso   1.00
H1209  H     0.73618   0.35224   0.68942   0.00000  Uiso   1.00
H1210  H     0.75745   0.35790   0.60911   0.00000  Uiso   1.00
H1211  H     0.85817   0.34098   0.56190   0.00000  Uiso   1.00
H1212  H     0.94105   0.65726   0.59546   0.00000  Uiso   1.00
H1213  H     0.81206   0.46515   0.60825   0.00000  Uiso   1.00
H1214  H     0.92383   0.65717   0.67575   0.00000  Uiso   1.00
H1215  H     0.86195   0.51825   0.89151   0.00000  Uiso   1.00
H1216  H     0.96988   0.45486   0.96376   0.00000  Uiso   1.00
H1217  H     0.67982   0.58572   0.54086   0.00000  Uiso   1.00
H1218  H     0.74398   0.44697   0.57273   0.00000  Uiso   1.00
H1219  H     0.90032   0.57404   0.93521   0.00000  Uiso   1.00
H1220  H     0.66995   0.54165   0.78063   0.00000  Uiso   1.00
N1221  N     0.98173   0.51401   0.76212   0.00000  Uiso   1.00
N1222  N     0.68494   0.48599   0.73788   0.00000  Uiso   1.00
O1223  O     0.79482   0.57142   0.74686   0.00000  Uiso   1.00
O1224  O     0.87185   0.42858   0.75314   0.00000  Uiso   1.00
O1225  O     0.89496   0.58086   0.75502   0.00000  Uiso   1.00
O1226  O     0.77171   0.41914   0.74498   0.00000  Uiso   1.00
O1227  O     0.75518   0.49263   0.80854   0.00000  Uiso   1.00
O1228  O     0.91149   0.50737   0.69145   0.00000  Uiso   1.00
O1229  O     0.85532   0.50207   0.81671   0.00000  Uiso   1.00
O1230  O     0.81134   0.49793   0.68329   0.00000  Uiso   1.00
C1231  C     0.17981   0.93288   0.75283   0.00000  Uiso   1.00
C1232  C     0.20546   0.83801   0.66684   0.00000  Uiso   1.00
C1233  C     0.10285   0.82894   0.88181   0.00000  Uiso   1.00
C1234  C     0.22954   0.84622   0.61909   0.00000  Uiso   1.00
C1235  C     0.01941   0.80185   0.94774   0.00000  Uiso   1.00
C1236  C     0.30228   0.89266   0.55556   0.00000  Uiso   1.00
C1237  C     0.03757   0.81711   0.90325   0.00000  Uiso   1.00
C1238  C     0.28813   0.87965   0.59999   0.00000  Uiso   1.00
C1239  C     0.14624   0.83919   0.90760   0.00000  Uiso   1.00
C1240  C     0.18826   0.82530   0.59282   0.00000  Uiso   1.00
C1241  C     0.12731   0.83200   0.95322   0.00000  Uiso   1.00
C1242  C     0.15356   0.73388   0.74726   0.00000  Uiso   1.00
C1243  C     0.19988   0.84174   0.54906   0.00000  Uiso   1.00
C1244  C     0.06462   0.80709   0.97225   0.00000  Uiso   1.00
C1245  C     0.25788   0.87656   0.53099   0.00000  Uiso   1.00
C1246  C     0.16991   0.84746   0.97997   0.00000  Uiso   1.00
C1247  C     0.15453   0.82748   0.52346   0.00000  Uiso   1.00
C1248  C     0.33278   0.90812   0.62626   0.00000  Uiso   1.00
C1249  C     0.04783   0.87630   0.63047   0.00000  Uiso   1.00
C1250  C     0.32085   0.82658   0.88171   0.00000  Uiso   1.00
C1251  C     0.33223   0.88516   0.86953   0.00000  Uiso   1.00
C1252  C     0.18572   0.67129   0.80685   0.00000  Uiso   1.00
C1253  C     0.09318   0.79674   0.54010   0.00000  Uiso   1.00
C1254  C     0.13390   0.68285   0.83901   0.00000  Uiso   1.00
C1255  C     0.14069   0.69883   0.88072   0.00000  Uiso   1.00
C1256  C     0.19897   0.70304   0.89076   0.00000  Uiso   1.00
C1257  C     0.25053   0.69113   0.85914   0.00000  Uiso   1.00
C1258  C     0.24405   0.67534   0.81732   0.00000  Uiso   1.00
C1259  C     0.16081   0.66857   0.68902   0.00000  Uiso   1.00
C1260  C     0.11389   0.67792   0.66945   0.00000  Uiso   1.00
C1261  C     0.12553   0.68083   0.62384   0.00000  Uiso   1.00
C1262  C     0.18266   0.67201   0.59720   0.00000  Uiso   1.00
C1263  C     0.22917   0.99522   0.61615   0.00000  Uiso   1.00
C1264  C     0.22530   0.88549   0.96514   0.00000  Uiso   1.00
C1265  C     0.21870   0.99407   0.66175   0.00000  Uiso   1.00
C1266  C     0.04805   0.78933   0.51562   0.00000  Uiso   1.00
C1267  C     0.26945   0.89856   0.98960   0.00000  Uiso   1.00
C1268  C     0.17855   0.98677   0.76246   0.00000  Uiso   1.00
C1269  C     0.15619   0.68054   0.73635   0.00000  Uiso   1.00
C1270  C     0.12781   0.83090   0.83339   0.00000  Uiso   1.00
Cu1271 Cu    0.10737   0.82775   0.74516   0.00000  Uiso   1.00
Cu1272 Cu    0.22596   0.83892   0.75483   0.00000  Uiso   1.00
H1273  H     0.00029   0.76886   0.53047   0.00000  Uiso   1.00
H1274  H     0.33061   0.79260   0.71833   0.00000  Uiso   1.00
H1275  H     0.07261   0.89424   0.65552   0.00000  Uiso   1.00
H1276  H     0.02501   0.83496   0.64017   0.00000  Uiso   1.00
H1277  H     0.08338   0.87716   0.59874   0.00000  Uiso   1.00
H1278  H     0.02513   0.94581   0.60977   0.00000  Uiso   1.00
H1279  H     0.30728   0.91967   0.65892   0.00000  Uiso   1.00
H1280  H     0.00360   0.91021   0.89826   0.00000  Uiso   1.00
H1281  H     0.04306   0.89788   0.84386   0.00000  Uiso   1.00
H1282  H     0.29290   0.89337   0.85715   0.00000  Uiso   1.00
H1283  H     0.31876   0.80125   0.85277   0.00000  Uiso   1.00
H1284  H     0.31196   0.92765   0.97670   0.00000  Uiso   1.00
H1285  H     0.27357   0.81540   0.90458   0.00000  Uiso   1.00
H1286  H     0.08831   0.67930   0.83181   0.00000  Uiso   1.00
H1287  H     0.10073   0.70789   0.90528   0.00000  Uiso   1.00
H1288  H     0.20416   0.71552   0.92303   0.00000  Uiso   1.00
H1289  H     0.29564   0.69436   0.86698   0.00000  Uiso   1.00
H1290  H     0.28456   0.99997   0.79306   0.00000  Uiso   1.00
H1291  H     0.06951   0.68557   0.68942   0.00000  Uiso   1.00
H1292  H     0.09078   0.69124   0.60911   0.00000  Uiso   1.00
H1293  H     0.19150   0.67431   0.56190   0.00000  Uiso   1.00
H1294  H     0.27438   0.99059   0.59546   0.00000  Uiso   1.00
H1295  H     0.14539   0.79849   0.60825   0.00000  Uiso   1.00
H1296  H     0.25716   0.99050   0.67575   0.00000  Uiso   1.00
H1297  H     0.19528   0.85159   0.89151   0.00000  Uiso   1.00
H1298  H     0.30321   0.78820   0.96376   0.00000  Uiso   1.00
H1299  H     0.01316   0.91905   0.54086   0.00000  Uiso   1.00
H1300  H     0.07732   0.78030   0.57273   0.00000  Uiso   1.00
H1301  H     0.23366   0.90738   0.93521   0.00000  Uiso   1.00
H1302  H     0.00328   0.87498   0.78063   0.00000  Uiso   1.00
N1303  N     0.31506   0.84735   0.76212   0.00000  Uiso   1.00
N1304  N     0.01827   0.81932   0.73788   0.00000  Uiso   1.00
O1305  O     0.12815   0.90476   0.74686   0.00000  Uiso   1.00
O1306  O     0.20518   0.76191   0.75314   0.00000  Uiso   1.00
O1307  O     0.22829   0.91420   0.75502   0.00000  Uiso   1.00
O1308  O     0.10504   0.75247   0.74498   0.00000  Uiso   1.00
O1309  O     0.08851   0.82597   0.80854   0.00000  Uiso   1.00
O1310  O     0.24482   0.84070   0.69145   0.00000  Uiso   1.00
O1311  O     0.18866   0.83540   0.81671   0.00000  Uiso   1.00
O1312  O     0.14468   0.83126   0.68329   0.00000  Uiso   1.00
C1313  C     0.51314   0.93288   0.75283   0.00000  Uiso   1.00
C1314  C     0.53880   0.83801   0.66684   0.00000  Uiso   1.00
C1315  C     0.43619   0.82894   0.88181   0.00000  Uiso   1.00
C1316  C     0.56288   0.84622   0.61909   0.00000  Uiso   1.00
C1317  C     0.35274   0.80185   0.94774   0.00000  Uiso   1.00
C1318  C     0.63561   0.89266   0.55556   0.00000  Uiso   1.00
C1319  C     0.37091   0.81711   0.90325   0.00000  Uiso   1.00
C1320  C     0.62146   0.87965   0.59999   0.00000  Uiso   1.00
C1321  C     0.47957   0.83919   0.90760   0.00000  Uiso   1.00
C1322  C     0.52160   0.82530   0.59282   0.00000  Uiso   1.00
C1323  C     0.46065   0.83200   0.95322   0.00000  Uiso   1.00
C1324  C     0.48689   0.73388   0.74726   0.00000  Uiso   1.00
C1325  C     0.53322   0.84174   0.54906   0.00000  Uiso   1.00
C1326  C     0.39796   0.80709   0.97225   0.00000  Uiso   1.00
C1327  C     0.59121   0.87656   0.53099   0.00000  Uiso   1.00
C1328  C     0.50324   0.84746   0.97997   0.00000  Uiso   1.00
C1329  C     0.48786   0.82748   0.52346   0.00000  Uiso   1.00
C1330  C     0.66611   0.90812   0.62626   0.00000  Uiso   1.00
C1331  C     0.38116   0.87630   0.63047   0.00000  Uiso   1.00
C1332  C     0.65419   0.82658   0.88171   0.00000  Uiso   1.00
C1333  C     0.66556   0.88516   0.86953   0.00000  Uiso   1.00
C1334  C     0.51905   0.67129   0.80685   0.00000  Uiso   1.00
C1335  C     0.42652   0.79674   0.54010   0.00000  Uiso   1.00
C1336  C     0.46724   0.68285   0.83901   0.00000  Uiso   1.00
C1337  C     0.47402   0.69883   0.88072   0.00000  Uiso   1.00
C1338  C     0.53230   0.70304   0.89076   0.00000  Uiso   1.00
C1339  C     0.58387   0.69113   0.85914   0.00000  Uiso   1.00
C1340  C     0.57739   0.67534   0.81732   0.00000  Uiso   1.00
C1341  C     0.49415   0.66857   0.68902   0.00000  Uiso   1.00
C1342  C     0.44723   0.67792   0.66945   0.00000  Uiso   1.00
C1343  C     0.45886   0.68083   0.62384   0.00000  Uiso   1.00
C1344  C     0.51600   0.67201   0.59720   0.00000  Uiso   1.00
C1345  C     0.56251   0.99522   0.61615   0.00000  Uiso   1.00
C1346  C     0.55864   0.88549   0.96514   0.00000  Uiso   1.00
C1347  C     0.55204   0.99407   0.66175   0.00000  Uiso   1.00
C1348  C     0.38138   0.78933   0.51562   0.00000  Uiso   1.00
C1349  C     0.60279   0.89856   0.98960   0.00000  Uiso   1.00
C1350  C     0.51188   0.98677   0.76246   0.00000  Uiso   1.00
C1351  C     0.48953   0.68054   0.73635   0.00000  Uiso   1.00
C1352  C     0.46115   0.83090   0.83339   0.00000  Uiso   1.00
Cu1353 Cu    0.44071   0.82775   0.74516   0.00000  Uiso   1.00
Cu1354 Cu    0.55929   0.83892   0.75483   0.00000  Uiso   1.00
H1355  H     0.33363   0.76886   0.53047   0.00000  Uiso   1.00
H1356  H     0.66395   0.79260   0.71833   0.00000  Uiso   1.00
H1357  H     0.40594   0.89424   0.65552   0.00000  Uiso   1.00
H1358  H     0.35835   0.83496   0.64017   0.00000  Uiso   1.00
H1359  H     0.41672   0.87716   0.59874   0.00000  Uiso   1.00
H1360  H     0.35846   0.94581   0.60977   0.00000  Uiso   1.00
H1361  H     0.64061   0.91967   0.65892   0.00000  Uiso   1.00
H1362  H     0.33694   0.91021   0.89826   0.00000  Uiso   1.00
H1363  H     0.37639   0.89788   0.84386   0.00000  Uiso   1.00
H1364  H     0.62624   0.89337   0.85715   0.00000  Uiso   1.00
H1365  H     0.65209   0.80125   0.85277   0.00000  Uiso   1.00
H1366  H     0.64530   0.92765   0.97670   0.00000  Uiso   1.00
H1367  H     0.60690   0.81540   0.90458   0.00000  Uiso   1.00
H1368  H     0.42164   0.67930   0.83181   0.00000  Uiso   1.00
H1369  H     0.43406   0.70789   0.90528   0.00000  Uiso   1.00
H1370  H     0.53750   0.71552   0.92303   0.00000  Uiso   1.00
H1371  H     0.62897   0.69436   0.86698   0.00000  Uiso   1.00
H1372  H     0.61789   0.99997   0.79306   0.00000  Uiso   1.00
H1373  H     0.40285   0.68557   0.68942   0.00000  Uiso   1.00
H1374  H     0.42411   0.69124   0.60911   0.00000  Uiso   1.00
H1375  H     0.52484   0.67431   0.56190   0.00000  Uiso   1.00
H1376  H     0.60772   0.99059   0.59546   0.00000  Uiso   1.00
H1377  H     0.47872   0.79849   0.60825   0.00000  Uiso   1.00
H1378  H     0.59050   0.99050   0.67575   0.00000  Uiso   1.00
H1379  H     0.52862   0.85159   0.89151   0.00000  Uiso   1.00
H1380  H     0.63654   0.78820   0.96376   0.00000  Uiso   1.00
H1381  H     0.34649   0.91905   0.54086   0.00000  Uiso   1.00
H1382  H     0.41065   0.78030   0.57273   0.00000  Uiso   1.00
H1383  H     0.56699   0.90738   0.93521   0.00000  Uiso   1.00
H1384  H     0.33661   0.87498   0.78063   0.00000  Uiso   1.00
N1385  N     0.64839   0.84735   0.76212   0.00000  Uiso   1.00
N1386  N     0.35161   0.81932   0.73788   0.00000  Uiso   1.00
O1387  O     0.46148   0.90476   0.74686   0.00000  Uiso   1.00
O1388  O     0.53852   0.76191   0.75314   0.00000  Uiso   1.00
O1389  O     0.56163   0.91420   0.75502   0.00000  Uiso   1.00
O1390  O     0.43837   0.75247   0.74498   0.00000  Uiso   1.00
O1391  O     0.42185   0.82597   0.80854   0.00000  Uiso   1.00
O1392  O     0.57815   0.84070   0.69145   0.00000  Uiso   1.00
O1393  O     0.52199   0.83540   0.81671   0.00000  Uiso   1.00
O1394  O     0.47801   0.83126   0.68329   0.00000  Uiso   1.00
C1395  C     0.84647   0.93288   0.75283   0.00000  Uiso   1.00
C1396  C     0.87213   0.83801   0.66684   0.00000  Uiso   1.00
C1397  C     0.76952   0.82894   0.88181   0.00000  Uiso   1.00
C1398  C     0.89621   0.84622   0.61909   0.00000  Uiso   1.00
C1399  C     0.68607   0.80185   0.94774   0.00000  Uiso   1.00
C1400  C     0.96895   0.89266   0.55556   0.00000  Uiso   1.00
C1401  C     0.70424   0.81711   0.90325   0.00000  Uiso   1.00
C1402  C     0.95479   0.87965   0.59999   0.00000  Uiso   1.00
C1403  C     0.81291   0.83919   0.90760   0.00000  Uiso   1.00
C1404  C     0.85493   0.82530   0.59282   0.00000  Uiso   1.00
C1405  C     0.79398   0.83200   0.95322   0.00000  Uiso   1.00
C1406  C     0.82023   0.73388   0.74726   0.00000  Uiso   1.00
C1407  C     0.86655   0.84174   0.54906   0.00000  Uiso   1.00
C1408  C     0.73129   0.80709   0.97225   0.00000  Uiso   1.00
C1409  C     0.92454   0.87656   0.53099   0.00000  Uiso   1.00
C1410  C     0.83657   0.84746   0.97997   0.00000  Uiso   1.00
C1411  C     0.82119   0.82748   0.52346   0.00000  Uiso   1.00
C1412  C     0.99945   0.90812   0.62626   0.00000  Uiso   1.00
C1413  C     0.71450   0.87630   0.63047   0.00000  Uiso   1.00
C1414  C     0.98752   0.82658   0.88171   0.00000  Uiso   1.00
C1415  C     0.99890   0.88516   0.86953   0.00000  Uiso   1.00
C1416  C     0.85238   0.67129   0.80685   0.00000  Uiso   1.00
C1417  C     0.75985   0.79674   0.54010   0.00000  Uiso   1.00
C1418  C     0.80057   0.68285   0.83901   0.00000  Uiso   1.00
C1419  C     0.80735   0.69883   0.88072   0.00000  Uiso   1.00
C1420  C     0.86563   0.70304   0.89076   0.00000  Uiso   1.00
C1421  C     0.91720   0.69113   0.85914   0.00000  Uiso   1.00
C1422  C     0.91072   0.67534   0.81732   0.00000  Uiso   1.00
C1423  C     0.82748   0.66857   0.68902   0.00000  Uiso   1.00
C1424  C     0.78056   0.67792   0.66945   0.00000  Uiso   1.00
C1425  C     0.79220   0.68083   0.62384   0.00000  Uiso   1.00
C1426  C     0.84933   0.67201   0.59720   0.00000  Uiso   1.00
C1427  C     0.89584   0.99522   0.61615   0.00000  Uiso   1.00
C1428  C     0.89197   0.88549   0.96514   0.00000  Uiso   1.00
C1429  C     0.88537   0.99407   0.66175   0.00000  Uiso   1.00
C1430  C     0.71471   0.78933   0.51562   0.00000  Uiso   1.00
C1431  C     0.93612   0.89856   0.98960   0.00000  Uiso   1.00
C1432  C     0.84521   0.98677   0.76246   0.00000  Uiso   1.00
C1433  C     0.82286   0.68054   0.73635   0.00000  Uiso   1.00
C1434  C     0.79448   0.83090   0.83339   0.00000  Uiso   1.00
Cu1435 Cu    0.77404   0.82775   0.74516   0.00000  Uiso   1.00
Cu1436 Cu    0.89263   0.83892   0.75483   0.00000  Uiso   1.00
H1437  H     0.66696   0.76886   0.53047   0.00000  Uiso   1.00
H1438  H     0.99728   0.79260   0.71833   0.00000  Uiso   1.00
H1439  H     0.73928   0.89424   0.65552   0.00000  Uiso   1.00
H1440  H     0.69168   0.83496   0.64017   0.00000  Uiso   1.00
H1441  H     0.75005   0.87716   0.59874   0.00000  Uiso   1.00
H1442  H     0.69179   0.94581   0.60977   0.00000  Uiso   1.00
H1443  H     0.97394   0.91967   0.65892   0.00000  Uiso   1.00
H1444  H     0.67027   0.91021   0.89826   0.00000  Uiso   1.00
H1445  H     0.70972   0.89788   0.84386   0.00000  Uiso   1.00
H1446  H     0.95957   0.89337   0.85715   0.00000  Uiso   1.00
H1447  H     0.98543   0.80125   0.85277   0.00000  Uiso   1.00
H1448  H     0.97863   0.92765   0.97670   0.00000  Uiso   1.00
H1449  H     0.94023   0.81540   0.90458   0.00000  Uiso   1.00
H1450  H     0.75498   0.67930   0.83181   0.00000  Uiso   1.00
H1451  H     0.76740   0.70789   0.90528   0.00000  Uiso   1.00
H1452  H     0.87083   0.71552   0.92303   0.00000  Uiso   1.00
H1453  H     0.96230   0.69436   0.86698   0.00000  Uiso   1.00
H1454  H     0.95122   0.99997   0.79306   0.00000  Uiso   1.00
H1455  H     0.73618   0.68557   0.68942   0.00000  Uiso   1.00
H1456  H     0.75745   0.69124   0.60911   0.00000  Uiso   1.00
H1457  H     0.85817   0.67431   0.56190   0.00000  Uiso   1.00
H1458  H     0.94105   0.99059   0.59546   0.00000  Uiso   1.00
H1459  H     0.81206   0.79849   0.60825   0.00000  Uiso   1.00
H1460  H     0.92383   0.99050   0.67575   0.00000  Uiso   1.00
H1461  H     0.86195   0.85159   0.89151   0.00000  Uiso   1.00
H1462  H     0.96988   0.78820   0.96376   0.00000  Uiso   1.00
H1463  H     0.67982   0.91905   0.54086   0.00000  Uiso   1.00
H1464  H     0.74398   0.78030   0.57273   0.00000  Uiso   1.00
H1465  H     0.90032   0.90738   0.93521   0.00000  Uiso   1.00
H1466  H     0.66995   0.87498   0.78063   0.00000  Uiso   1.00
N1467  N     0.98173   0.84735   0.76212   0.00000  Uiso   1.00
N1468  N     0.68494   0.81932   0.73788   0.00000  Uiso   1.00
O1469  O     0.79482   0.90476   0.74686   0.00000  Uiso   1.00
O1470  O     0.87185   0.76191   0.75314   0.00000  Uiso   1.00
O1471  O     0.89496   0.91420   0.75502   0.00000  Uiso   1.00
O1472  O     0.77171   0.75247   0.74498   0.00000  Uiso   1.00
O1473  O     0.75518   0.82597   0.80854   0.00000  Uiso   1.00
O1474  O     0.91149   0.84070   0.69145   0.00000  Uiso   1.00
O1475  O     0.85532   0.83540   0.81671   0.00000  Uiso   1.00
O1476  O     0.81134   0.83126   0.68329   0.00000  Uiso   1.00
loop_
_geom_bond_atom_site_label_1
_geom_bond_atom_site_label_2
_geom_bond_distance
_geom_bond_site_symmetry_2
_ccdc_geom_bond_type
C1     O77     1.292   .     A
C1     O75     1.286   .     A
C1     C38     1.424   .     S
C2     C4      1.474   .     S
C2     O82     1.302   .     A
C2     O80     1.302   .     A
C3     C7      1.418   .     A
C3     C9      1.395   .     A
C3     C40     1.487   .     S
C4     C8      1.418   .     A
C4     C10     1.406   .     A
C5     C7      1.409   .     A
C5     C14     1.402   .     A
C5     H232    1.084   1_455 S
C6     C15     1.397   .     A
C6     C8      1.397   .     A
C6     H151    1.085   .     S
C7     C184    1.511   1_455 S
C8     C18     1.514   .     S
C9     H67     1.072   .     S
C9     C11     1.403   .     A
C10    H65     1.077   .     S
C10    C13     1.407   .     A
C11    C14     1.406   .     A
C11    C16     1.414   .     A
C12    O78     1.292   .     A
C12    C39     1.423   .     S
C12    O76     1.283   .     A
C13    C15     1.418   .     A
C13    C17     1.432   .     A
C14    C774    1.396   .     S
C15    C775    1.390   1_554 S
C16    C34     1.404   .     A
C16    C755    1.421   .     S
C17    C23     1.419   .     A
C17    C754    1.421   1_554 S
C18    H49     1.106   .     S
C18    C101    1.522   .     S
C18    H130    1.105   .     S
C19    H46     1.110   .     S
C19    H47     1.107   .     S
C19    H45     1.110   .     S
C19    C182    1.522   1_455 S
C20    H55     1.107   .     S
C20    H53     1.107   .     S
C20    C21     1.540   .     S
C20    C89     1.511   .     S
C21    H52     1.108   .     S
C21    H132    1.107   .     S
C21    H133    1.106   .     S
C22    C28     1.406   .     A
C22    C24     1.407   .     A
C22    C530    1.493   1_545 S
C23    H70     1.077   .     S
C23    C36     1.397   .     A
C24    C25     1.398   .     A
C24    H56     1.083   .     S
C25    H57     1.083   .     S
C25    C26     1.397   .     A
C26    C27     1.398   .     A
C26    H58     1.083   .     S
C27    H59     1.083   .     S
C27    C28     1.399   .     A
C28    H552    1.083   1_545 S
C29    C30     1.408   .     A
C29    C39     1.494   .     S
C29    C527    1.408   1_545 S
C30    C31     1.399   .     A
C30    H61     1.083   .     S
C31    H62     1.082   .     S
C31    C32     1.395   .     A
C32    H63     1.083   .     S
C32    C525    1.395   1_545 S
C33    H64     1.081   .     S
C33    C35     1.398   .     A
C33    C278    1.395   .     S
C34    C37     1.381   .     A
C34    H71     1.079   .     S
C35    H66     1.081   .     S
C35    C275    1.408   .     S
C36    H43     1.084   .     S
C36    C752    1.396   1_554 S
C37    H54     1.084   .     S
C37    C753    1.390   .     S
C38    C268    1.493   .     S
C38    C285    1.351   .     S
C39    C530    1.351   1_545 S
C40    O79     1.302   .     A
C40    O81     1.309   .     A
Cu41   Cu42    2.697   .     S
Cu41   N74     2.027   .     S
Cu41   O78     1.946   .     S
Cu41   O75     1.961   .     S
Cu41   O79     1.937   .     S
Cu41   O82     1.917   .     S
Cu42   O80     1.937   .     S
Cu42   O81     1.917   .     S
Cu42   N73     2.027   .     S
Cu42   O76     1.961   .     S
Cu42   O77     1.946   .     S
H44    N156    1.029   .     S
H48    C182    1.105   1_455 S
H50    C185    1.107   1_455 S
H51    C185    1.106   1_455 S
H60    C274    1.083   .     S
H68    C87     1.084   .     S
H69    C170    1.085   1_455 S
H72    N237    1.026   1_455 S
N73    H154    1.026   .     S
N73    N156    1.289   .     S
N74    H208    1.029   1_455 S
N74    N237    1.289   1_455 S
C83    O159    1.292   .     A
C83    O157    1.286   .     A
C83    C120    1.424   .     S
C84    C86     1.474   .     S
C84    O164    1.302   .     A
C84    O162    1.302   .     A
C85    C89     1.418   .     A
C85    C91     1.395   .     A
C85    C122    1.487   .     S
C86    C90     1.418   .     A
C86    C92     1.406   .     A
C87    C89     1.409   .     A
C87    C96     1.402   .     A
C88    C97     1.397   .     A
C88    C90     1.397   .     A
C88    H233    1.085   .     S
C90    C100    1.514   .     S
C91    H149    1.072   .     S
C91    C93     1.403   .     A
C92    H147    1.077   .     S
C92    C95     1.407   .     A
C93    C96     1.406   .     A
C93    C98     1.414   .     A
C94    O160    1.292   .     A
C94    C121    1.423   .     S
C94    O158    1.283   .     A
C95    C97     1.418   .     A
C95    C99     1.432   .     A
C96    C856    1.396   .     S
C97    C857    1.390   1_554 S
C98    C116    1.404   .     A
C98    C837    1.421   .     S
C99    C105    1.419   .     A
C99    C836    1.421   1_554 S
C100   H131    1.106   .     S
C100   C183    1.522   .     S
C100   H212    1.105   .     S
C101   H128    1.110   .     S
C101   H129    1.107   .     S
C101   H127    1.110   .     S
C102   H137    1.107   .     S
C102   H135    1.107   .     S
C102   C103    1.540   .     S
C102   C171    1.511   .     S
C103   H134    1.108   .     S
C103   H214    1.107   .     S
C103   H215    1.106   .     S
C104   C110    1.406   .     A
C104   C106    1.407   .     A
C104   C612    1.493   1_545 S
C105   H152    1.077   .     S
C105   C118    1.397   .     A
C106   C107    1.398   .     A
C106   H138    1.083   .     S
C107   H139    1.083   .     S
C107   C108    1.397   .     A
C108   C109    1.398   .     A
C108   H140    1.083   .     S
C109   H141    1.083   .     S
C109   C110    1.399   .     A
C110   H634    1.083   1_545 S
C111   C112    1.408   .     A
C111   C121    1.494   .     S
C111   C609    1.408   1_545 S
C112   C113    1.399   .     A
C112   H143    1.083   .     S
C113   H144    1.082   .     S
C113   C114    1.395   .     A
C114   H145    1.083   .     S
C114   C607    1.395   1_545 S
C115   H146    1.081   .     S
C115   C117    1.398   .     A
C115   C360    1.395   .     S
C116   C119    1.381   .     A
C116   H153    1.079   .     S
C117   H148    1.081   .     S
C117   C357    1.408   .     S
C118   H125    1.084   .     S
C118   C834    1.396   1_554 S
C119   H136    1.084   .     S
C119   C835    1.390   .     S
C120   C350    1.493   .     S
C120   C367    1.351   .     S
C121   C612    1.351   1_545 S
C122   O161    1.302   .     A
C122   O163    1.309   .     A
Cu123  Cu124   2.697   .     S
Cu123  N156    2.027   .     S
Cu123  O160    1.946   .     S
Cu123  O157    1.961   .     S
Cu123  O161    1.937   .     S
Cu123  O164    1.917   .     S
Cu124  O162    1.937   .     S
Cu124  O163    1.917   .     S
Cu124  N155    2.027   .     S
Cu124  O158    1.961   .     S
Cu124  O159    1.946   .     S
H126   N238    1.029   .     S
H142   C356    1.083   .     S
H150   C169    1.084   .     S
N155   H236    1.026   .     S
N155   N238    1.289   .     S
C165   O241    1.292   .     A
C165   O239    1.286   .     A
C165   C202    1.424   .     S
C166   C168    1.474   .     S
C166   O246    1.302   .     A
C166   O244    1.302   .     A
C167   C171    1.418   .     A
C167   C173    1.395   .     A
C167   C204    1.487   .     S
C168   C172    1.418   .     A
C168   C174    1.406   .     A
C169   C171    1.409   .     A
C169   C178    1.402   .     A
C170   C179    1.397   .     A
C170   C172    1.397   .     A
C170   H69     1.085   1_655 S
C172   C182    1.514   .     S
C173   H231    1.072   .     S
C173   C175    1.403   .     A
C174   H229    1.077   .     S
C174   C177    1.407   .     A
C175   C178    1.406   .     A
C175   C180    1.414   .     A
C176   O242    1.292   .     A
C176   C203    1.423   .     S
C176   O240    1.283   .     A
C177   C179    1.418   .     A
C177   C181    1.432   .     A
C178   C938    1.396   .     S
C179   C939    1.390   1_554 S
C180   C198    1.404   .     A
C180   C919    1.421   .     S
C181   C187    1.419   .     A
C181   C918    1.421   1_554 S
C182   H213    1.106   .     S
C182   C19     1.522   1_655 S
C182   H48     1.105   1_655 S
C183   H210    1.110   .     S
C183   H211    1.107   .     S
C183   H209    1.110   .     S
C184   H219    1.107   .     S
C184   H217    1.107   .     S
C184   C185    1.540   .     S
C184   C7      1.511   1_655 S
C185   H216    1.108   .     S
C185   H50     1.107   1_655 S
C185   H51     1.106   1_655 S
C186   C192    1.406   .     A
C186   C188    1.407   .     A
C186   C694    1.493   1_545 S
C187   H234    1.077   .     S
C187   C200    1.397   .     A
C188   C189    1.398   .     A
C188   H220    1.083   .     S
C189   H221    1.083   .     S
C189   C190    1.397   .     A
C190   C191    1.398   .     A
C190   H222    1.083   .     S
C191   H223    1.083   .     S
C191   C192    1.399   .     A
C192   H716    1.083   1_545 S
C193   C194    1.408   .     A
C193   C203    1.494   .     S
C193   C691    1.408   1_545 S
C194   C195    1.399   .     A
C194   H225    1.083   .     S
C195   H226    1.082   .     S
C195   C196    1.395   .     A
C196   H227    1.083   .     S
C196   C689    1.395   1_545 S
C197   H228    1.081   .     S
C197   C199    1.398   .     A
C197   C442    1.395   .     S
C198   C201    1.381   .     A
C198   H235    1.079   .     S
C199   H230    1.081   .     S
C199   C439    1.408   .     S
C200   H207    1.084   .     S
C200   C916    1.396   1_554 S
C201   H218    1.084   .     S
C201   C917    1.390   .     S
C202   C432    1.493   .     S
C202   C449    1.351   .     S
C203   C694    1.351   1_545 S
C204   O243    1.302   .     A
C204   O245    1.309   .     A
Cu205  Cu206   2.697   .     S
Cu205  N238    2.027   .     S
Cu205  O242    1.946   .     S
Cu205  O239    1.961   .     S
Cu205  O243    1.937   .     S
Cu205  O246    1.917   .     S
Cu206  O244    1.937   .     S
Cu206  O245    1.917   .     S
Cu206  N237    2.027   .     S
Cu206  O240    1.961   .     S
Cu206  O241    1.946   .     S
H208   N74     1.029   1_655 S
H224   C438    1.083   .     S
H232   C5      1.084   1_655 S
N237   H72     1.026   1_655 S
N237   N74     1.289   1_655 S
C247   O323    1.292   .     A
C247   O321    1.286   .     A
C247   C284    1.424   .     S
C248   C250    1.474   .     S
C248   O328    1.302   .     A
C248   O326    1.302   .     A
C249   C253    1.418   .     A
C249   C255    1.395   .     A
C249   C286    1.487   .     S
C250   C254    1.418   .     A
C250   C256    1.406   .     A
C251   C253    1.409   .     A
C251   C260    1.402   .     A
C251   H478    1.084   1_455 S
C252   C261    1.397   .     A
C252   C254    1.397   .     A
C252   H397    1.085   .     S
C253   C430    1.511   1_455 S
C254   C264    1.514   .     S
C255   H313    1.072   .     S
C255   C257    1.403   .     A
C256   H311    1.077   .     S
C256   C259    1.407   .     A
C257   C260    1.406   .     A
C257   C262    1.414   .     A
C258   O324    1.292   .     A
C258   C285    1.423   .     S
C258   O322    1.283   .     A
C259   C261    1.418   .     A
C259   C263    1.432   .     A
C260   C1020   1.396   .     S
C261   C1021   1.390   1_554 S
C262   C280    1.404   .     A
C262   C1001   1.421   .     S
C263   C269    1.419   .     A
C263   C1000   1.421   1_554 S
C264   H295    1.106   .     S
C264   C347    1.522   .     S
C264   H376    1.105   .     S
C265   H292    1.110   .     S
C265   H293    1.107   .     S
C265   H291    1.110   .     S
C265   C428    1.522   1_455 S
C266   H301    1.107   .     S
C266   H299    1.107   .     S
C266   C267    1.540   .     S
C266   C335    1.511   .     S
C267   H298    1.108   .     S
C267   H378    1.107   .     S
C267   H379    1.106   .     S
C268   C274    1.406   .     A
C268   C270    1.407   .     A
C269   H316    1.077   .     S
C269   C282    1.397   .     A
C270   C271    1.398   .     A
C270   H302    1.083   .     S
C271   H303    1.083   .     S
C271   C272    1.397   .     A
C272   C273    1.398   .     A
C272   H304    1.083   .     S
C273   H305    1.083   .     S
C273   C274    1.399   .     A
C275   C276    1.408   .     A
C275   C285    1.494   .     S
C276   C277    1.399   .     A
C276   H307    1.083   .     S
C277   H308    1.082   .     S
C277   C278    1.395   .     A
C278   H309    1.083   .     S
C279   H310    1.081   .     S
C279   C281    1.398   .     A
C279   C524    1.395   .     S
C280   C283    1.381   .     A
C280   H317    1.079   .     S
C281   H312    1.081   .     S
C281   C521    1.408   .     S
C282   H289    1.084   .     S
C282   C998    1.396   1_554 S
C283   H300    1.084   .     S
C283   C999    1.390   .     S
C284   C514    1.493   .     S
C284   C531    1.351   .     S
C286   O325    1.302   .     A
C286   O327    1.309   .     A
Cu287  Cu288   2.697   .     S
Cu287  N320    2.027   .     S
Cu287  O324    1.946   .     S
Cu287  O321    1.961   .     S
Cu287  O325    1.937   .     S
Cu287  O328    1.917   .     S
Cu288  O326    1.937   .     S
Cu288  O327    1.917   .     S
Cu288  N319    2.027   .     S
Cu288  O322    1.961   .     S
Cu288  O323    1.946   .     S
H290   N402    1.029   .     S
H294   C428    1.105   1_455 S
H296   C431    1.107   1_455 S
H297   C431    1.106   1_455 S
H306   C520    1.083   .     S
H314   C333    1.084   .     S
H315   C416    1.085   1_455 S
H318   N483    1.026   1_455 S
N319   H400    1.026   .     S
N319   N402    1.289   .     S
N320   H454    1.029   1_455 S
N320   N483    1.289   1_455 S
C329   O405    1.292   .     A
C329   O403    1.286   .     A
C329   C366    1.424   .     S
C330   C332    1.474   .     S
C330   O410    1.302   .     A
C330   O408    1.302   .     A
C331   C335    1.418   .     A
C331   C337    1.395   .     A
C331   C368    1.487   .     S
C332   C336    1.418   .     A
C332   C338    1.406   .     A
C333   C335    1.409   .     A
C333   C342    1.402   .     A
C334   C343    1.397   .     A
C334   C336    1.397   .     A
C334   H479    1.085   .     S
C336   C346    1.514   .     S
C337   H395    1.072   .     S
C337   C339    1.403   .     A
C338   H393    1.077   .     S
C338   C341    1.407   .     A
C339   C342    1.406   .     A
C339   C344    1.414   .     A
C340   O406    1.292   .     A
C340   C367    1.423   .     S
C340   O404    1.283   .     A
C341   C343    1.418   .     A
C341   C345    1.432   .     A
C342   C1102   1.396   .     S
C343   C1103   1.390   1_554 S
C344   C362    1.404   .     A
C344   C1083   1.421   .     S
C345   C351    1.419   .     A
C345   C1082   1.421   1_554 S
C346   H377    1.106   .     S
C346   C429    1.522   .     S
C346   H458    1.105   .     S
C347   H374    1.110   .     S
C347   H375    1.107   .     S
C347   H373    1.110   .     S
C348   H383    1.107   .     S
C348   H381    1.107   .     S
C348   C349    1.540   .     S
C348   C417    1.511   .     S
C349   H380    1.108   .     S
C349   H460    1.107   .     S
C349   H461    1.106   .     S
C350   C356    1.406   .     A
C350   C352    1.407   .     A
C351   H398    1.077   .     S
C351   C364    1.397   .     A
C352   C353    1.398   .     A
C352   H384    1.083   .     S
C353   H385    1.083   .     S
C353   C354    1.397   .     A
C354   C355    1.398   .     A
C354   H386    1.083   .     S
C355   H387    1.083   .     S
C355   C356    1.399   .     A
C357   C358    1.408   .     A
C357   C367    1.494   .     S
C358   C359    1.399   .     A
C358   H389    1.083   .     S
C359   H390    1.082   .     S
C359   C360    1.395   .     A
C360   H391    1.083   .     S
C361   H392    1.081   .     S
C361   C363    1.398   .     A
C361   C606    1.395   .     S
C362   C365    1.381   .     A
C362   H399    1.079   .     S
C363   H394    1.081   .     S
C363   C603    1.408   .     S
C364   H371    1.084   .     S
C364   C1080   1.396   1_554 S
C365   H382    1.084   .     S
C365   C1081   1.390   .     S
C366   C596    1.493   .     S
C366   C613    1.351   .     S
C368   O407    1.302   .     A
C368   O409    1.309   .     A
Cu369  Cu370   2.697   .     S
Cu369  N402    2.027   .     S
Cu369  O406    1.946   .     S
Cu369  O403    1.961   .     S
Cu369  O407    1.937   .     S
Cu369  O410    1.917   .     S
Cu370  O408    1.937   .     S
Cu370  O409    1.917   .     S
Cu370  N401    2.027   .     S
Cu370  O404    1.961   .     S
Cu370  O405    1.946   .     S
H372   N484    1.029   .     S
H388   C602    1.083   .     S
H396   C415    1.084   .     S
N401   H482    1.026   .     S
N401   N484    1.289   .     S
C411   O487    1.292   .     A
C411   O485    1.286   .     A
C411   C448    1.424   .     S
C412   C414    1.474   .     S
C412   O492    1.302   .     A
C412   O490    1.302   .     A
C413   C417    1.418   .     A
C413   C419    1.395   .     A
C413   C450    1.487   .     S
C414   C418    1.418   .     A
C414   C420    1.406   .     A
C415   C417    1.409   .     A
C415   C424    1.402   .     A
C416   C425    1.397   .     A
C416   C418    1.397   .     A
C416   H315    1.085   1_655 S
C418   C428    1.514   .     S
C419   H477    1.072   .     S
C419   C421    1.403   .     A
C420   H475    1.077   .     S
C420   C423    1.407   .     A
C421   C424    1.406   .     A
C421   C426    1.414   .     A
C422   O488    1.292   .     A
C422   C449    1.423   .     S
C422   O486    1.283   .     A
C423   C425    1.418   .     A
C423   C427    1.432   .     A
C424   C1184   1.396   .     S
C425   C1185   1.390   1_554 S
C426   C444    1.404   .     A
C426   C1165   1.421   .     S
C427   C433    1.419   .     A
C427   C1164   1.421   1_554 S
C428   H459    1.106   .     S
C428   C265    1.522   1_655 S
C428   H294    1.105   1_655 S
C429   H456    1.110   .     S
C429   H457    1.107   .     S
C429   H455    1.110   .     S
C430   H465    1.107   .     S
C430   H463    1.107   .     S
C430   C431    1.540   .     S
C430   C253    1.511   1_655 S
C431   H462    1.108   .     S
C431   H296    1.107   1_655 S
C431   H297    1.106   1_655 S
C432   C438    1.406   .     A
C432   C434    1.407   .     A
C433   H480    1.077   .     S
C433   C446    1.397   .     A
C434   C435    1.398   .     A
C434   H466    1.083   .     S
C435   H467    1.083   .     S
C435   C436    1.397   .     A
C436   C437    1.398   .     A
C436   H468    1.083   .     S
C437   H469    1.083   .     S
C437   C438    1.399   .     A
C439   C440    1.408   .     A
C439   C449    1.494   .     S
C440   C441    1.399   .     A
C440   H471    1.083   .     S
C441   H472    1.082   .     S
C441   C442    1.395   .     A
C442   H473    1.083   .     S
C443   H474    1.081   .     S
C443   C445    1.398   .     A
C443   C688    1.395   .     S
C444   C447    1.381   .     A
C444   H481    1.079   .     S
C445   H476    1.081   .     S
C445   C685    1.408   .     S
C446   H453    1.084   .     S
C446   C1162   1.396   1_554 S
C447   H464    1.084   .     S
C447   C1163   1.390   .     S
C448   C678    1.493   .     S
C448   C695    1.351   .     S
C450   O489    1.302   .     A
C450   O491    1.309   .     A
Cu451  Cu452   2.697   .     S
Cu451  N484    2.027   .     S
Cu451  O488    1.946   .     S
Cu451  O485    1.961   .     S
Cu451  O489    1.937   .     S
Cu451  O492    1.917   .     S
Cu452  O490    1.937   .     S
Cu452  O491    1.917   .     S
Cu452  N483    2.027   .     S
Cu452  O486    1.961   .     S
Cu452  O487    1.946   .     S
H454   N320    1.029   1_655 S
H470   C684    1.083   .     S
H478   C251    1.084   1_655 S
N483   H318    1.026   1_655 S
N483   N320    1.289   1_655 S
C493   O569    1.292   .     A
C493   O567    1.286   .     A
C493   C530    1.424   .     S
C494   C496    1.474   .     S
C494   O574    1.302   .     A
C494   O572    1.302   .     A
C495   C499    1.418   .     A
C495   C501    1.395   .     A
C495   C532    1.487   .     S
C496   C500    1.418   .     A
C496   C502    1.406   .     A
C497   C499    1.409   .     A
C497   C506    1.402   .     A
C497   H724    1.084   1_455 S
C498   C507    1.397   .     A
C498   C500    1.397   .     A
C498   H643    1.085   .     S
C499   C676    1.511   1_455 S
C500   C510    1.514   .     S
C501   H559    1.072   .     S
C501   C503    1.403   .     A
C502   H557    1.077   .     S
C502   C505    1.407   .     A
C503   C506    1.406   .     A
C503   C508    1.414   .     A
C504   O570    1.292   .     A
C504   C531    1.423   .     S
C504   O568    1.283   .     A
C505   C507    1.418   .     A
C505   C509    1.432   .     A
C506   C1266   1.396   .     S
C507   C1267   1.390   1_554 S
C508   C526    1.404   .     A
C508   C1247   1.421   .     S
C509   C515    1.419   .     A
C509   C1246   1.421   1_554 S
C510   H541    1.106   .     S
C510   C593    1.522   .     S
C510   H622    1.105   .     S
C511   H538    1.110   .     S
C511   H539    1.107   .     S
C511   H537    1.110   .     S
C511   C674    1.522   1_455 S
C512   H547    1.107   .     S
C512   H545    1.107   .     S
C512   C513    1.540   .     S
C512   C581    1.511   .     S
C513   H544    1.108   .     S
C513   H624    1.107   .     S
C513   H625    1.106   .     S
C514   C520    1.406   .     A
C514   C516    1.407   .     A
C515   H562    1.077   .     S
C515   C528    1.397   .     A
C516   C517    1.398   .     A
C516   H548    1.083   .     S
C517   H549    1.083   .     S
C517   C518    1.397   .     A
C518   C519    1.398   .     A
C518   H550    1.083   .     S
C519   H551    1.083   .     S
C519   C520    1.399   .     A
C521   C522    1.408   .     A
C521   C531    1.494   .     S
C522   C523    1.399   .     A
C522   H553    1.083   .     S
C523   H554    1.082   .     S
C523   C524    1.395   .     A
C524   H555    1.083   .     S
C525   H556    1.081   .     S
C525   C527    1.398   .     A
C525   C32     1.395   1_565 S
C526   C529    1.381   .     A
C526   H563    1.079   .     S
C527   H558    1.081   .     S
C527   C29     1.408   1_565 S
C528   H535    1.084   .     S
C528   C1244   1.396   1_554 S
C529   H546    1.084   .     S
C529   C1245   1.390   .     S
C530   C22     1.493   1_565 S
C530   C39     1.351   1_565 S
C532   O571    1.302   .     A
C532   O573    1.309   .     A
Cu533  Cu534   2.697   .     S
Cu533  N566    2.027   .     S
Cu533  O570    1.946   .     S
Cu533  O567    1.961   .     S
Cu533  O571    1.937   .     S
Cu533  O574    1.917   .     S
Cu534  O572    1.937   .     S
Cu534  O573    1.917   .     S
Cu534  N565    2.027   .     S
Cu534  O568    1.961   .     S
Cu534  O569    1.946   .     S
H536   N648    1.029   .     S
H540   C674    1.105   1_455 S
H542   C677    1.107   1_455 S
H543   C677    1.106   1_455 S
H552   C28     1.083   1_565 S
H560   C579    1.084   .     S
H561   C662    1.085   1_455 S
H564   N729    1.026   1_455 S
N565   H646    1.026   .     S
N565   N648    1.289   .     S
N566   H700    1.029   1_455 S
N566   N729    1.289   1_455 S
C575   O651    1.292   .     A
C575   O649    1.286   .     A
C575   C612    1.424   .     S
C576   C578    1.474   .     S
C576   O656    1.302   .     A
C576   O654    1.302   .     A
C577   C581    1.418   .     A
C577   C583    1.395   .     A
C577   C614    1.487   .     S
C578   C582    1.418   .     A
C578   C584    1.406   .     A
C579   C581    1.409   .     A
C579   C588    1.402   .     A
C580   C589    1.397   .     A
C580   C582    1.397   .     A
C580   H725    1.085   .     S
C582   C592    1.514   .     S
C583   H641    1.072   .     S
C583   C585    1.403   .     A
C584   H639    1.077   .     S
C584   C587    1.407   .     A
C585   C588    1.406   .     A
C585   C590    1.414   .     A
C586   O652    1.292   .     A
C586   C613    1.423   .     S
C586   O650    1.283   .     A
C587   C589    1.418   .     A
C587   C591    1.432   .     A
C588   C1348   1.396   .     S
C589   C1349   1.390   1_554 S
C590   C608    1.404   .     A
C590   C1329   1.421   .     S
C591   C597    1.419   .     A
C591   C1328   1.421   1_554 S
C592   H623    1.106   .     S
C592   C675    1.522   .     S
C592   H704    1.105   .     S
C593   H620    1.110   .     S
C593   H621    1.107   .     S
C593   H619    1.110   .     S
C594   H629    1.107   .     S
C594   H627    1.107   .     S
C594   C595    1.540   .     S
C594   C663    1.511   .     S
C595   H626    1.108   .     S
C595   H706    1.107   .     S
C595   H707    1.106   .     S
C596   C602    1.406   .     A
C596   C598    1.407   .     A
C597   H644    1.077   .     S
C597   C610    1.397   .     A
C598   C599    1.398   .     A
C598   H630    1.083   .     S
C599   H631    1.083   .     S
C599   C600    1.397   .     A
C600   C601    1.398   .     A
C600   H632    1.083   .     S
C601   H633    1.083   .     S
C601   C602    1.399   .     A
C603   C604    1.408   .     A
C603   C613    1.494   .     S
C604   C605    1.399   .     A
C604   H635    1.083   .     S
C605   H636    1.082   .     S
C605   C606    1.395   .     A
C606   H637    1.083   .     S
C607   H638    1.081   .     S
C607   C609    1.398   .     A
C607   C114    1.395   1_565 S
C608   C611    1.381   .     A
C608   H645    1.079   .     S
C609   H640    1.081   .     S
C609   C111    1.408   1_565 S
C610   H617    1.084   .     S
C610   C1326   1.396   1_554 S
C611   H628    1.084   .     S
C611   C1327   1.390   .     S
C612   C104    1.493   1_565 S
C612   C121    1.351   1_565 S
C614   O653    1.302   .     A
C614   O655    1.309   .     A
Cu615  Cu616   2.697   .     S
Cu615  N648    2.027   .     S
Cu615  O652    1.946   .     S
Cu615  O649    1.961   .     S
Cu615  O653    1.937   .     S
Cu615  O656    1.917   .     S
Cu616  O654    1.937   .     S
Cu616  O655    1.917   .     S
Cu616  N647    2.027   .     S
Cu616  O650    1.961   .     S
Cu616  O651    1.946   .     S
H618   N730    1.029   .     S
H634   C110    1.083   1_565 S
H642   C661    1.084   .     S
N647   H728    1.026   .     S
N647   N730    1.289   .     S
C657   O733    1.292   .     A
C657   O731    1.286   .     A
C657   C694    1.424   .     S
C658   C660    1.474   .     S
C658   O738    1.302   .     A
C658   O736    1.302   .     A
C659   C663    1.418   .     A
C659   C665    1.395   .     A
C659   C696    1.487   .     S
C660   C664    1.418   .     A
C660   C666    1.406   .     A
C661   C663    1.409   .     A
C661   C670    1.402   .     A
C662   C671    1.397   .     A
C662   C664    1.397   .     A
C662   H561    1.085   1_655 S
C664   C674    1.514   .     S
C665   H723    1.072   .     S
C665   C667    1.403   .     A
C666   H721    1.077   .     S
C666   C669    1.407   .     A
C667   C670    1.406   .     A
C667   C672    1.414   .     A
C668   O734    1.292   .     A
C668   C695    1.423   .     S
C668   O732    1.283   .     A
C669   C671    1.418   .     A
C669   C673    1.432   .     A
C670   C1430   1.396   .     S
C671   C1431   1.390   1_554 S
C672   C690    1.404   .     A
C672   C1411   1.421   .     S
C673   C679    1.419   .     A
C673   C1410   1.421   1_554 S
C674   H705    1.106   .     S
C674   C511    1.522   1_655 S
C674   H540    1.105   1_655 S
C675   H702    1.110   .     S
C675   H703    1.107   .     S
C675   H701    1.110   .     S
C676   H711    1.107   .     S
C676   H709    1.107   .     S
C676   C677    1.540   .     S
C676   C499    1.511   1_655 S
C677   H708    1.108   .     S
C677   H542    1.107   1_655 S
C677   H543    1.106   1_655 S
C678   C684    1.406   .     A
C678   C680    1.407   .     A
C679   H726    1.077   .     S
C679   C692    1.397   .     A
C680   C681    1.398   .     A
C680   H712    1.083   .     S
C681   H713    1.083   .     S
C681   C682    1.397   .     A
C682   C683    1.398   .     A
C682   H714    1.083   .     S
C683   H715    1.083   .     S
C683   C684    1.399   .     A
C685   C686    1.408   .     A
C685   C695    1.494   .     S
C686   C687    1.399   .     A
C686   H717    1.083   .     S
C687   H718    1.082   .     S
C687   C688    1.395   .     A
C688   H719    1.083   .     S
C689   H720    1.081   .     S
C689   C691    1.398   .     A
C689   C196    1.395   1_565 S
C690   C693    1.381   .     A
C690   H727    1.079   .     S
C691   H722    1.081   .     S
C691   C193    1.408   1_565 S
C692   H699    1.084   .     S
C692   C1408   1.396   1_554 S
C693   H710    1.084   .     S
C693   C1409   1.390   .     S
C694   C186    1.493   1_565 S
C694   C203    1.351   1_565 S
C696   O735    1.302   .     A
C696   O737    1.309   .     A
Cu697  Cu698   2.697   .     S
Cu697  N730    2.027   .     S
Cu697  O734    1.946   .     S
Cu697  O731    1.961   .     S
Cu697  O735    1.937   .     S
Cu697  O738    1.917   .     S
Cu698  O736    1.937   .     S
Cu698  O737    1.917   .     S
Cu698  N729    2.027   .     S
Cu698  O732    1.961   .     S
Cu698  O733    1.946   .     S
H700   N566    1.029   1_655 S
H716   C192    1.083   1_565 S
H724   C497    1.084   1_655 S
N729   H564    1.026   1_655 S
N729   N566    1.289   1_655 S
C739   O815    1.292   .     A
C739   O813    1.286   .     A
C739   C776    1.424   .     S
C740   C742    1.474   .     S
C740   O820    1.302   .     A
C740   O818    1.302   .     A
C741   C745    1.418   .     A
C741   C747    1.395   .     A
C741   C778    1.487   .     S
C742   C746    1.418   .     A
C742   C748    1.406   .     A
C743   C745    1.409   .     A
C743   C752    1.402   .     A
C743   H970    1.084   1_455 S
C744   C753    1.397   .     A
C744   C746    1.397   .     A
C744   H889    1.085   .     S
C745   C922    1.511   1_455 S
C746   C756    1.514   .     S
C747   H805    1.072   .     S
C747   C749    1.403   .     A
C748   H803    1.077   .     S
C748   C751    1.407   .     A
C749   C752    1.406   .     A
C749   C754    1.414   .     A
C750   O816    1.292   .     A
C750   C777    1.423   .     S
C750   O814    1.283   .     A
C751   C753    1.418   .     A
C751   C755    1.432   .     A
C752   C36     1.396   1_556 S
C754   C772    1.404   .     A
C754   C17     1.421   1_556 S
C755   C761    1.419   .     A
C756   H787    1.106   .     S
C756   C839    1.522   .     S
C756   H868    1.105   .     S
C757   H784    1.110   .     S
C757   H785    1.107   .     S
C757   H783    1.110   .     S
C757   C920    1.522   1_455 S
C758   H793    1.107   .     S
C758   H791    1.107   .     S
C758   C759    1.540   .     S
C758   C827    1.511   .     S
C759   H790    1.108   .     S
C759   H870    1.107   .     S
C759   H871    1.106   .     S
C760   C766    1.406   .     A
C760   C762    1.407   .     A
C760   C1268   1.493   1_545 S
C761   H808    1.077   .     S
C761   C774    1.397   .     A
C762   C763    1.398   .     A
C762   H794    1.083   .     S
C763   H795    1.083   .     S
C763   C764    1.397   .     A
C764   C765    1.398   .     A
C764   H796    1.083   .     S
C765   H797    1.083   .     S
C765   C766    1.399   .     A
C766   H1290   1.083   1_545 S
C767   C768    1.408   .     A
C767   C777    1.494   .     S
C767   C1265   1.408   1_545 S
C768   C769    1.399   .     A
C768   H799    1.083   .     S
C769   H800    1.082   .     S
C769   C770    1.395   .     A
C770   H801    1.083   .     S
C770   C1263   1.395   1_545 S
C771   H802    1.081   .     S
C771   C773    1.398   .     A
C771   C1016   1.395   .     S
C772   C775    1.381   .     A
C772   H809    1.079   .     S
C773   H804    1.081   .     S
C773   C1013   1.408   .     S
C774   H781    1.084   .     S
C775   H792    1.084   .     S
C775   C15     1.390   1_556 S
C776   C1006   1.493   .     S
C776   C1023   1.351   .     S
C777   C1268   1.351   1_545 S
C778   O817    1.302   .     A
C778   O819    1.309   .     A
Cu779  Cu780   2.697   .     S
Cu779  N812    2.027   .     S
Cu779  O816    1.946   .     S
Cu779  O813    1.961   .     S
Cu779  O817    1.937   .     S
Cu779  O820    1.917   .     S
Cu780  O818    1.937   .     S
Cu780  O819    1.917   .     S
Cu780  N811    2.027   .     S
Cu780  O814    1.961   .     S
Cu780  O815    1.946   .     S
H782   N894    1.029   .     S
H786   C920    1.105   1_455 S
H788   C923    1.107   1_455 S
H789   C923    1.106   1_455 S
H798   C1012   1.083   .     S
H806   C825    1.084   .     S
H807   C908    1.085   1_455 S
H810   N975    1.026   1_455 S
N811   H892    1.026   .     S
N811   N894    1.289   .     S
N812   H946    1.029   1_455 S
N812   N975    1.289   1_455 S
C821   O897    1.292   .     A
C821   O895    1.286   .     A
C821   C858    1.424   .     S
C822   C824    1.474   .     S
C822   O902    1.302   .     A
C822   O900    1.302   .     A
C823   C827    1.418   .     A
C823   C829    1.395   .     A
C823   C860    1.487   .     S
C824   C828    1.418   .     A
C824   C830    1.406   .     A
C825   C827    1.409   .     A
C825   C834    1.402   .     A
C826   C835    1.397   .     A
C826   C828    1.397   .     A
C826   H971    1.085   .     S
C828   C838    1.514   .     S
C829   H887    1.072   .     S
C829   C831    1.403   .     A
C830   H885    1.077   .     S
C830   C833    1.407   .     A
C831   C834    1.406   .     A
C831   C836    1.414   .     A
C832   O898    1.292   .     A
C832   C859    1.423   .     S
C832   O896    1.283   .     A
C833   C835    1.418   .     A
C833   C837    1.432   .     A
C834   C118    1.396   1_556 S
C836   C854    1.404   .     A
C836   C99     1.421   1_556 S
C837   C843    1.419   .     A
C838   H869    1.106   .     S
C838   C921    1.522   .     S
C838   H950    1.105   .     S
C839   H866    1.110   .     S
C839   H867    1.107   .     S
C839   H865    1.110   .     S
C840   H875    1.107   .     S
C840   H873    1.107   .     S
C840   C841    1.540   .     S
C840   C909    1.511   .     S
C841   H872    1.108   .     S
C841   H952    1.107   .     S
C841   H953    1.106   .     S
C842   C848    1.406   .     A
C842   C844    1.407   .     A
C842   C1350   1.493   1_545 S
C843   H890    1.077   .     S
C843   C856    1.397   .     A
C844   C845    1.398   .     A
C844   H876    1.083   .     S
C845   H877    1.083   .     S
C845   C846    1.397   .     A
C846   C847    1.398   .     A
C846   H878    1.083   .     S
C847   H879    1.083   .     S
C847   C848    1.399   .     A
C848   H1372   1.083   1_545 S
C849   C850    1.408   .     A
C849   C859    1.494   .     S
C849   C1347   1.408   1_545 S
C850   C851    1.399   .     A
C850   H881    1.083   .     S
C851   H882    1.082   .     S
C851   C852    1.395   .     A
C852   H883    1.083   .     S
C852   C1345   1.395   1_545 S
C853   H884    1.081   .     S
C853   C855    1.398   .     A
C853   C1098   1.395   .     S
C854   C857    1.381   .     A
C854   H891    1.079   .     S
C855   H886    1.081   .     S
C855   C1095   1.408   .     S
C856   H863    1.084   .     S
C857   H874    1.084   .     S
C857   C97     1.390   1_556 S
C858   C1088   1.493   .     S
C858   C1105   1.351   .     S
C859   C1350   1.351   1_545 S
C860   O899    1.302   .     A
C860   O901    1.309   .     A
Cu861  Cu862   2.697   .     S
Cu861  N894    2.027   .     S
Cu861  O898    1.946   .     S
Cu861  O895    1.961   .     S
Cu861  O899    1.937   .     S
Cu861  O902    1.917   .     S
Cu862  O900    1.937   .     S
Cu862  O901    1.917   .     S
Cu862  N893    2.027   .     S
Cu862  O896    1.961   .     S
Cu862  O897    1.946   .     S
H864   N976    1.029   .     S
H880   C1094   1.083   .     S
H888   C907    1.084   .     S
N893   H974    1.026   .     S
N893   N976    1.289   .     S
C903   O979    1.292   .     A
C903   O977    1.286   .     A
C903   C940    1.424   .     S
C904   C906    1.474   .     S
C904   O984    1.302   .     A
C904   O982    1.302   .     A
C905   C909    1.418   .     A
C905   C911    1.395   .     A
C905   C942    1.487   .     S
C906   C910    1.418   .     A
C906   C912    1.406   .     A
C907   C909    1.409   .     A
C907   C916    1.402   .     A
C908   C917    1.397   .     A
C908   C910    1.397   .     A
C908   H807    1.085   1_655 S
C910   C920    1.514   .     S
C911   H969    1.072   .     S
C911   C913    1.403   .     A
C912   H967    1.077   .     S
C912   C915    1.407   .     A
C913   C916    1.406   .     A
C913   C918    1.414   .     A
C914   O980    1.292   .     A
C914   C941    1.423   .     S
C914   O978    1.283   .     A
C915   C917    1.418   .     A
C915   C919    1.432   .     A
C916   C200    1.396   1_556 S
C918   C936    1.404   .     A
C918   C181    1.421   1_556 S
C919   C925    1.419   .     A
C920   H951    1.106   .     S
C920   C757    1.522   1_655 S
C920   H786    1.105   1_655 S
C921   H948    1.110   .     S
C921   H949    1.107   .     S
C921   H947    1.110   .     S
C922   H957    1.107   .     S
C922   H955    1.107   .     S
C922   C923    1.540   .     S
C922   C745    1.511   1_655 S
C923   H954    1.108   .     S
C923   H788    1.107   1_655 S
C923   H789    1.106   1_655 S
C924   C930    1.406   .     A
C924   C926    1.407   .     A
C924   C1432   1.493   1_545 S
C925   H972    1.077   .     S
C925   C938    1.397   .     A
C926   C927    1.398   .     A
C926   H958    1.083   .     S
C927   H959    1.083   .     S
C927   C928    1.397   .     A
C928   C929    1.398   .     A
C928   H960    1.083   .     S
C929   H961    1.083   .     S
C929   C930    1.399   .     A
C930   H1454   1.083   1_545 S
C931   C932    1.408   .     A
C931   C941    1.494   .     S
C931   C1429   1.408   1_545 S
C932   C933    1.399   .     A
C932   H963    1.083   .     S
C933   H964    1.082   .     S
C933   C934    1.395   .     A
C934   H965    1.083   .     S
C934   C1427   1.395   1_545 S
C935   H966    1.081   .     S
C935   C937    1.398   .     A
C935   C1180   1.395   .     S
C936   C939    1.381   .     A
C936   H973    1.079   .     S
C937   H968    1.081   .     S
C937   C1177   1.408   .     S
C938   H945    1.084   .     S
C939   H956    1.084   .     S
C939   C179    1.390   1_556 S
C940   C1170   1.493   .     S
C940   C1187   1.351   .     S
C941   C1432   1.351   1_545 S
C942   O981    1.302   .     A
C942   O983    1.309   .     A
Cu943  Cu944   2.697   .     S
Cu943  N976    2.027   .     S
Cu943  O980    1.946   .     S
Cu943  O977    1.961   .     S
Cu943  O981    1.937   .     S
Cu943  O984    1.917   .     S
Cu944  O982    1.937   .     S
Cu944  O983    1.917   .     S
Cu944  N975    2.027   .     S
Cu944  O978    1.961   .     S
Cu944  O979    1.946   .     S
H946   N812    1.029   1_655 S
H962   C1176   1.083   .     S
H970   C743    1.084   1_655 S
N975   H810    1.026   1_655 S
N975   N812    1.289   1_655 S
C985   O1061   1.292   .     A
C985   O1059   1.286   .     A
C985   C1022   1.424   .     S
C986   C988    1.474   .     S
C986   O1066   1.302   .     A
C986   O1064   1.302   .     A
C987   C991    1.418   .     A
C987   C993    1.395   .     A
C987   C1024   1.487   .     S
C988   C992    1.418   .     A
C988   C994    1.406   .     A
C989   C991    1.409   .     A
C989   C998    1.402   .     A
C989   H1216   1.084   1_455 S
C990   C999    1.397   .     A
C990   C992    1.397   .     A
C990   H1135   1.085   .     S
C991   C1168   1.511   1_455 S
C992   C1002   1.514   .     S
C993   H1051   1.072   .     S
C993   C995    1.403   .     A
C994   H1049   1.077   .     S
C994   C997    1.407   .     A
C995   C998    1.406   .     A
C995   C1000   1.414   .     A
C996   O1062   1.292   .     A
C996   C1023   1.423   .     S
C996   O1060   1.283   .     A
C997   C999    1.418   .     A
C997   C1001   1.432   .     A
C998   C282    1.396   1_556 S
C1000  C1018   1.404   .     A
C1000  C263    1.421   1_556 S
C1001  C1007   1.419   .     A
C1002  H1033   1.106   .     S
C1002  C1085   1.522   .     S
C1002  H1114   1.105   .     S
C1003  H1030   1.110   .     S
C1003  H1031   1.107   .     S
C1003  H1029   1.110   .     S
C1003  C1166   1.522   1_455 S
C1004  H1039   1.107   .     S
C1004  H1037   1.107   .     S
C1004  C1005   1.540   .     S
C1004  C1073   1.511   .     S
C1005  H1036   1.108   .     S
C1005  H1116   1.107   .     S
C1005  H1117   1.106   .     S
C1006  C1012   1.406   .     A
C1006  C1008   1.407   .     A
C1007  H1054   1.077   .     S
C1007  C1020   1.397   .     A
C1008  C1009   1.398   .     A
C1008  H1040   1.083   .     S
C1009  H1041   1.083   .     S
C1009  C1010   1.397   .     A
C1010  C1011   1.398   .     A
C1010  H1042   1.083   .     S
C1011  H1043   1.083   .     S
C1011  C1012   1.399   .     A
C1013  C1014   1.408   .     A
C1013  C1023   1.494   .     S
C1014  C1015   1.399   .     A
C1014  H1045   1.083   .     S
C1015  H1046   1.082   .     S
C1015  C1016   1.395   .     A
C1016  H1047   1.083   .     S
C1017  H1048   1.081   .     S
C1017  C1019   1.398   .     A
C1017  C1262   1.395   .     S
C1018  C1021   1.381   .     A
C1018  H1055   1.079   .     S
C1019  H1050   1.081   .     S
C1019  C1259   1.408   .     S
C1020  H1027   1.084   .     S
C1021  H1038   1.084   .     S
C1021  C261    1.390   1_556 S
C1022  C1252   1.493   .     S
C1022  C1269   1.351   .     S
C1024  O1063   1.302   .     A
C1024  O1065   1.309   .     A
Cu1025 Cu1026  2.697   .     S
Cu1025 N1058   2.027   .     S
Cu1025 O1062   1.946   .     S
Cu1025 O1059   1.961   .     S
Cu1025 O1063   1.937   .     S
Cu1025 O1066   1.917   .     S
Cu1026 O1064   1.937   .     S
Cu1026 O1065   1.917   .     S
Cu1026 N1057   2.027   .     S
Cu1026 O1060   1.961   .     S
Cu1026 O1061   1.946   .     S
H1028  N1140   1.029   .     S
H1032  C1166   1.105   1_455 S
H1034  C1169   1.107   1_455 S
H1035  C1169   1.106   1_455 S
H1044  C1258   1.083   .     S
H1052  C1071   1.084   .     S
H1053  C1154   1.085   1_455 S
H1056  N1221   1.026   1_455 S
N1057  H1138   1.026   .     S
N1057  N1140   1.289   .     S
N1058  H1192   1.029   1_455 S
N1058  N1221   1.289   1_455 S
C1067  O1143   1.292   .     A
C1067  O1141   1.286   .     A
C1067  C1104   1.424   .     S
C1068  C1070   1.474   .     S
C1068  O1148   1.302   .     A
C1068  O1146   1.302   .     A
C1069  C1073   1.418   .     A
C1069  C1075   1.395   .     A
C1069  C1106   1.487   .     S
C1070  C1074   1.418   .     A
C1070  C1076   1.406   .     A
C1071  C1073   1.409   .     A
C1071  C1080   1.402   .     A
C1072  C1081   1.397   .     A
C1072  C1074   1.397   .     A
C1072  H1217   1.085   .     S
C1074  C1084   1.514   .     S
C1075  H1133   1.072   .     S
C1075  C1077   1.403   .     A
C1076  H1131   1.077   .     S
C1076  C1079   1.407   .     A
C1077  C1080   1.406   .     A
C1077  C1082   1.414   .     A
C1078  O1144   1.292   .     A
C1078  C1105   1.423   .     S
C1078  O1142   1.283   .     A
C1079  C1081   1.418   .     A
C1079  C1083   1.432   .     A
C1080  C364    1.396   1_556 S
C1082  C1100   1.404   .     A
C1082  C345    1.421   1_556 S
C1083  C1089   1.419   .     A
C1084  H1115   1.106   .     S
C1084  C1167   1.522   .     S
C1084  H1196   1.105   .     S
C1085  H1112   1.110   .     S
C1085  H1113   1.107   .     S
C1085  H1111   1.110   .     S
C1086  H1121   1.107   .     S
C1086  H1119   1.107   .     S
C1086  C1087   1.540   .     S
C1086  C1155   1.511   .     S
C1087  H1118   1.108   .     S
C1087  H1198   1.107   .     S
C1087  H1199   1.106   .     S
C1088  C1094   1.406   .     A
C1088  C1090   1.407   .     A
C1089  H1136   1.077   .     S
C1089  C1102   1.397   .     A
C1090  C1091   1.398   .     A
C1090  H1122   1.083   .     S
C1091  H1123   1.083   .     S
C1091  C1092   1.397   .     A
C1092  C1093   1.398   .     A
C1092  H1124   1.083   .     S
C1093  H1125   1.083   .     S
C1093  C1094   1.399   .     A
C1095  C1096   1.408   .     A
C1095  C1105   1.494   .     S
C1096  C1097   1.399   .     A
C1096  H1127   1.083   .     S
C1097  H1128   1.082   .     S
C1097  C1098   1.395   .     A
C1098  H1129   1.083   .     S
C1099  H1130   1.081   .     S
C1099  C1101   1.398   .     A
C1099  C1344   1.395   .     S
C1100  C1103   1.381   .     A
C1100  H1137   1.079   .     S
C1101  H1132   1.081   .     S
C1101  C1341   1.408   .     S
C1102  H1109   1.084   .     S
C1103  H1120   1.084   .     S
C1103  C343    1.390   1_556 S
C1104  C1334   1.493   .     S
C1104  C1351   1.351   .     S
C1106  O1145   1.302   .     A
C1106  O1147   1.309   .     A
Cu1107 Cu1108  2.697   .     S
Cu1107 N1140   2.027   .     S
Cu1107 O1144   1.946   .     S
Cu1107 O1141   1.961   .     S
Cu1107 O1145   1.937   .     S
Cu1107 O1148   1.917   .     S
Cu1108 O1146   1.937   .     S
Cu1108 O1147   1.917   .     S
Cu1108 N1139   2.027   .     S
Cu1108 O1142   1.961   .     S
Cu1108 O1143   1.946   .     S
H1110  N1222   1.029   .     S
H1126  C1340   1.083   .     S
H1134  C1153   1.084   .     S
N1139  H1220   1.026   .     S
N1139  N1222   1.289   .     S
C1149  O1225   1.292   .     A
C1149  O1223   1.286   .     A
C1149  C1186   1.424   .     S
C1150  C1152   1.474   .     S
C1150  O1230   1.302   .     A
C1150  O1228   1.302   .     A
C1151  C1155   1.418   .     A
C1151  C1157   1.395   .     A
C1151  C1188   1.487   .     S
C1152  C1156   1.418   .     A
C1152  C1158   1.406   .     A
C1153  C1155   1.409   .     A
C1153  C1162   1.402   .     A
C1154  C1163   1.397   .     A
C1154  C1156   1.397   .     A
C1154  H1053   1.085   1_655 S
C1156  C1166   1.514   .     S
C1157  H1215   1.072   .     S
C1157  C1159   1.403   .     A
C1158  H1213   1.077   .     S
C1158  C1161   1.407   .     A
C1159  C1162   1.406   .     A
C1159  C1164   1.414   .     A
C1160  O1226   1.292   .     A
C1160  C1187   1.423   .     S
C1160  O1224   1.283   .     A
C1161  C1163   1.418   .     A
C1161  C1165   1.432   .     A
C1162  C446    1.396   1_556 S
C1164  C1182   1.404   .     A
C1164  C427    1.421   1_556 S
C1165  C1171   1.419   .     A
C1166  H1197   1.106   .     S
C1166  C1003   1.522   1_655 S
C1166  H1032   1.105   1_655 S
C1167  H1194   1.110   .     S
C1167  H1195   1.107   .     S
C1167  H1193   1.110   .     S
C1168  H1203   1.107   .     S
C1168  H1201   1.107   .     S
C1168  C1169   1.540   .     S
C1168  C991    1.511   1_655 S
C1169  H1200   1.108   .     S
C1169  H1034   1.107   1_655 S
C1169  H1035   1.106   1_655 S
C1170  C1176   1.406   .     A
C1170  C1172   1.407   .     A
C1171  H1218   1.077   .     S
C1171  C1184   1.397   .     A
C1172  C1173   1.398   .     A
C1172  H1204   1.083   .     S
C1173  H1205   1.083   .     S
C1173  C1174   1.397   .     A
C1174  C1175   1.398   .     A
C1174  H1206   1.083   .     S
C1175  H1207   1.083   .     S
C1175  C1176   1.399   .     A
C1177  C1178   1.408   .     A
C1177  C1187   1.494   .     S
C1178  C1179   1.399   .     A
C1178  H1209   1.083   .     S
C1179  H1210   1.082   .     S
C1179  C1180   1.395   .     A
C1180  H1211   1.083   .     S
C1181  H1212   1.081   .     S
C1181  C1183   1.398   .     A
C1181  C1426   1.395   .     S
C1182  C1185   1.381   .     A
C1182  H1219   1.079   .     S
C1183  H1214   1.081   .     S
C1183  C1423   1.408   .     S
C1184  H1191   1.084   .     S
C1185  H1202   1.084   .     S
C1185  C425    1.390   1_556 S
C1186  C1416   1.493   .     S
C1186  C1433   1.351   .     S
C1188  O1227   1.302   .     A
C1188  O1229   1.309   .     A
Cu1189 Cu1190  2.697   .     S
Cu1189 N1222   2.027   .     S
Cu1189 O1226   1.946   .     S
Cu1189 O1223   1.961   .     S
Cu1189 O1227   1.937   .     S
Cu1189 O1230   1.917   .     S
Cu1190 O1228   1.937   .     S
Cu1190 O1229   1.917   .     S
Cu1190 N1221   2.027   .     S
Cu1190 O1224   1.961   .     S
Cu1190 O1225   1.946   .     S
H1192  N1058   1.029   1_655 S
H1208  C1422   1.083   .     S
H1216  C989    1.084   1_655 S
N1221  H1056   1.026   1_655 S
N1221  N1058   1.289   1_655 S
C1231  O1307   1.292   .     A
C1231  O1305   1.286   .     A
C1231  C1268   1.424   .     S
C1232  C1234   1.474   .     S
C1232  O1312   1.302   .     A
C1232  O1310   1.302   .     A
C1233  C1237   1.418   .     A
C1233  C1239   1.395   .     A
C1233  C1270   1.487   .     S
C1234  C1238   1.418   .     A
C1234  C1240   1.406   .     A
C1235  C1237   1.409   .     A
C1235  C1244   1.402   .     A
C1235  H1462   1.084   1_455 S
C1236  C1245   1.397   .     A
C1236  C1238   1.397   .     A
C1236  H1381   1.085   .     S
C1237  C1414   1.511   1_455 S
C1238  C1248   1.514   .     S
C1239  H1297   1.072   .     S
C1239  C1241   1.403   .     A
C1240  H1295   1.077   .     S
C1240  C1243   1.407   .     A
C1241  C1244   1.406   .     A
C1241  C1246   1.414   .     A
C1242  O1308   1.292   .     A
C1242  C1269   1.423   .     S
C1242  O1306   1.283   .     A
C1243  C1245   1.418   .     A
C1243  C1247   1.432   .     A
C1244  C528    1.396   1_556 S
C1246  C1264   1.404   .     A
C1246  C509    1.421   1_556 S
C1247  C1253   1.419   .     A
C1248  H1279   1.106   .     S
C1248  C1331   1.522   .     S
C1248  H1360   1.105   .     S
C1249  H1276   1.110   .     S
C1249  H1277   1.107   .     S
C1249  H1275   1.110   .     S
C1249  C1412   1.522   1_455 S
C1250  H1285   1.107   .     S
C1250  H1283   1.107   .     S
C1250  C1251   1.540   .     S
C1250  C1319   1.511   .     S
C1251  H1282   1.108   .     S
C1251  H1362   1.107   .     S
C1251  H1363   1.106   .     S
C1252  C1258   1.406   .     A
C1252  C1254   1.407   .     A
C1253  H1300   1.077   .     S
C1253  C1266   1.397   .     A
C1254  C1255   1.398   .     A
C1254  H1286   1.083   .     S
C1255  H1287   1.083   .     S
C1255  C1256   1.397   .     A
C1256  C1257   1.398   .     A
C1256  H1288   1.083   .     S
C1257  H1289   1.083   .     S
C1257  C1258   1.399   .     A
C1259  C1260   1.408   .     A
C1259  C1269   1.494   .     S
C1260  C1261   1.399   .     A
C1260  H1291   1.083   .     S
C1261  H1292   1.082   .     S
C1261  C1262   1.395   .     A
C1262  H1293   1.083   .     S
C1263  H1294   1.081   .     S
C1263  C1265   1.398   .     A
C1263  C770    1.395   1_565 S
C1264  C1267   1.381   .     A
C1264  H1301   1.079   .     S
C1265  H1296   1.081   .     S
C1265  C767    1.408   1_565 S
C1266  H1273   1.084   .     S
C1267  H1284   1.084   .     S
C1267  C507    1.390   1_556 S
C1268  C760    1.493   1_565 S
C1268  C777    1.351   1_565 S
C1270  O1309   1.302   .     A
C1270  O1311   1.309   .     A
Cu1271 Cu1272  2.697   .     S
Cu1271 N1304   2.027   .     S
Cu1271 O1308   1.946   .     S
Cu1271 O1305   1.961   .     S
Cu1271 O1309   1.937   .     S
Cu1271 O1312   1.917   .     S
Cu1272 O1310   1.937   .     S
Cu1272 O1311   1.917   .     S
Cu1272 N1303   2.027   .     S
Cu1272 O1306   1.961   .     S
Cu1272 O1307   1.946   .     S
H1274  N1386   1.029   .     S
H1278  C1412   1.105   1_455 S
H1280  C1415   1.107   1_455 S
H1281  C1415   1.106   1_455 S
H1290  C766    1.083   1_565 S
H1298  C1317   1.084   .     S
H1299  C1400   1.085   1_455 S
H1302  N1467   1.026   1_455 S
N1303  H1384   1.026   .     S
N1303  N1386   1.289   .     S
N1304  H1438   1.029   1_455 S
N1304  N1467   1.289   1_455 S
C1313  O1389   1.292   .     A
C1313  O1387   1.286   .     A
C1313  C1350   1.424   .     S
C1314  C1316   1.474   .     S
C1314  O1394   1.302   .     A
C1314  O1392   1.302   .     A
C1315  C1319   1.418   .     A
C1315  C1321   1.395   .     A
C1315  C1352   1.487   .     S
C1316  C1320   1.418   .     A
C1316  C1322   1.406   .     A
C1317  C1319   1.409   .     A
C1317  C1326   1.402   .     A
C1318  C1327   1.397   .     A
C1318  C1320   1.397   .     A
C1318  H1463   1.085   .     S
C1320  C1330   1.514   .     S
C1321  H1379   1.072   .     S
C1321  C1323   1.403   .     A
C1322  H1377   1.077   .     S
C1322  C1325   1.407   .     A
C1323  C1326   1.406   .     A
C1323  C1328   1.414   .     A
C1324  O1390   1.292   .     A
C1324  C1351   1.423   .     S
C1324  O1388   1.283   .     A
C1325  C1327   1.418   .     A
C1325  C1329   1.432   .     A
C1326  C610    1.396   1_556 S
C1328  C1346   1.404   .     A
C1328  C591    1.421   1_556 S
C1329  C1335   1.419   .     A
C1330  H1361   1.106   .     S
C1330  C1413   1.522   .     S
C1330  H1442   1.105   .     S
C1331  H1358   1.110   .     S
C1331  H1359   1.107   .     S
C1331  H1357   1.110   .     S
C1332  H1367   1.107   .     S
C1332  H1365   1.107   .     S
C1332  C1333   1.540   .     S
C1332  C1401   1.511   .     S
C1333  H1364   1.108   .     S
C1333  H1444   1.107   .     S
C1333  H1445   1.106   .     S
C1334  C1340   1.406   .     A
C1334  C1336   1.407   .     A
C1335  H1382   1.077   .     S
C1335  C1348   1.397   .     A
C1336  C1337   1.398   .     A
C1336  H1368   1.083   .     S
C1337  H1369   1.083   .     S
C1337  C1338   1.397   .     A
C1338  C1339   1.398   .     A
C1338  H1370   1.083   .     S
C1339  H1371   1.083   .     S
C1339  C1340   1.399   .     A
C1341  C1342   1.408   .     A
C1341  C1351   1.494   .     S
C1342  C1343   1.399   .     A
C1342  H1373   1.083   .     S
C1343  H1374   1.082   .     S
C1343  C1344   1.395   .     A
C1344  H1375   1.083   .     S
C1345  H1376   1.081   .     S
C1345  C1347   1.398   .     A
C1345  C852    1.395   1_565 S
C1346  C1349   1.381   .     A
C1346  H1383   1.079   .     S
C1347  H1378   1.081   .     S
C1347  C849    1.408   1_565 S
C1348  H1355   1.084   .     S
C1349  H1366   1.084   .     S
C1349  C589    1.390   1_556 S
C1350  C842    1.493   1_565 S
C1350  C859    1.351   1_565 S
C1352  O1391   1.302   .     A
C1352  O1393   1.309   .     A
Cu1353 Cu1354  2.697   .     S
Cu1353 N1386   2.027   .     S
Cu1353 O1390   1.946   .     S
Cu1353 O1387   1.961   .     S
Cu1353 O1391   1.937   .     S
Cu1353 O1394   1.917   .     S
Cu1354 O1392   1.937   .     S
Cu1354 O1393   1.917   .     S
Cu1354 N1385   2.027   .     S
Cu1354 O1388   1.961   .     S
Cu1354 O1389   1.946   .     S
H1356  N1468   1.029   .     S
H1372  C848    1.083   1_565 S
H1380  C1399   1.084   .     S
N1385  H1466   1.026   .     S
N1385  N1468   1.289   .     S
C1395  O1471   1.292   .     A
C1395  O1469   1.286   .     A
C1395  C1432   1.424   .     S
C1396  C1398   1.474   .     S
C1396  O1476   1.302   .     A
C1396  O1474   1.302   .     A
C1397  C1401   1.418   .     A
C1397  C1403   1.395   .     A
C1397  C1434   1.487   .     S
C1398  C1402   1.418   .     A
C1398  C1404   1.406   .     A
C1399  C1401   1.409   .     A
C1399  C1408   1.402   .     A
C1400  C1409   1.397   .     A
C1400  C1402   1.397   .     A
C1400  H1299   1.085   1_655 S
C1402  C1412   1.514   .     S
C1403  H1461   1.072   .     S
C1403  C1405   1.403   .     A
C1404  H1459   1.077   .     S
C1404  C1407   1.407   .     A
C1405  C1408   1.406   .     A
C1405  C1410   1.414   .     A
C1406  O1472   1.292   .     A
C1406  C1433   1.423   .     S
C1406  O1470   1.283   .     A
C1407  C1409   1.418   .     A
C1407  C1411   1.432   .     A
C1408  C692    1.396   1_556 S
C1410  C1428   1.404   .     A
C1410  C673    1.421   1_556 S
C1411  C1417   1.419   .     A
C1412  H1443   1.106   .     S
C1412  C1249   1.522   1_655 S
C1412  H1278   1.105   1_655 S
C1413  H1440   1.110   .     S
C1413  H1441   1.107   .     S
C1413  H1439   1.110   .     S
C1414  H1449   1.107   .     S
C1414  H1447   1.107   .     S
C1414  C1415   1.540   .     S
C1414  C1237   1.511   1_655 S
C1415  H1446   1.108   .     S
C1415  H1280   1.107   1_655 S
C1415  H1281   1.106   1_655 S
C1416  C1422   1.406   .     A
C1416  C1418   1.407   .     A
C1417  H1464   1.077   .     S
C1417  C1430   1.397   .     A
C1418  C1419   1.398   .     A
C1418  H1450   1.083   .     S
C1419  H1451   1.083   .     S
C1419  C1420   1.397   .     A
C1420  C1421   1.398   .     A
C1420  H1452   1.083   .     S
C1421  H1453   1.083   .     S
C1421  C1422   1.399   .     A
C1423  C1424   1.408   .     A
C1423  C1433   1.494   .     S
C1424  C1425   1.399   .     A
C1424  H1455   1.083   .     S
C1425  H1456   1.082   .     S
C1425  C1426   1.395   .     A
C1426  H1457   1.083   .     S
C1427  H1458   1.081   .     S
C1427  C1429   1.398   .     A
C1427  C934    1.395   1_565 S
C1428  C1431   1.381   .     A
C1428  H1465   1.079   .     S
C1429  H1460   1.081   .     S
C1429  C931    1.408   1_565 S
C1430  H1437   1.084   .     S
C1431  H1448   1.084   .     S
C1431  C671    1.390   1_556 S
C1432  C924    1.493   1_565 S
C1432  C941    1.351   1_565 S
C1434  O1473   1.302   .     A
C1434  O1475   1.309   .     A
Cu1435 Cu1436  2.697   .     S
Cu1435 N1468   2.027   .     S
Cu1435 O1472   1.946   .     S
Cu1435 O1469   1.961   .     S
Cu1435 O1473   1.937   .     S
Cu1435 O1476   1.917   .     S
Cu1436 O1474   1.937   .     S
Cu1436 O1475   1.917   .     S
Cu1436 N1467   2.027   .     S
Cu1436 O1470   1.961   .     S
Cu1436 O1471   1.946   .     S
H1438  N1304   1.029   1_655 S
H1454  C930    1.083   1_565 S
H1462  C1235   1.084   1_655 S
N1467  H1302   1.026   1_655 S
N1467  N1304   1.289   1_655 S
