data_str_m2_o1_o17_pcu_sym.216
_audit_creation_date              2020-01-03
_audit_creation_method            'Materials Studio'
_symmetry_space_group_name_H-M    'P1'
_symmetry_Int_Tables_number       1
_symmetry_cell_setting            triclinic
loop_
_symmetry_equiv_pos_as_xyz
  x,y,z
_cell_length_a                    32.4252
_cell_length_b                    28.5450
_cell_length_c                    30.0441
_cell_angle_alpha                 89.9727
_cell_angle_beta                  89.4504
_cell_angle_gamma                 90.2324
loop_
_atom_site_label
_atom_site_type_symbol
_atom_site_fract_x
_atom_site_fract_y
_atom_site_fract_z
_atom_site_U_iso_or_equiv
_atom_site_adp_type
_atom_site_occupancy
C1     C     0.08735   0.16662   0.25058   0.00000  Uiso   1.00
C2     C     0.24595   0.16672   0.25104   0.00000  Uiso   1.00
C3     C     0.09756   0.19913   0.02621   0.00000  Uiso   1.00
C4     C     0.23031   0.12418   0.47402   0.00000  Uiso   1.00
C5     C     0.02111   0.12406   0.25226   0.00000  Uiso   1.00
C6     C     0.31214   0.20928   0.25409   0.00000  Uiso   1.00
C7     C     0.31182   0.12411   0.25287   0.00000  Uiso   1.00
C8     C     0.02144   0.20922   0.25357   0.00000  Uiso   1.00
C9     C     0.29053   0.16673   0.25301   0.00000  Uiso   1.00
C10    C     0.04272   0.16661   0.25210   0.00000  Uiso   1.00
C11    C     0.14096   0.02470   0.22272   0.00000  Uiso   1.00
C12    C     0.19226   0.30862   0.27740   0.00000  Uiso   1.00
C13    C     0.19226   0.02491   0.27740   0.00000  Uiso   1.00
C14    C     0.14097   0.30842   0.22272   0.00000  Uiso   1.00
C15    C     0.16759   0.16669   0.16445   0.00000  Uiso   1.00
C16    C     0.16558   0.16669   0.33556   0.00000  Uiso   1.00
C17    C     0.19580   0.14365   0.40610   0.00000  Uiso   1.00
C18    C     0.13344   0.18223   0.09417   0.00000  Uiso   1.00
C19    C     0.16447   0.16668   0.38382   0.00000  Uiso   1.00
C20    C     0.16840   0.16684   0.11621   0.00000  Uiso   1.00
C21    C     0.13271   0.18963   0.40730   0.00000  Uiso   1.00
C22    C     0.20366   0.15206   0.09239   0.00000  Uiso   1.00
C23    C     0.13084   0.18607   0.45435   0.00000  Uiso   1.00
C24    C     0.20183   0.14800   0.04557   0.00000  Uiso   1.00
C25    C     0.16484   0.16562   0.47669   0.00000  Uiso   1.00
C26    C     0.16645   0.16547   0.02338   0.00000  Uiso   1.00
C27    C     0.19715   0.14465   0.45225   0.00000  Uiso   1.00
C28    C     0.13256   0.18273   0.04791   0.00000  Uiso   1.00
C29    C     0.09618   0.20193   0.47930   0.00000  Uiso   1.00
C30    C     0.23420   0.12734   0.02036   0.00000  Uiso   1.00
Cu31   Cu    0.16667   0.21355   0.25000   0.00000  Uiso   1.00
Cu32   Cu    0.16667   0.11978   0.25000   0.00000  Uiso   1.00
H33    H     0.22018   0.12662   0.38718   0.00000  Uiso   1.00
H34    H     0.10694   0.19416   0.11333   0.00000  Uiso   1.00
N35    N     0.16667   0.28402   0.25000   0.00000  Uiso   1.00
N36    N     0.16667   0.04931   0.25000   0.00000  Uiso   1.00
O37    O     0.10655   0.20625   0.25000   0.00000  Uiso   1.00
O38    O     0.22679   0.12709   0.25001   0.00000  Uiso   1.00
O39    O     0.22679   0.20625   0.25001   0.00000  Uiso   1.00
O40    O     0.10655   0.12709   0.25000   0.00000  Uiso   1.00
O41    O     0.16666   0.20627   0.18513   0.00000  Uiso   1.00
O42    O     0.16668   0.12707   0.31487   0.00000  Uiso   1.00
O43    O     0.16668   0.20627   0.31487   0.00000  Uiso   1.00
O44    O     0.16666   0.12707   0.18513   0.00000  Uiso   1.00
O45    O     0.10309   0.21362   0.38355   0.00000  Uiso   1.00
C46    C     0.11356   0.26181   0.38284   0.00000  Uiso   1.00
H47    H     0.14701   0.26790   0.37577   0.00000  Uiso   1.00
H48    H     0.10573   0.27833   0.41532   0.00000  Uiso   1.00
C49    C     0.08921   0.28611   0.34652   0.00000  Uiso   1.00
H50    H     0.05566   0.28006   0.35154   0.00000  Uiso   1.00
H51    H     0.09556   0.32436   0.34716   0.00000  Uiso   1.00
H52    H     0.09838   0.27218   0.31344   0.00000  Uiso   1.00
O53    O     0.24012   0.14328   0.11463   0.00000  Uiso   1.00
C54    C     0.25979   0.18671   0.12336   0.00000  Uiso   1.00
H55    H     0.24296   0.20589   0.15003   0.00000  Uiso   1.00
H56    H     0.26152   0.20936   0.09310   0.00000  Uiso   1.00
C57    C     0.30361   0.17854   0.13935   0.00000  Uiso   1.00
H58    H     0.32473   0.17240   0.11084   0.00000  Uiso   1.00
H59    H     0.31487   0.21004   0.15723   0.00000  Uiso   1.00
H60    H     0.30460   0.14785   0.16192   0.00000  Uiso   1.00
O61    O     0.06054   0.21473   0.45654   0.00000  Uiso   1.00
C62    C     0.03551   0.24693   0.48011   0.00000  Uiso   1.00
H63    H     0.05426   0.27505   0.49598   0.00000  Uiso   1.00
H64    H     0.01665   0.22815   0.00559   0.00000  Uiso   1.00
C65    C     0.00591   0.27012   0.44801   0.00000  Uiso   1.00
H66    H     0.32095   0.24308   0.43028   0.00000  Uiso   1.00
H67    H     0.31785   0.29338   0.46668   0.00000  Uiso   1.00
H68    H     0.02336   0.29154   0.42339   0.00000  Uiso   1.00
O69    O     0.26596   0.10385   0.04146   0.00000  Uiso   1.00
C70    C     0.30471   0.12207   0.02773   0.00000  Uiso   1.00
H71    H     0.30725   0.15976   0.03664   0.00000  Uiso   1.00
H72    H     0.31011   0.11838   0.49135   0.00000  Uiso   1.00
C73    C     0.00544   0.09494   0.05071   0.00000  Uiso   1.00
H74    H     0.00596   0.05828   0.03834   0.00000  Uiso   1.00
H75    H     0.03579   0.11161   0.04345   0.00000  Uiso   1.00
H76    H     0.00020   0.09430   0.08726   0.00000  Uiso   1.00
H77    H     0.07131   0.20933   0.04641   0.00000  Uiso   1.00
H78    H     0.25314   0.10526   0.45467   0.00000  Uiso   1.00
H79    H     0.03703   0.09077   0.25149   0.00000  Uiso   1.00
H80    H     0.29621   0.24256   0.25458   0.00000  Uiso   1.00
H81    H     0.29565   0.09083   0.25237   0.00000  Uiso   1.00
H82    H     0.03761   0.24250   0.25389   0.00000  Uiso   1.00
H83    H     0.12037   0.04332   0.20087   0.00000  Uiso   1.00
H84    H     0.21274   0.28999   0.29936   0.00000  Uiso   1.00
H85    H     0.21278   0.04369   0.29933   0.00000  Uiso   1.00
H86    H     0.12039   0.28962   0.20087   0.00000  Uiso   1.00
C87    C     0.42068   0.16662   0.25058   0.00000  Uiso   1.00
C88    C     0.57929   0.16672   0.25104   0.00000  Uiso   1.00
C89    C     0.43089   0.19913   0.02621   0.00000  Uiso   1.00
C90    C     0.56365   0.12418   0.47402   0.00000  Uiso   1.00
C91    C     0.35444   0.12406   0.25226   0.00000  Uiso   1.00
C92    C     0.64547   0.20928   0.25409   0.00000  Uiso   1.00
C93    C     0.64516   0.12411   0.25287   0.00000  Uiso   1.00
C94    C     0.35477   0.20922   0.25357   0.00000  Uiso   1.00
C95    C     0.62386   0.16673   0.25301   0.00000  Uiso   1.00
C96    C     0.37606   0.16661   0.25210   0.00000  Uiso   1.00
C97    C     0.47430   0.02470   0.22272   0.00000  Uiso   1.00
C98    C     0.52559   0.30862   0.27740   0.00000  Uiso   1.00
C99    C     0.52560   0.02491   0.27740   0.00000  Uiso   1.00
C100   C     0.47430   0.30842   0.22272   0.00000  Uiso   1.00
C101   C     0.50093   0.16669   0.16445   0.00000  Uiso   1.00
C102   C     0.49891   0.16669   0.33556   0.00000  Uiso   1.00
C103   C     0.52913   0.14365   0.40610   0.00000  Uiso   1.00
C104   C     0.46678   0.18223   0.09417   0.00000  Uiso   1.00
C105   C     0.49780   0.16668   0.38382   0.00000  Uiso   1.00
C106   C     0.50173   0.16684   0.11621   0.00000  Uiso   1.00
C107   C     0.46604   0.18963   0.40730   0.00000  Uiso   1.00
C108   C     0.53700   0.15206   0.09239   0.00000  Uiso   1.00
C109   C     0.46417   0.18607   0.45435   0.00000  Uiso   1.00
C110   C     0.53516   0.14800   0.04557   0.00000  Uiso   1.00
C111   C     0.49818   0.16562   0.47669   0.00000  Uiso   1.00
C112   C     0.49978   0.16547   0.02338   0.00000  Uiso   1.00
C113   C     0.53048   0.14465   0.45225   0.00000  Uiso   1.00
C114   C     0.46590   0.18273   0.04791   0.00000  Uiso   1.00
C115   C     0.42952   0.20193   0.47930   0.00000  Uiso   1.00
C116   C     0.56754   0.12734   0.02036   0.00000  Uiso   1.00
Cu117  Cu    0.50000   0.21355   0.25000   0.00000  Uiso   1.00
Cu118  Cu    0.50000   0.11978   0.25000   0.00000  Uiso   1.00
H119   H     0.55351   0.12662   0.38718   0.00000  Uiso   1.00
H120   H     0.44027   0.19416   0.11333   0.00000  Uiso   1.00
N121   N     0.50000   0.28402   0.25000   0.00000  Uiso   1.00
N122   N     0.50000   0.04931   0.25000   0.00000  Uiso   1.00
O123   O     0.43988   0.20625   0.25000   0.00000  Uiso   1.00
O124   O     0.56012   0.12709   0.25001   0.00000  Uiso   1.00
O125   O     0.56012   0.20625   0.25001   0.00000  Uiso   1.00
O126   O     0.43988   0.12709   0.25000   0.00000  Uiso   1.00
O127   O     0.49999   0.20627   0.18513   0.00000  Uiso   1.00
O128   O     0.50001   0.12707   0.31487   0.00000  Uiso   1.00
O129   O     0.50001   0.20627   0.31487   0.00000  Uiso   1.00
O130   O     0.49999   0.12707   0.18513   0.00000  Uiso   1.00
O131   O     0.43642   0.21362   0.38355   0.00000  Uiso   1.00
C132   C     0.44689   0.26181   0.38284   0.00000  Uiso   1.00
H133   H     0.48034   0.26790   0.37577   0.00000  Uiso   1.00
H134   H     0.43907   0.27833   0.41532   0.00000  Uiso   1.00
C135   C     0.42254   0.28611   0.34652   0.00000  Uiso   1.00
H136   H     0.38899   0.28006   0.35154   0.00000  Uiso   1.00
H137   H     0.42889   0.32436   0.34716   0.00000  Uiso   1.00
H138   H     0.43172   0.27218   0.31344   0.00000  Uiso   1.00
O139   O     0.57345   0.14328   0.11463   0.00000  Uiso   1.00
C140   C     0.59312   0.18671   0.12336   0.00000  Uiso   1.00
H141   H     0.57630   0.20589   0.15003   0.00000  Uiso   1.00
H142   H     0.59486   0.20936   0.09310   0.00000  Uiso   1.00
C143   C     0.63694   0.17854   0.13935   0.00000  Uiso   1.00
H144   H     0.65807   0.17240   0.11084   0.00000  Uiso   1.00
H145   H     0.64820   0.21004   0.15723   0.00000  Uiso   1.00
H146   H     0.63793   0.14785   0.16192   0.00000  Uiso   1.00
O147   O     0.39387   0.21473   0.45654   0.00000  Uiso   1.00
C148   C     0.36885   0.24693   0.48011   0.00000  Uiso   1.00
H149   H     0.38760   0.27505   0.49598   0.00000  Uiso   1.00
H150   H     0.34998   0.22815   0.00559   0.00000  Uiso   1.00
C151   C     0.33924   0.27012   0.44801   0.00000  Uiso   1.00
H152   H     0.65428   0.24308   0.43028   0.00000  Uiso   1.00
H153   H     0.65118   0.29338   0.46668   0.00000  Uiso   1.00
H154   H     0.35669   0.29154   0.42339   0.00000  Uiso   1.00
O155   O     0.59929   0.10385   0.04146   0.00000  Uiso   1.00
C156   C     0.63804   0.12207   0.02773   0.00000  Uiso   1.00
H157   H     0.64058   0.15976   0.03664   0.00000  Uiso   1.00
H158   H     0.64344   0.11838   0.49135   0.00000  Uiso   1.00
C159   C     0.33878   0.09494   0.05071   0.00000  Uiso   1.00
H160   H     0.33929   0.05828   0.03834   0.00000  Uiso   1.00
H161   H     0.36912   0.11161   0.04345   0.00000  Uiso   1.00
H162   H     0.33353   0.09430   0.08726   0.00000  Uiso   1.00
H163   H     0.40464   0.20933   0.04641   0.00000  Uiso   1.00
H164   H     0.58647   0.10526   0.45467   0.00000  Uiso   1.00
H165   H     0.37036   0.09077   0.25149   0.00000  Uiso   1.00
H166   H     0.62954   0.24256   0.25458   0.00000  Uiso   1.00
H167   H     0.62899   0.09083   0.25237   0.00000  Uiso   1.00
H168   H     0.37095   0.24250   0.25389   0.00000  Uiso   1.00
H169   H     0.45371   0.04332   0.20087   0.00000  Uiso   1.00
H170   H     0.54608   0.28999   0.29936   0.00000  Uiso   1.00
H171   H     0.54611   0.04369   0.29933   0.00000  Uiso   1.00
H172   H     0.45372   0.28962   0.20087   0.00000  Uiso   1.00
C173   C     0.75402   0.16662   0.25058   0.00000  Uiso   1.00
C174   C     0.91262   0.16672   0.25104   0.00000  Uiso   1.00
C175   C     0.76423   0.19913   0.02621   0.00000  Uiso   1.00
C176   C     0.89698   0.12418   0.47402   0.00000  Uiso   1.00
C177   C     0.68778   0.12406   0.25226   0.00000  Uiso   1.00
C178   C     0.97880   0.20928   0.25409   0.00000  Uiso   1.00
C179   C     0.97849   0.12411   0.25287   0.00000  Uiso   1.00
C180   C     0.68810   0.20922   0.25357   0.00000  Uiso   1.00
C181   C     0.95719   0.16673   0.25301   0.00000  Uiso   1.00
C182   C     0.70939   0.16661   0.25210   0.00000  Uiso   1.00
C183   C     0.80763   0.02470   0.22272   0.00000  Uiso   1.00
C184   C     0.85892   0.30862   0.27740   0.00000  Uiso   1.00
C185   C     0.85893   0.02491   0.27740   0.00000  Uiso   1.00
C186   C     0.80764   0.30842   0.22272   0.00000  Uiso   1.00
C187   C     0.83426   0.16669   0.16445   0.00000  Uiso   1.00
C188   C     0.83225   0.16669   0.33556   0.00000  Uiso   1.00
C189   C     0.86247   0.14365   0.40610   0.00000  Uiso   1.00
C190   C     0.80011   0.18223   0.09417   0.00000  Uiso   1.00
C191   C     0.83114   0.16668   0.38382   0.00000  Uiso   1.00
C192   C     0.83507   0.16684   0.11621   0.00000  Uiso   1.00
C193   C     0.79938   0.18963   0.40730   0.00000  Uiso   1.00
C194   C     0.87033   0.15206   0.09239   0.00000  Uiso   1.00
C195   C     0.79750   0.18607   0.45435   0.00000  Uiso   1.00
C196   C     0.86850   0.14800   0.04557   0.00000  Uiso   1.00
C197   C     0.83151   0.16562   0.47669   0.00000  Uiso   1.00
C198   C     0.83312   0.16547   0.02338   0.00000  Uiso   1.00
C199   C     0.86382   0.14465   0.45225   0.00000  Uiso   1.00
C200   C     0.79923   0.18273   0.04791   0.00000  Uiso   1.00
C201   C     0.76285   0.20193   0.47930   0.00000  Uiso   1.00
C202   C     0.90087   0.12734   0.02036   0.00000  Uiso   1.00
Cu203  Cu    0.83333   0.21355   0.25000   0.00000  Uiso   1.00
Cu204  Cu    0.83333   0.11978   0.25000   0.00000  Uiso   1.00
H205   H     0.88684   0.12662   0.38718   0.00000  Uiso   1.00
H206   H     0.77361   0.19416   0.11333   0.00000  Uiso   1.00
N207   N     0.83333   0.28402   0.25000   0.00000  Uiso   1.00
N208   N     0.83333   0.04931   0.25000   0.00000  Uiso   1.00
O209   O     0.77321   0.20625   0.25000   0.00000  Uiso   1.00
O210   O     0.89345   0.12709   0.25001   0.00000  Uiso   1.00
O211   O     0.89345   0.20625   0.25001   0.00000  Uiso   1.00
O212   O     0.77321   0.12709   0.25000   0.00000  Uiso   1.00
O213   O     0.83332   0.20627   0.18513   0.00000  Uiso   1.00
O214   O     0.83334   0.12707   0.31487   0.00000  Uiso   1.00
O215   O     0.83334   0.20627   0.31487   0.00000  Uiso   1.00
O216   O     0.83332   0.12707   0.18513   0.00000  Uiso   1.00
O217   O     0.76976   0.21362   0.38355   0.00000  Uiso   1.00
C218   C     0.78023   0.26181   0.38284   0.00000  Uiso   1.00
H219   H     0.81367   0.26790   0.37577   0.00000  Uiso   1.00
H220   H     0.77240   0.27833   0.41532   0.00000  Uiso   1.00
C221   C     0.75588   0.28611   0.34652   0.00000  Uiso   1.00
H222   H     0.72232   0.28006   0.35154   0.00000  Uiso   1.00
H223   H     0.76222   0.32436   0.34716   0.00000  Uiso   1.00
H224   H     0.76505   0.27218   0.31344   0.00000  Uiso   1.00
O225   O     0.90678   0.14328   0.11463   0.00000  Uiso   1.00
C226   C     0.92646   0.18671   0.12336   0.00000  Uiso   1.00
H227   H     0.90963   0.20589   0.15003   0.00000  Uiso   1.00
H228   H     0.92819   0.20936   0.09310   0.00000  Uiso   1.00
C229   C     0.97027   0.17854   0.13935   0.00000  Uiso   1.00
H230   H     0.99140   0.17240   0.11084   0.00000  Uiso   1.00
H231   H     0.98153   0.21004   0.15723   0.00000  Uiso   1.00
H232   H     0.97126   0.14785   0.16192   0.00000  Uiso   1.00
O233   O     0.72721   0.21473   0.45654   0.00000  Uiso   1.00
C234   C     0.70218   0.24693   0.48011   0.00000  Uiso   1.00
H235   H     0.72093   0.27505   0.49598   0.00000  Uiso   1.00
H236   H     0.68331   0.22815   0.00559   0.00000  Uiso   1.00
C237   C     0.67258   0.27012   0.44801   0.00000  Uiso   1.00
H238   H     0.98761   0.24308   0.43028   0.00000  Uiso   1.00
H239   H     0.98451   0.29338   0.46668   0.00000  Uiso   1.00
H240   H     0.69003   0.29154   0.42339   0.00000  Uiso   1.00
O241   O     0.93263   0.10385   0.04146   0.00000  Uiso   1.00
C242   C     0.97137   0.12207   0.02773   0.00000  Uiso   1.00
H243   H     0.97391   0.15976   0.03664   0.00000  Uiso   1.00
H244   H     0.97677   0.11838   0.49135   0.00000  Uiso   1.00
C245   C     0.67211   0.09494   0.05071   0.00000  Uiso   1.00
H246   H     0.67263   0.05828   0.03834   0.00000  Uiso   1.00
H247   H     0.70245   0.11161   0.04345   0.00000  Uiso   1.00
H248   H     0.66686   0.09430   0.08726   0.00000  Uiso   1.00
H249   H     0.73797   0.20933   0.04641   0.00000  Uiso   1.00
H250   H     0.91980   0.10526   0.45467   0.00000  Uiso   1.00
H251   H     0.70369   0.09077   0.25149   0.00000  Uiso   1.00
H252   H     0.96288   0.24256   0.25458   0.00000  Uiso   1.00
H253   H     0.96232   0.09083   0.25237   0.00000  Uiso   1.00
H254   H     0.70428   0.24250   0.25389   0.00000  Uiso   1.00
H255   H     0.78704   0.04332   0.20087   0.00000  Uiso   1.00
H256   H     0.87941   0.28999   0.29936   0.00000  Uiso   1.00
H257   H     0.87944   0.04369   0.29933   0.00000  Uiso   1.00
H258   H     0.78705   0.28962   0.20087   0.00000  Uiso   1.00
C259   C     0.08735   0.49995   0.25058   0.00000  Uiso   1.00
C260   C     0.24595   0.50006   0.25104   0.00000  Uiso   1.00
C261   C     0.09756   0.53247   0.02621   0.00000  Uiso   1.00
C262   C     0.23031   0.45751   0.47402   0.00000  Uiso   1.00
C263   C     0.02111   0.45739   0.25226   0.00000  Uiso   1.00
C264   C     0.31214   0.54261   0.25409   0.00000  Uiso   1.00
C265   C     0.31182   0.45744   0.25287   0.00000  Uiso   1.00
C266   C     0.02144   0.54256   0.25357   0.00000  Uiso   1.00
C267   C     0.29053   0.50007   0.25301   0.00000  Uiso   1.00
C268   C     0.04272   0.49995   0.25210   0.00000  Uiso   1.00
C269   C     0.14096   0.35804   0.22272   0.00000  Uiso   1.00
C270   C     0.19226   0.64195   0.27740   0.00000  Uiso   1.00
C271   C     0.19226   0.35824   0.27740   0.00000  Uiso   1.00
C272   C     0.14097   0.64175   0.22272   0.00000  Uiso   1.00
C273   C     0.16759   0.50002   0.16445   0.00000  Uiso   1.00
C274   C     0.16558   0.50003   0.33556   0.00000  Uiso   1.00
C275   C     0.19580   0.47698   0.40610   0.00000  Uiso   1.00
C276   C     0.13344   0.51556   0.09417   0.00000  Uiso   1.00
C277   C     0.16447   0.50001   0.38382   0.00000  Uiso   1.00
C278   C     0.16840   0.50017   0.11621   0.00000  Uiso   1.00
C279   C     0.13271   0.52296   0.40730   0.00000  Uiso   1.00
C280   C     0.20366   0.48539   0.09239   0.00000  Uiso   1.00
C281   C     0.13084   0.51940   0.45435   0.00000  Uiso   1.00
C282   C     0.20183   0.48133   0.04557   0.00000  Uiso   1.00
C283   C     0.16484   0.49895   0.47669   0.00000  Uiso   1.00
C284   C     0.16645   0.49881   0.02338   0.00000  Uiso   1.00
C285   C     0.19715   0.47798   0.45225   0.00000  Uiso   1.00
C286   C     0.13256   0.51606   0.04791   0.00000  Uiso   1.00
C287   C     0.09618   0.53526   0.47930   0.00000  Uiso   1.00
C288   C     0.23420   0.46067   0.02036   0.00000  Uiso   1.00
Cu289  Cu    0.16667   0.54689   0.25000   0.00000  Uiso   1.00
Cu290  Cu    0.16667   0.45311   0.25000   0.00000  Uiso   1.00
H291   H     0.22018   0.45995   0.38718   0.00000  Uiso   1.00
H292   H     0.10694   0.52749   0.11333   0.00000  Uiso   1.00
N293   N     0.16667   0.61736   0.25000   0.00000  Uiso   1.00
N294   N     0.16667   0.38264   0.25000   0.00000  Uiso   1.00
O295   O     0.10655   0.53958   0.25000   0.00000  Uiso   1.00
O296   O     0.22679   0.46042   0.25001   0.00000  Uiso   1.00
O297   O     0.22679   0.53958   0.25001   0.00000  Uiso   1.00
O298   O     0.10655   0.46042   0.25000   0.00000  Uiso   1.00
O299   O     0.16666   0.53960   0.18513   0.00000  Uiso   1.00
O300   O     0.16668   0.46040   0.31487   0.00000  Uiso   1.00
O301   O     0.16668   0.53960   0.31487   0.00000  Uiso   1.00
O302   O     0.16666   0.46040   0.18513   0.00000  Uiso   1.00
O303   O     0.10309   0.54695   0.38355   0.00000  Uiso   1.00
C304   C     0.11356   0.59515   0.38284   0.00000  Uiso   1.00
H305   H     0.14701   0.60123   0.37577   0.00000  Uiso   1.00
H306   H     0.10573   0.61166   0.41532   0.00000  Uiso   1.00
C307   C     0.08921   0.61944   0.34652   0.00000  Uiso   1.00
H308   H     0.05566   0.61339   0.35154   0.00000  Uiso   1.00
H309   H     0.09556   0.65769   0.34716   0.00000  Uiso   1.00
H310   H     0.09838   0.60551   0.31344   0.00000  Uiso   1.00
O311   O     0.24012   0.47661   0.11463   0.00000  Uiso   1.00
C312   C     0.25979   0.52004   0.12336   0.00000  Uiso   1.00
H313   H     0.24296   0.53922   0.15003   0.00000  Uiso   1.00
H314   H     0.26152   0.54269   0.09310   0.00000  Uiso   1.00
C315   C     0.30361   0.51187   0.13935   0.00000  Uiso   1.00
H316   H     0.32473   0.50573   0.11084   0.00000  Uiso   1.00
H317   H     0.31487   0.54338   0.15723   0.00000  Uiso   1.00
H318   H     0.30460   0.48118   0.16192   0.00000  Uiso   1.00
O319   O     0.06054   0.54806   0.45654   0.00000  Uiso   1.00
C320   C     0.03551   0.58027   0.48011   0.00000  Uiso   1.00
H321   H     0.05426   0.60838   0.49598   0.00000  Uiso   1.00
H322   H     0.01665   0.56149   0.00559   0.00000  Uiso   1.00
C323   C     0.00591   0.60345   0.44801   0.00000  Uiso   1.00
H324   H     0.32095   0.57642   0.43028   0.00000  Uiso   1.00
H325   H     0.31785   0.62671   0.46668   0.00000  Uiso   1.00
H326   H     0.02336   0.62487   0.42339   0.00000  Uiso   1.00
O327   O     0.26596   0.43718   0.04146   0.00000  Uiso   1.00
C328   C     0.30471   0.45540   0.02773   0.00000  Uiso   1.00
H329   H     0.30725   0.49310   0.03664   0.00000  Uiso   1.00
H330   H     0.31011   0.45171   0.49135   0.00000  Uiso   1.00
C331   C     0.00544   0.42827   0.05071   0.00000  Uiso   1.00
H332   H     0.00596   0.39161   0.03834   0.00000  Uiso   1.00
H333   H     0.03579   0.44494   0.04345   0.00000  Uiso   1.00
H334   H     0.00020   0.42763   0.08726   0.00000  Uiso   1.00
H335   H     0.07131   0.54266   0.04641   0.00000  Uiso   1.00
H336   H     0.25314   0.43859   0.45467   0.00000  Uiso   1.00
H337   H     0.03703   0.42410   0.25149   0.00000  Uiso   1.00
H338   H     0.29621   0.57589   0.25458   0.00000  Uiso   1.00
H339   H     0.29565   0.42416   0.25237   0.00000  Uiso   1.00
H340   H     0.03761   0.57583   0.25389   0.00000  Uiso   1.00
H341   H     0.12037   0.37666   0.20087   0.00000  Uiso   1.00
H342   H     0.21274   0.62332   0.29936   0.00000  Uiso   1.00
H343   H     0.21278   0.37703   0.29933   0.00000  Uiso   1.00
H344   H     0.12039   0.62296   0.20087   0.00000  Uiso   1.00
C345   C     0.42068   0.49995   0.25058   0.00000  Uiso   1.00
C346   C     0.57929   0.50006   0.25104   0.00000  Uiso   1.00
C347   C     0.43089   0.53247   0.02621   0.00000  Uiso   1.00
C348   C     0.56365   0.45751   0.47402   0.00000  Uiso   1.00
C349   C     0.35444   0.45739   0.25226   0.00000  Uiso   1.00
C350   C     0.64547   0.54261   0.25409   0.00000  Uiso   1.00
C351   C     0.64516   0.45744   0.25287   0.00000  Uiso   1.00
C352   C     0.35477   0.54256   0.25357   0.00000  Uiso   1.00
C353   C     0.62386   0.50007   0.25301   0.00000  Uiso   1.00
C354   C     0.37606   0.49995   0.25210   0.00000  Uiso   1.00
C355   C     0.47430   0.35804   0.22272   0.00000  Uiso   1.00
C356   C     0.52559   0.64195   0.27740   0.00000  Uiso   1.00
C357   C     0.52560   0.35824   0.27740   0.00000  Uiso   1.00
C358   C     0.47430   0.64175   0.22272   0.00000  Uiso   1.00
C359   C     0.50093   0.50002   0.16445   0.00000  Uiso   1.00
C360   C     0.49891   0.50003   0.33556   0.00000  Uiso   1.00
C361   C     0.52913   0.47698   0.40610   0.00000  Uiso   1.00
C362   C     0.46678   0.51556   0.09417   0.00000  Uiso   1.00
C363   C     0.49780   0.50001   0.38382   0.00000  Uiso   1.00
C364   C     0.50173   0.50017   0.11621   0.00000  Uiso   1.00
C365   C     0.46604   0.52296   0.40730   0.00000  Uiso   1.00
C366   C     0.53700   0.48539   0.09239   0.00000  Uiso   1.00
C367   C     0.46417   0.51940   0.45435   0.00000  Uiso   1.00
C368   C     0.53516   0.48133   0.04557   0.00000  Uiso   1.00
C369   C     0.49818   0.49895   0.47669   0.00000  Uiso   1.00
C370   C     0.49978   0.49881   0.02338   0.00000  Uiso   1.00
C371   C     0.53048   0.47798   0.45225   0.00000  Uiso   1.00
C372   C     0.46590   0.51606   0.04791   0.00000  Uiso   1.00
C373   C     0.42952   0.53526   0.47930   0.00000  Uiso   1.00
C374   C     0.56754   0.46067   0.02036   0.00000  Uiso   1.00
Cu375  Cu    0.50000   0.54689   0.25000   0.00000  Uiso   1.00
Cu376  Cu    0.50000   0.45311   0.25000   0.00000  Uiso   1.00
H377   H     0.55351   0.45995   0.38718   0.00000  Uiso   1.00
H378   H     0.44027   0.52749   0.11333   0.00000  Uiso   1.00
N379   N     0.50000   0.61736   0.25000   0.00000  Uiso   1.00
N380   N     0.50000   0.38264   0.25000   0.00000  Uiso   1.00
O381   O     0.43988   0.53958   0.25000   0.00000  Uiso   1.00
O382   O     0.56012   0.46042   0.25001   0.00000  Uiso   1.00
O383   O     0.56012   0.53958   0.25001   0.00000  Uiso   1.00
O384   O     0.43988   0.46042   0.25000   0.00000  Uiso   1.00
O385   O     0.49999   0.53960   0.18513   0.00000  Uiso   1.00
O386   O     0.50001   0.46040   0.31487   0.00000  Uiso   1.00
O387   O     0.50001   0.53960   0.31487   0.00000  Uiso   1.00
O388   O     0.49999   0.46040   0.18513   0.00000  Uiso   1.00
O389   O     0.43642   0.54695   0.38355   0.00000  Uiso   1.00
C390   C     0.44689   0.59515   0.38284   0.00000  Uiso   1.00
H391   H     0.48034   0.60123   0.37577   0.00000  Uiso   1.00
H392   H     0.43907   0.61166   0.41532   0.00000  Uiso   1.00
C393   C     0.42254   0.61944   0.34652   0.00000  Uiso   1.00
H394   H     0.38899   0.61339   0.35154   0.00000  Uiso   1.00
H395   H     0.42889   0.65769   0.34716   0.00000  Uiso   1.00
H396   H     0.43172   0.60551   0.31344   0.00000  Uiso   1.00
O397   O     0.57345   0.47661   0.11463   0.00000  Uiso   1.00
C398   C     0.59312   0.52004   0.12336   0.00000  Uiso   1.00
H399   H     0.57630   0.53922   0.15003   0.00000  Uiso   1.00
H400   H     0.59486   0.54269   0.09310   0.00000  Uiso   1.00
C401   C     0.63694   0.51187   0.13935   0.00000  Uiso   1.00
H402   H     0.65807   0.50573   0.11084   0.00000  Uiso   1.00
H403   H     0.64820   0.54338   0.15723   0.00000  Uiso   1.00
H404   H     0.63793   0.48118   0.16192   0.00000  Uiso   1.00
O405   O     0.39387   0.54806   0.45654   0.00000  Uiso   1.00
C406   C     0.36885   0.58027   0.48011   0.00000  Uiso   1.00
H407   H     0.38760   0.60838   0.49598   0.00000  Uiso   1.00
H408   H     0.34998   0.56149   0.00559   0.00000  Uiso   1.00
C409   C     0.33924   0.60345   0.44801   0.00000  Uiso   1.00
H410   H     0.65428   0.57642   0.43028   0.00000  Uiso   1.00
H411   H     0.65118   0.62671   0.46668   0.00000  Uiso   1.00
H412   H     0.35669   0.62487   0.42339   0.00000  Uiso   1.00
O413   O     0.59929   0.43718   0.04146   0.00000  Uiso   1.00
C414   C     0.63804   0.45540   0.02773   0.00000  Uiso   1.00
H415   H     0.64058   0.49310   0.03664   0.00000  Uiso   1.00
H416   H     0.64344   0.45171   0.49135   0.00000  Uiso   1.00
C417   C     0.33878   0.42827   0.05071   0.00000  Uiso   1.00
H418   H     0.33929   0.39161   0.03834   0.00000  Uiso   1.00
H419   H     0.36912   0.44494   0.04345   0.00000  Uiso   1.00
H420   H     0.33353   0.42763   0.08726   0.00000  Uiso   1.00
H421   H     0.40464   0.54266   0.04641   0.00000  Uiso   1.00
H422   H     0.58647   0.43859   0.45467   0.00000  Uiso   1.00
H423   H     0.37036   0.42410   0.25149   0.00000  Uiso   1.00
H424   H     0.62954   0.57589   0.25458   0.00000  Uiso   1.00
H425   H     0.62899   0.42416   0.25237   0.00000  Uiso   1.00
H426   H     0.37095   0.57583   0.25389   0.00000  Uiso   1.00
H427   H     0.45371   0.37666   0.20087   0.00000  Uiso   1.00
H428   H     0.54608   0.62332   0.29936   0.00000  Uiso   1.00
H429   H     0.54611   0.37703   0.29933   0.00000  Uiso   1.00
H430   H     0.45372   0.62296   0.20087   0.00000  Uiso   1.00
C431   C     0.75402   0.49995   0.25058   0.00000  Uiso   1.00
C432   C     0.91262   0.50006   0.25104   0.00000  Uiso   1.00
C433   C     0.76423   0.53247   0.02621   0.00000  Uiso   1.00
C434   C     0.89698   0.45751   0.47402   0.00000  Uiso   1.00
C435   C     0.68778   0.45739   0.25226   0.00000  Uiso   1.00
C436   C     0.97880   0.54261   0.25409   0.00000  Uiso   1.00
C437   C     0.97849   0.45744   0.25287   0.00000  Uiso   1.00
C438   C     0.68810   0.54256   0.25357   0.00000  Uiso   1.00
C439   C     0.95719   0.50007   0.25301   0.00000  Uiso   1.00
C440   C     0.70939   0.49995   0.25210   0.00000  Uiso   1.00
C441   C     0.80763   0.35804   0.22272   0.00000  Uiso   1.00
C442   C     0.85892   0.64195   0.27740   0.00000  Uiso   1.00
C443   C     0.85893   0.35824   0.27740   0.00000  Uiso   1.00
C444   C     0.80764   0.64175   0.22272   0.00000  Uiso   1.00
C445   C     0.83426   0.50002   0.16445   0.00000  Uiso   1.00
C446   C     0.83225   0.50003   0.33556   0.00000  Uiso   1.00
C447   C     0.86247   0.47698   0.40610   0.00000  Uiso   1.00
C448   C     0.80011   0.51556   0.09417   0.00000  Uiso   1.00
C449   C     0.83114   0.50001   0.38382   0.00000  Uiso   1.00
C450   C     0.83507   0.50017   0.11621   0.00000  Uiso   1.00
C451   C     0.79938   0.52296   0.40730   0.00000  Uiso   1.00
C452   C     0.87033   0.48539   0.09239   0.00000  Uiso   1.00
C453   C     0.79750   0.51940   0.45435   0.00000  Uiso   1.00
C454   C     0.86850   0.48133   0.04557   0.00000  Uiso   1.00
C455   C     0.83151   0.49895   0.47669   0.00000  Uiso   1.00
C456   C     0.83312   0.49881   0.02338   0.00000  Uiso   1.00
C457   C     0.86382   0.47798   0.45225   0.00000  Uiso   1.00
C458   C     0.79923   0.51606   0.04791   0.00000  Uiso   1.00
C459   C     0.76285   0.53526   0.47930   0.00000  Uiso   1.00
C460   C     0.90087   0.46067   0.02036   0.00000  Uiso   1.00
Cu461  Cu    0.83333   0.54689   0.25000   0.00000  Uiso   1.00
Cu462  Cu    0.83333   0.45311   0.25000   0.00000  Uiso   1.00
H463   H     0.88684   0.45995   0.38718   0.00000  Uiso   1.00
H464   H     0.77361   0.52749   0.11333   0.00000  Uiso   1.00
N465   N     0.83333   0.61736   0.25000   0.00000  Uiso   1.00
N466   N     0.83333   0.38264   0.25000   0.00000  Uiso   1.00
O467   O     0.77321   0.53958   0.25000   0.00000  Uiso   1.00
O468   O     0.89345   0.46042   0.25001   0.00000  Uiso   1.00
O469   O     0.89345   0.53958   0.25001   0.00000  Uiso   1.00
O470   O     0.77321   0.46042   0.25000   0.00000  Uiso   1.00
O471   O     0.83332   0.53960   0.18513   0.00000  Uiso   1.00
O472   O     0.83334   0.46040   0.31487   0.00000  Uiso   1.00
O473   O     0.83334   0.53960   0.31487   0.00000  Uiso   1.00
O474   O     0.83332   0.46040   0.18513   0.00000  Uiso   1.00
O475   O     0.76976   0.54695   0.38355   0.00000  Uiso   1.00
C476   C     0.78023   0.59515   0.38284   0.00000  Uiso   1.00
H477   H     0.81367   0.60123   0.37577   0.00000  Uiso   1.00
H478   H     0.77240   0.61166   0.41532   0.00000  Uiso   1.00
C479   C     0.75588   0.61944   0.34652   0.00000  Uiso   1.00
H480   H     0.72232   0.61339   0.35154   0.00000  Uiso   1.00
H481   H     0.76222   0.65769   0.34716   0.00000  Uiso   1.00
H482   H     0.76505   0.60551   0.31344   0.00000  Uiso   1.00
O483   O     0.90678   0.47661   0.11463   0.00000  Uiso   1.00
C484   C     0.92646   0.52004   0.12336   0.00000  Uiso   1.00
H485   H     0.90963   0.53922   0.15003   0.00000  Uiso   1.00
H486   H     0.92819   0.54269   0.09310   0.00000  Uiso   1.00
C487   C     0.97027   0.51187   0.13935   0.00000  Uiso   1.00
H488   H     0.99140   0.50573   0.11084   0.00000  Uiso   1.00
H489   H     0.98153   0.54338   0.15723   0.00000  Uiso   1.00
H490   H     0.97126   0.48118   0.16192   0.00000  Uiso   1.00
O491   O     0.72721   0.54806   0.45654   0.00000  Uiso   1.00
C492   C     0.70218   0.58027   0.48011   0.00000  Uiso   1.00
H493   H     0.72093   0.60838   0.49598   0.00000  Uiso   1.00
H494   H     0.68331   0.56149   0.00559   0.00000  Uiso   1.00
C495   C     0.67258   0.60345   0.44801   0.00000  Uiso   1.00
H496   H     0.98761   0.57642   0.43028   0.00000  Uiso   1.00
H497   H     0.98451   0.62671   0.46668   0.00000  Uiso   1.00
H498   H     0.69003   0.62487   0.42339   0.00000  Uiso   1.00
O499   O     0.93263   0.43718   0.04146   0.00000  Uiso   1.00
C500   C     0.97137   0.45540   0.02773   0.00000  Uiso   1.00
H501   H     0.97391   0.49310   0.03664   0.00000  Uiso   1.00
H502   H     0.97677   0.45171   0.49135   0.00000  Uiso   1.00
C503   C     0.67211   0.42827   0.05071   0.00000  Uiso   1.00
H504   H     0.67263   0.39161   0.03834   0.00000  Uiso   1.00
H505   H     0.70245   0.44494   0.04345   0.00000  Uiso   1.00
H506   H     0.66686   0.42763   0.08726   0.00000  Uiso   1.00
H507   H     0.73797   0.54266   0.04641   0.00000  Uiso   1.00
H508   H     0.91980   0.43859   0.45467   0.00000  Uiso   1.00
H509   H     0.70369   0.42410   0.25149   0.00000  Uiso   1.00
H510   H     0.96288   0.57589   0.25458   0.00000  Uiso   1.00
H511   H     0.96232   0.42416   0.25237   0.00000  Uiso   1.00
H512   H     0.70428   0.57583   0.25389   0.00000  Uiso   1.00
H513   H     0.78704   0.37666   0.20087   0.00000  Uiso   1.00
H514   H     0.87941   0.62332   0.29936   0.00000  Uiso   1.00
H515   H     0.87944   0.37703   0.29933   0.00000  Uiso   1.00
H516   H     0.78705   0.62296   0.20087   0.00000  Uiso   1.00
C517   C     0.08735   0.83329   0.25058   0.00000  Uiso   1.00
C518   C     0.24595   0.83339   0.25104   0.00000  Uiso   1.00
C519   C     0.09756   0.86580   0.02621   0.00000  Uiso   1.00
C520   C     0.23031   0.79085   0.47402   0.00000  Uiso   1.00
C521   C     0.02111   0.79072   0.25226   0.00000  Uiso   1.00
C522   C     0.31214   0.87594   0.25409   0.00000  Uiso   1.00
C523   C     0.31182   0.79077   0.25287   0.00000  Uiso   1.00
C524   C     0.02144   0.87589   0.25357   0.00000  Uiso   1.00
C525   C     0.29053   0.83340   0.25301   0.00000  Uiso   1.00
C526   C     0.04272   0.83328   0.25210   0.00000  Uiso   1.00
C527   C     0.14096   0.69137   0.22272   0.00000  Uiso   1.00
C528   C     0.19226   0.97529   0.27740   0.00000  Uiso   1.00
C529   C     0.19226   0.69157   0.27740   0.00000  Uiso   1.00
C530   C     0.14097   0.97508   0.22272   0.00000  Uiso   1.00
C531   C     0.16759   0.83336   0.16445   0.00000  Uiso   1.00
C532   C     0.16558   0.83336   0.33556   0.00000  Uiso   1.00
C533   C     0.19580   0.81031   0.40610   0.00000  Uiso   1.00
C534   C     0.13344   0.84889   0.09417   0.00000  Uiso   1.00
C535   C     0.16447   0.83334   0.38382   0.00000  Uiso   1.00
C536   C     0.16840   0.83351   0.11621   0.00000  Uiso   1.00
C537   C     0.13271   0.85630   0.40730   0.00000  Uiso   1.00
C538   C     0.20366   0.81872   0.09239   0.00000  Uiso   1.00
C539   C     0.13084   0.85273   0.45435   0.00000  Uiso   1.00
C540   C     0.20183   0.81467   0.04557   0.00000  Uiso   1.00
C541   C     0.16484   0.83228   0.47669   0.00000  Uiso   1.00
C542   C     0.16645   0.83214   0.02338   0.00000  Uiso   1.00
C543   C     0.19715   0.81132   0.45225   0.00000  Uiso   1.00
C544   C     0.13256   0.84940   0.04791   0.00000  Uiso   1.00
C545   C     0.09618   0.86860   0.47930   0.00000  Uiso   1.00
C546   C     0.23420   0.79400   0.02036   0.00000  Uiso   1.00
Cu547  Cu    0.16667   0.88022   0.25000   0.00000  Uiso   1.00
Cu548  Cu    0.16667   0.78645   0.25000   0.00000  Uiso   1.00
H549   H     0.22018   0.79328   0.38718   0.00000  Uiso   1.00
H550   H     0.10694   0.86082   0.11333   0.00000  Uiso   1.00
N551   N     0.16667   0.95069   0.25000   0.00000  Uiso   1.00
N552   N     0.16667   0.71598   0.25000   0.00000  Uiso   1.00
O553   O     0.10655   0.87291   0.25000   0.00000  Uiso   1.00
O554   O     0.22679   0.79375   0.25001   0.00000  Uiso   1.00
O555   O     0.22679   0.87291   0.25001   0.00000  Uiso   1.00
O556   O     0.10655   0.79375   0.25000   0.00000  Uiso   1.00
O557   O     0.16666   0.87293   0.18513   0.00000  Uiso   1.00
O558   O     0.16668   0.79373   0.31487   0.00000  Uiso   1.00
O559   O     0.16668   0.87293   0.31487   0.00000  Uiso   1.00
O560   O     0.16666   0.79373   0.18513   0.00000  Uiso   1.00
O561   O     0.10309   0.88029   0.38355   0.00000  Uiso   1.00
C562   C     0.11356   0.92848   0.38284   0.00000  Uiso   1.00
H563   H     0.14701   0.93456   0.37577   0.00000  Uiso   1.00
H564   H     0.10573   0.94499   0.41532   0.00000  Uiso   1.00
C565   C     0.08921   0.95277   0.34652   0.00000  Uiso   1.00
H566   H     0.05566   0.94673   0.35154   0.00000  Uiso   1.00
H567   H     0.09556   0.99102   0.34716   0.00000  Uiso   1.00
H568   H     0.09838   0.93884   0.31344   0.00000  Uiso   1.00
O569   O     0.24012   0.80994   0.11463   0.00000  Uiso   1.00
C570   C     0.25979   0.85337   0.12336   0.00000  Uiso   1.00
H571   H     0.24296   0.87256   0.15003   0.00000  Uiso   1.00
H572   H     0.26152   0.87603   0.09310   0.00000  Uiso   1.00
C573   C     0.30361   0.84520   0.13935   0.00000  Uiso   1.00
H574   H     0.32473   0.83907   0.11084   0.00000  Uiso   1.00
H575   H     0.31487   0.87671   0.15723   0.00000  Uiso   1.00
H576   H     0.30460   0.81452   0.16192   0.00000  Uiso   1.00
O577   O     0.06054   0.88140   0.45654   0.00000  Uiso   1.00
C578   C     0.03551   0.91360   0.48011   0.00000  Uiso   1.00
H579   H     0.05426   0.94172   0.49598   0.00000  Uiso   1.00
H580   H     0.01665   0.89482   0.00559   0.00000  Uiso   1.00
C581   C     0.00591   0.93678   0.44801   0.00000  Uiso   1.00
H582   H     0.32095   0.90975   0.43028   0.00000  Uiso   1.00
H583   H     0.31785   0.96004   0.46668   0.00000  Uiso   1.00
H584   H     0.02336   0.95820   0.42339   0.00000  Uiso   1.00
O585   O     0.26596   0.77052   0.04146   0.00000  Uiso   1.00
C586   C     0.30471   0.78873   0.02773   0.00000  Uiso   1.00
H587   H     0.30725   0.82643   0.03664   0.00000  Uiso   1.00
H588   H     0.31011   0.78504   0.49135   0.00000  Uiso   1.00
C589   C     0.00544   0.76160   0.05071   0.00000  Uiso   1.00
H590   H     0.00596   0.72494   0.03834   0.00000  Uiso   1.00
H591   H     0.03579   0.77827   0.04345   0.00000  Uiso   1.00
H592   H     0.00020   0.76097   0.08726   0.00000  Uiso   1.00
H593   H     0.07131   0.87600   0.04641   0.00000  Uiso   1.00
H594   H     0.25314   0.77193   0.45467   0.00000  Uiso   1.00
H595   H     0.03703   0.75744   0.25149   0.00000  Uiso   1.00
H596   H     0.29621   0.90923   0.25458   0.00000  Uiso   1.00
H597   H     0.29565   0.75750   0.25237   0.00000  Uiso   1.00
H598   H     0.03761   0.90916   0.25389   0.00000  Uiso   1.00
H599   H     0.12037   0.70999   0.20087   0.00000  Uiso   1.00
H600   H     0.21274   0.95666   0.29936   0.00000  Uiso   1.00
H601   H     0.21278   0.71036   0.29933   0.00000  Uiso   1.00
H602   H     0.12039   0.95629   0.20087   0.00000  Uiso   1.00
C603   C     0.42068   0.83329   0.25058   0.00000  Uiso   1.00
C604   C     0.57929   0.83339   0.25104   0.00000  Uiso   1.00
C605   C     0.43089   0.86580   0.02621   0.00000  Uiso   1.00
C606   C     0.56365   0.79085   0.47402   0.00000  Uiso   1.00
C607   C     0.35444   0.79072   0.25226   0.00000  Uiso   1.00
C608   C     0.64547   0.87594   0.25409   0.00000  Uiso   1.00
C609   C     0.64516   0.79077   0.25287   0.00000  Uiso   1.00
C610   C     0.35477   0.87589   0.25357   0.00000  Uiso   1.00
C611   C     0.62386   0.83340   0.25301   0.00000  Uiso   1.00
C612   C     0.37606   0.83328   0.25210   0.00000  Uiso   1.00
C613   C     0.47430   0.69137   0.22272   0.00000  Uiso   1.00
C614   C     0.52559   0.97529   0.27740   0.00000  Uiso   1.00
C615   C     0.52560   0.69157   0.27740   0.00000  Uiso   1.00
C616   C     0.47430   0.97508   0.22272   0.00000  Uiso   1.00
C617   C     0.50093   0.83336   0.16445   0.00000  Uiso   1.00
C618   C     0.49891   0.83336   0.33556   0.00000  Uiso   1.00
C619   C     0.52913   0.81031   0.40610   0.00000  Uiso   1.00
C620   C     0.46678   0.84889   0.09417   0.00000  Uiso   1.00
C621   C     0.49780   0.83334   0.38382   0.00000  Uiso   1.00
C622   C     0.50173   0.83351   0.11621   0.00000  Uiso   1.00
C623   C     0.46604   0.85630   0.40730   0.00000  Uiso   1.00
C624   C     0.53700   0.81872   0.09239   0.00000  Uiso   1.00
C625   C     0.46417   0.85273   0.45435   0.00000  Uiso   1.00
C626   C     0.53516   0.81467   0.04557   0.00000  Uiso   1.00
C627   C     0.49818   0.83228   0.47669   0.00000  Uiso   1.00
C628   C     0.49978   0.83214   0.02338   0.00000  Uiso   1.00
C629   C     0.53048   0.81132   0.45225   0.00000  Uiso   1.00
C630   C     0.46590   0.84940   0.04791   0.00000  Uiso   1.00
C631   C     0.42952   0.86860   0.47930   0.00000  Uiso   1.00
C632   C     0.56754   0.79400   0.02036   0.00000  Uiso   1.00
Cu633  Cu    0.50000   0.88022   0.25000   0.00000  Uiso   1.00
Cu634  Cu    0.50000   0.78645   0.25000   0.00000  Uiso   1.00
H635   H     0.55351   0.79328   0.38718   0.00000  Uiso   1.00
H636   H     0.44027   0.86082   0.11333   0.00000  Uiso   1.00
N637   N     0.50000   0.95069   0.25000   0.00000  Uiso   1.00
N638   N     0.50000   0.71598   0.25000   0.00000  Uiso   1.00
O639   O     0.43988   0.87291   0.25000   0.00000  Uiso   1.00
O640   O     0.56012   0.79375   0.25001   0.00000  Uiso   1.00
O641   O     0.56012   0.87291   0.25001   0.00000  Uiso   1.00
O642   O     0.43988   0.79375   0.25000   0.00000  Uiso   1.00
O643   O     0.49999   0.87293   0.18513   0.00000  Uiso   1.00
O644   O     0.50001   0.79373   0.31487   0.00000  Uiso   1.00
O645   O     0.50001   0.87293   0.31487   0.00000  Uiso   1.00
O646   O     0.49999   0.79373   0.18513   0.00000  Uiso   1.00
O647   O     0.43642   0.88029   0.38355   0.00000  Uiso   1.00
C648   C     0.44689   0.92848   0.38284   0.00000  Uiso   1.00
H649   H     0.48034   0.93456   0.37577   0.00000  Uiso   1.00
H650   H     0.43907   0.94499   0.41532   0.00000  Uiso   1.00
C651   C     0.42254   0.95277   0.34652   0.00000  Uiso   1.00
H652   H     0.38899   0.94673   0.35154   0.00000  Uiso   1.00
H653   H     0.42889   0.99102   0.34716   0.00000  Uiso   1.00
H654   H     0.43172   0.93884   0.31344   0.00000  Uiso   1.00
O655   O     0.57345   0.80994   0.11463   0.00000  Uiso   1.00
C656   C     0.59312   0.85337   0.12336   0.00000  Uiso   1.00
H657   H     0.57630   0.87256   0.15003   0.00000  Uiso   1.00
H658   H     0.59486   0.87603   0.09310   0.00000  Uiso   1.00
C659   C     0.63694   0.84520   0.13935   0.00000  Uiso   1.00
H660   H     0.65807   0.83907   0.11084   0.00000  Uiso   1.00
H661   H     0.64820   0.87671   0.15723   0.00000  Uiso   1.00
H662   H     0.63793   0.81452   0.16192   0.00000  Uiso   1.00
O663   O     0.39387   0.88140   0.45654   0.00000  Uiso   1.00
C664   C     0.36885   0.91360   0.48011   0.00000  Uiso   1.00
H665   H     0.38760   0.94172   0.49598   0.00000  Uiso   1.00
H666   H     0.34998   0.89482   0.00559   0.00000  Uiso   1.00
C667   C     0.33924   0.93678   0.44801   0.00000  Uiso   1.00
H668   H     0.65428   0.90975   0.43028   0.00000  Uiso   1.00
H669   H     0.65118   0.96004   0.46668   0.00000  Uiso   1.00
H670   H     0.35669   0.95820   0.42339   0.00000  Uiso   1.00
O671   O     0.59929   0.77052   0.04146   0.00000  Uiso   1.00
C672   C     0.63804   0.78873   0.02773   0.00000  Uiso   1.00
H673   H     0.64058   0.82643   0.03664   0.00000  Uiso   1.00
H674   H     0.64344   0.78504   0.49135   0.00000  Uiso   1.00
C675   C     0.33878   0.76160   0.05071   0.00000  Uiso   1.00
H676   H     0.33929   0.72494   0.03834   0.00000  Uiso   1.00
H677   H     0.36912   0.77827   0.04345   0.00000  Uiso   1.00
H678   H     0.33353   0.76097   0.08726   0.00000  Uiso   1.00
H679   H     0.40464   0.87600   0.04641   0.00000  Uiso   1.00
H680   H     0.58647   0.77193   0.45467   0.00000  Uiso   1.00
H681   H     0.37036   0.75744   0.25149   0.00000  Uiso   1.00
H682   H     0.62954   0.90923   0.25458   0.00000  Uiso   1.00
H683   H     0.62899   0.75750   0.25237   0.00000  Uiso   1.00
H684   H     0.37095   0.90916   0.25389   0.00000  Uiso   1.00
H685   H     0.45371   0.70999   0.20087   0.00000  Uiso   1.00
H686   H     0.54608   0.95666   0.29936   0.00000  Uiso   1.00
H687   H     0.54611   0.71036   0.29933   0.00000  Uiso   1.00
H688   H     0.45372   0.95629   0.20087   0.00000  Uiso   1.00
C689   C     0.75402   0.83329   0.25058   0.00000  Uiso   1.00
C690   C     0.91262   0.83339   0.25104   0.00000  Uiso   1.00
C691   C     0.76423   0.86580   0.02621   0.00000  Uiso   1.00
C692   C     0.89698   0.79085   0.47402   0.00000  Uiso   1.00
C693   C     0.68778   0.79072   0.25226   0.00000  Uiso   1.00
C694   C     0.97880   0.87594   0.25409   0.00000  Uiso   1.00
C695   C     0.97849   0.79077   0.25287   0.00000  Uiso   1.00
C696   C     0.68810   0.87589   0.25357   0.00000  Uiso   1.00
C697   C     0.95719   0.83340   0.25301   0.00000  Uiso   1.00
C698   C     0.70939   0.83328   0.25210   0.00000  Uiso   1.00
C699   C     0.80763   0.69137   0.22272   0.00000  Uiso   1.00
C700   C     0.85892   0.97529   0.27740   0.00000  Uiso   1.00
C701   C     0.85893   0.69157   0.27740   0.00000  Uiso   1.00
C702   C     0.80764   0.97508   0.22272   0.00000  Uiso   1.00
C703   C     0.83426   0.83336   0.16445   0.00000  Uiso   1.00
C704   C     0.83225   0.83336   0.33556   0.00000  Uiso   1.00
C705   C     0.86247   0.81031   0.40610   0.00000  Uiso   1.00
C706   C     0.80011   0.84889   0.09417   0.00000  Uiso   1.00
C707   C     0.83114   0.83334   0.38382   0.00000  Uiso   1.00
C708   C     0.83507   0.83351   0.11621   0.00000  Uiso   1.00
C709   C     0.79938   0.85630   0.40730   0.00000  Uiso   1.00
C710   C     0.87033   0.81872   0.09239   0.00000  Uiso   1.00
C711   C     0.79750   0.85273   0.45435   0.00000  Uiso   1.00
C712   C     0.86850   0.81467   0.04557   0.00000  Uiso   1.00
C713   C     0.83151   0.83228   0.47669   0.00000  Uiso   1.00
C714   C     0.83312   0.83214   0.02338   0.00000  Uiso   1.00
C715   C     0.86382   0.81132   0.45225   0.00000  Uiso   1.00
C716   C     0.79923   0.84940   0.04791   0.00000  Uiso   1.00
C717   C     0.76285   0.86860   0.47930   0.00000  Uiso   1.00
C718   C     0.90087   0.79400   0.02036   0.00000  Uiso   1.00
Cu719  Cu    0.83333   0.88022   0.25000   0.00000  Uiso   1.00
Cu720  Cu    0.83333   0.78645   0.25000   0.00000  Uiso   1.00
H721   H     0.88684   0.79328   0.38718   0.00000  Uiso   1.00
H722   H     0.77361   0.86082   0.11333   0.00000  Uiso   1.00
N723   N     0.83333   0.95069   0.25000   0.00000  Uiso   1.00
N724   N     0.83333   0.71598   0.25000   0.00000  Uiso   1.00
O725   O     0.77321   0.87291   0.25000   0.00000  Uiso   1.00
O726   O     0.89345   0.79375   0.25001   0.00000  Uiso   1.00
O727   O     0.89345   0.87291   0.25001   0.00000  Uiso   1.00
O728   O     0.77321   0.79375   0.25000   0.00000  Uiso   1.00
O729   O     0.83332   0.87293   0.18513   0.00000  Uiso   1.00
O730   O     0.83334   0.79373   0.31487   0.00000  Uiso   1.00
O731   O     0.83334   0.87293   0.31487   0.00000  Uiso   1.00
O732   O     0.83332   0.79373   0.18513   0.00000  Uiso   1.00
O733   O     0.76976   0.88029   0.38355   0.00000  Uiso   1.00
C734   C     0.78023   0.92848   0.38284   0.00000  Uiso   1.00
H735   H     0.81367   0.93456   0.37577   0.00000  Uiso   1.00
H736   H     0.77240   0.94499   0.41532   0.00000  Uiso   1.00
C737   C     0.75588   0.95277   0.34652   0.00000  Uiso   1.00
H738   H     0.72232   0.94673   0.35154   0.00000  Uiso   1.00
H739   H     0.76222   0.99102   0.34716   0.00000  Uiso   1.00
H740   H     0.76505   0.93884   0.31344   0.00000  Uiso   1.00
O741   O     0.90678   0.80994   0.11463   0.00000  Uiso   1.00
C742   C     0.92646   0.85337   0.12336   0.00000  Uiso   1.00
H743   H     0.90963   0.87256   0.15003   0.00000  Uiso   1.00
H744   H     0.92819   0.87603   0.09310   0.00000  Uiso   1.00
C745   C     0.97027   0.84520   0.13935   0.00000  Uiso   1.00
H746   H     0.99140   0.83907   0.11084   0.00000  Uiso   1.00
H747   H     0.98153   0.87671   0.15723   0.00000  Uiso   1.00
H748   H     0.97126   0.81452   0.16192   0.00000  Uiso   1.00
O749   O     0.72721   0.88140   0.45654   0.00000  Uiso   1.00
C750   C     0.70218   0.91360   0.48011   0.00000  Uiso   1.00
H751   H     0.72093   0.94172   0.49598   0.00000  Uiso   1.00
H752   H     0.68331   0.89482   0.00559   0.00000  Uiso   1.00
C753   C     0.67258   0.93678   0.44801   0.00000  Uiso   1.00
H754   H     0.98761   0.90975   0.43028   0.00000  Uiso   1.00
H755   H     0.98451   0.96004   0.46668   0.00000  Uiso   1.00
H756   H     0.69003   0.95820   0.42339   0.00000  Uiso   1.00
O757   O     0.93263   0.77052   0.04146   0.00000  Uiso   1.00
C758   C     0.97137   0.78873   0.02773   0.00000  Uiso   1.00
H759   H     0.97391   0.82643   0.03664   0.00000  Uiso   1.00
H760   H     0.97677   0.78504   0.49135   0.00000  Uiso   1.00
C761   C     0.67211   0.76160   0.05071   0.00000  Uiso   1.00
H762   H     0.67263   0.72494   0.03834   0.00000  Uiso   1.00
H763   H     0.70245   0.77827   0.04345   0.00000  Uiso   1.00
H764   H     0.66686   0.76097   0.08726   0.00000  Uiso   1.00
H765   H     0.73797   0.87600   0.04641   0.00000  Uiso   1.00
H766   H     0.91980   0.77193   0.45467   0.00000  Uiso   1.00
H767   H     0.70369   0.75744   0.25149   0.00000  Uiso   1.00
H768   H     0.96288   0.90923   0.25458   0.00000  Uiso   1.00
H769   H     0.96232   0.75750   0.25237   0.00000  Uiso   1.00
H770   H     0.70428   0.90916   0.25389   0.00000  Uiso   1.00
H771   H     0.78704   0.70999   0.20087   0.00000  Uiso   1.00
H772   H     0.87941   0.95666   0.29936   0.00000  Uiso   1.00
H773   H     0.87944   0.71036   0.29933   0.00000  Uiso   1.00
H774   H     0.78705   0.95629   0.20087   0.00000  Uiso   1.00
C775   C     0.08735   0.16662   0.75058   0.00000  Uiso   1.00
C776   C     0.24595   0.16672   0.75104   0.00000  Uiso   1.00
C777   C     0.09756   0.19913   0.52621   0.00000  Uiso   1.00
C778   C     0.23031   0.12418   0.97402   0.00000  Uiso   1.00
C779   C     0.02111   0.12406   0.75226   0.00000  Uiso   1.00
C780   C     0.31214   0.20928   0.75409   0.00000  Uiso   1.00
C781   C     0.31182   0.12411   0.75287   0.00000  Uiso   1.00
C782   C     0.02144   0.20922   0.75357   0.00000  Uiso   1.00
C783   C     0.29053   0.16673   0.75301   0.00000  Uiso   1.00
C784   C     0.04272   0.16661   0.75210   0.00000  Uiso   1.00
C785   C     0.14096   0.02470   0.72272   0.00000  Uiso   1.00
C786   C     0.19226   0.30862   0.77740   0.00000  Uiso   1.00
C787   C     0.19226   0.02491   0.77740   0.00000  Uiso   1.00
C788   C     0.14097   0.30842   0.72272   0.00000  Uiso   1.00
C789   C     0.16759   0.16669   0.66445   0.00000  Uiso   1.00
C790   C     0.16558   0.16669   0.83556   0.00000  Uiso   1.00
C791   C     0.19580   0.14365   0.90610   0.00000  Uiso   1.00
C792   C     0.13344   0.18223   0.59417   0.00000  Uiso   1.00
C793   C     0.16447   0.16668   0.88382   0.00000  Uiso   1.00
C794   C     0.16840   0.16684   0.61621   0.00000  Uiso   1.00
C795   C     0.13271   0.18963   0.90730   0.00000  Uiso   1.00
C796   C     0.20366   0.15206   0.59239   0.00000  Uiso   1.00
C797   C     0.13084   0.18607   0.95435   0.00000  Uiso   1.00
C798   C     0.20183   0.14800   0.54557   0.00000  Uiso   1.00
C799   C     0.16484   0.16562   0.97669   0.00000  Uiso   1.00
C800   C     0.16645   0.16547   0.52338   0.00000  Uiso   1.00
C801   C     0.19715   0.14465   0.95225   0.00000  Uiso   1.00
C802   C     0.13256   0.18273   0.54791   0.00000  Uiso   1.00
C803   C     0.09618   0.20193   0.97930   0.00000  Uiso   1.00
C804   C     0.23420   0.12734   0.52036   0.00000  Uiso   1.00
Cu805  Cu    0.16667   0.21355   0.75000   0.00000  Uiso   1.00
Cu806  Cu    0.16667   0.11978   0.75000   0.00000  Uiso   1.00
H807   H     0.22018   0.12662   0.88718   0.00000  Uiso   1.00
H808   H     0.10694   0.19416   0.61333   0.00000  Uiso   1.00
N809   N     0.16667   0.28402   0.75000   0.00000  Uiso   1.00
N810   N     0.16667   0.04931   0.75000   0.00000  Uiso   1.00
O811   O     0.10655   0.20625   0.75000   0.00000  Uiso   1.00
O812   O     0.22679   0.12709   0.75001   0.00000  Uiso   1.00
O813   O     0.22679   0.20625   0.75001   0.00000  Uiso   1.00
O814   O     0.10655   0.12709   0.75000   0.00000  Uiso   1.00
O815   O     0.16666   0.20627   0.68513   0.00000  Uiso   1.00
O816   O     0.16668   0.12707   0.81487   0.00000  Uiso   1.00
O817   O     0.16668   0.20627   0.81487   0.00000  Uiso   1.00
O818   O     0.16666   0.12707   0.68513   0.00000  Uiso   1.00
O819   O     0.10309   0.21362   0.88355   0.00000  Uiso   1.00
C820   C     0.11356   0.26181   0.88284   0.00000  Uiso   1.00
H821   H     0.14701   0.26790   0.87577   0.00000  Uiso   1.00
H822   H     0.10573   0.27833   0.91532   0.00000  Uiso   1.00
C823   C     0.08921   0.28611   0.84652   0.00000  Uiso   1.00
H824   H     0.05566   0.28006   0.85154   0.00000  Uiso   1.00
H825   H     0.09556   0.32436   0.84716   0.00000  Uiso   1.00
H826   H     0.09838   0.27218   0.81344   0.00000  Uiso   1.00
O827   O     0.24012   0.14328   0.61463   0.00000  Uiso   1.00
C828   C     0.25979   0.18671   0.62336   0.00000  Uiso   1.00
H829   H     0.24296   0.20589   0.65003   0.00000  Uiso   1.00
H830   H     0.26152   0.20936   0.59310   0.00000  Uiso   1.00
C831   C     0.30361   0.17854   0.63935   0.00000  Uiso   1.00
H832   H     0.32473   0.17240   0.61084   0.00000  Uiso   1.00
H833   H     0.31487   0.21004   0.65723   0.00000  Uiso   1.00
H834   H     0.30460   0.14785   0.66192   0.00000  Uiso   1.00
O835   O     0.06054   0.21473   0.95654   0.00000  Uiso   1.00
C836   C     0.03551   0.24693   0.98011   0.00000  Uiso   1.00
H837   H     0.05426   0.27505   0.99598   0.00000  Uiso   1.00
H838   H     0.01665   0.22815   0.50559   0.00000  Uiso   1.00
C839   C     0.00591   0.27012   0.94801   0.00000  Uiso   1.00
H840   H     0.32095   0.24308   0.93028   0.00000  Uiso   1.00
H841   H     0.31785   0.29338   0.96668   0.00000  Uiso   1.00
H842   H     0.02336   0.29154   0.92339   0.00000  Uiso   1.00
O843   O     0.26596   0.10385   0.54146   0.00000  Uiso   1.00
C844   C     0.30471   0.12207   0.52773   0.00000  Uiso   1.00
H845   H     0.30725   0.15976   0.53664   0.00000  Uiso   1.00
H846   H     0.31011   0.11838   0.99135   0.00000  Uiso   1.00
C847   C     0.00544   0.09494   0.55071   0.00000  Uiso   1.00
H848   H     0.00596   0.05828   0.53834   0.00000  Uiso   1.00
H849   H     0.03579   0.11161   0.54345   0.00000  Uiso   1.00
H850   H     0.00020   0.09430   0.58726   0.00000  Uiso   1.00
H851   H     0.07131   0.20933   0.54641   0.00000  Uiso   1.00
H852   H     0.25314   0.10526   0.95467   0.00000  Uiso   1.00
H853   H     0.03703   0.09077   0.75149   0.00000  Uiso   1.00
H854   H     0.29621   0.24256   0.75458   0.00000  Uiso   1.00
H855   H     0.29565   0.09083   0.75237   0.00000  Uiso   1.00
H856   H     0.03761   0.24250   0.75389   0.00000  Uiso   1.00
H857   H     0.12037   0.04332   0.70087   0.00000  Uiso   1.00
H858   H     0.21274   0.28999   0.79936   0.00000  Uiso   1.00
H859   H     0.21278   0.04369   0.79933   0.00000  Uiso   1.00
H860   H     0.12039   0.28962   0.70087   0.00000  Uiso   1.00
C861   C     0.42068   0.16662   0.75058   0.00000  Uiso   1.00
C862   C     0.57929   0.16672   0.75104   0.00000  Uiso   1.00
C863   C     0.43089   0.19913   0.52621   0.00000  Uiso   1.00
C864   C     0.56365   0.12418   0.97402   0.00000  Uiso   1.00
C865   C     0.35444   0.12406   0.75226   0.00000  Uiso   1.00
C866   C     0.64547   0.20928   0.75409   0.00000  Uiso   1.00
C867   C     0.64516   0.12411   0.75287   0.00000  Uiso   1.00
C868   C     0.35477   0.20922   0.75357   0.00000  Uiso   1.00
C869   C     0.62386   0.16673   0.75301   0.00000  Uiso   1.00
C870   C     0.37606   0.16661   0.75210   0.00000  Uiso   1.00
C871   C     0.47430   0.02470   0.72272   0.00000  Uiso   1.00
C872   C     0.52559   0.30862   0.77740   0.00000  Uiso   1.00
C873   C     0.52560   0.02491   0.77740   0.00000  Uiso   1.00
C874   C     0.47430   0.30842   0.72272   0.00000  Uiso   1.00
C875   C     0.50093   0.16669   0.66445   0.00000  Uiso   1.00
C876   C     0.49891   0.16669   0.83556   0.00000  Uiso   1.00
C877   C     0.52913   0.14365   0.90610   0.00000  Uiso   1.00
C878   C     0.46678   0.18223   0.59417   0.00000  Uiso   1.00
C879   C     0.49780   0.16668   0.88382   0.00000  Uiso   1.00
C880   C     0.50173   0.16684   0.61621   0.00000  Uiso   1.00
C881   C     0.46604   0.18963   0.90730   0.00000  Uiso   1.00
C882   C     0.53700   0.15206   0.59239   0.00000  Uiso   1.00
C883   C     0.46417   0.18607   0.95435   0.00000  Uiso   1.00
C884   C     0.53516   0.14800   0.54557   0.00000  Uiso   1.00
C885   C     0.49818   0.16562   0.97669   0.00000  Uiso   1.00
C886   C     0.49978   0.16547   0.52338   0.00000  Uiso   1.00
C887   C     0.53048   0.14465   0.95225   0.00000  Uiso   1.00
C888   C     0.46590   0.18273   0.54791   0.00000  Uiso   1.00
C889   C     0.42952   0.20193   0.97930   0.00000  Uiso   1.00
C890   C     0.56754   0.12734   0.52036   0.00000  Uiso   1.00
Cu891  Cu    0.50000   0.21355   0.75000   0.00000  Uiso   1.00
Cu892  Cu    0.50000   0.11978   0.75000   0.00000  Uiso   1.00
H893   H     0.55351   0.12662   0.88718   0.00000  Uiso   1.00
H894   H     0.44027   0.19416   0.61333   0.00000  Uiso   1.00
N895   N     0.50000   0.28402   0.75000   0.00000  Uiso   1.00
N896   N     0.50000   0.04931   0.75000   0.00000  Uiso   1.00
O897   O     0.43988   0.20625   0.75000   0.00000  Uiso   1.00
O898   O     0.56012   0.12709   0.75001   0.00000  Uiso   1.00
O899   O     0.56012   0.20625   0.75001   0.00000  Uiso   1.00
O900   O     0.43988   0.12709   0.75000   0.00000  Uiso   1.00
O901   O     0.49999   0.20627   0.68513   0.00000  Uiso   1.00
O902   O     0.50001   0.12707   0.81487   0.00000  Uiso   1.00
O903   O     0.50001   0.20627   0.81487   0.00000  Uiso   1.00
O904   O     0.49999   0.12707   0.68513   0.00000  Uiso   1.00
O905   O     0.43642   0.21362   0.88355   0.00000  Uiso   1.00
C906   C     0.44689   0.26181   0.88284   0.00000  Uiso   1.00
H907   H     0.48034   0.26790   0.87577   0.00000  Uiso   1.00
H908   H     0.43907   0.27833   0.91532   0.00000  Uiso   1.00
C909   C     0.42254   0.28611   0.84652   0.00000  Uiso   1.00
H910   H     0.38899   0.28006   0.85154   0.00000  Uiso   1.00
H911   H     0.42889   0.32436   0.84716   0.00000  Uiso   1.00
H912   H     0.43172   0.27218   0.81344   0.00000  Uiso   1.00
O913   O     0.57345   0.14328   0.61463   0.00000  Uiso   1.00
C914   C     0.59312   0.18671   0.62336   0.00000  Uiso   1.00
H915   H     0.57630   0.20589   0.65003   0.00000  Uiso   1.00
H916   H     0.59486   0.20936   0.59310   0.00000  Uiso   1.00
C917   C     0.63694   0.17854   0.63935   0.00000  Uiso   1.00
H918   H     0.65807   0.17240   0.61084   0.00000  Uiso   1.00
H919   H     0.64820   0.21004   0.65723   0.00000  Uiso   1.00
H920   H     0.63793   0.14785   0.66192   0.00000  Uiso   1.00
O921   O     0.39387   0.21473   0.95654   0.00000  Uiso   1.00
C922   C     0.36885   0.24693   0.98011   0.00000  Uiso   1.00
H923   H     0.38760   0.27505   0.99598   0.00000  Uiso   1.00
H924   H     0.34998   0.22815   0.50559   0.00000  Uiso   1.00
C925   C     0.33924   0.27012   0.94801   0.00000  Uiso   1.00
H926   H     0.65428   0.24308   0.93028   0.00000  Uiso   1.00
H927   H     0.65118   0.29338   0.96668   0.00000  Uiso   1.00
H928   H     0.35669   0.29154   0.92339   0.00000  Uiso   1.00
O929   O     0.59929   0.10385   0.54146   0.00000  Uiso   1.00
C930   C     0.63804   0.12207   0.52773   0.00000  Uiso   1.00
H931   H     0.64058   0.15976   0.53664   0.00000  Uiso   1.00
H932   H     0.64344   0.11838   0.99135   0.00000  Uiso   1.00
C933   C     0.33878   0.09494   0.55071   0.00000  Uiso   1.00
H934   H     0.33929   0.05828   0.53834   0.00000  Uiso   1.00
H935   H     0.36912   0.11161   0.54345   0.00000  Uiso   1.00
H936   H     0.33353   0.09430   0.58726   0.00000  Uiso   1.00
H937   H     0.40464   0.20933   0.54641   0.00000  Uiso   1.00
H938   H     0.58647   0.10526   0.95467   0.00000  Uiso   1.00
H939   H     0.37036   0.09077   0.75149   0.00000  Uiso   1.00
H940   H     0.62954   0.24256   0.75458   0.00000  Uiso   1.00
H941   H     0.62899   0.09083   0.75237   0.00000  Uiso   1.00
H942   H     0.37095   0.24250   0.75389   0.00000  Uiso   1.00
H943   H     0.45371   0.04332   0.70087   0.00000  Uiso   1.00
H944   H     0.54608   0.28999   0.79936   0.00000  Uiso   1.00
H945   H     0.54611   0.04369   0.79933   0.00000  Uiso   1.00
H946   H     0.45372   0.28962   0.70087   0.00000  Uiso   1.00
C947   C     0.75402   0.16662   0.75058   0.00000  Uiso   1.00
C948   C     0.91262   0.16672   0.75104   0.00000  Uiso   1.00
C949   C     0.76423   0.19913   0.52621   0.00000  Uiso   1.00
C950   C     0.89698   0.12418   0.97402   0.00000  Uiso   1.00
C951   C     0.68778   0.12406   0.75226   0.00000  Uiso   1.00
C952   C     0.97880   0.20928   0.75409   0.00000  Uiso   1.00
C953   C     0.97849   0.12411   0.75287   0.00000  Uiso   1.00
C954   C     0.68810   0.20922   0.75357   0.00000  Uiso   1.00
C955   C     0.95719   0.16673   0.75301   0.00000  Uiso   1.00
C956   C     0.70939   0.16661   0.75210   0.00000  Uiso   1.00
C957   C     0.80763   0.02470   0.72272   0.00000  Uiso   1.00
C958   C     0.85892   0.30862   0.77740   0.00000  Uiso   1.00
C959   C     0.85893   0.02491   0.77740   0.00000  Uiso   1.00
C960   C     0.80764   0.30842   0.72272   0.00000  Uiso   1.00
C961   C     0.83426   0.16669   0.66445   0.00000  Uiso   1.00
C962   C     0.83225   0.16669   0.83556   0.00000  Uiso   1.00
C963   C     0.86247   0.14365   0.90610   0.00000  Uiso   1.00
C964   C     0.80011   0.18223   0.59417   0.00000  Uiso   1.00
C965   C     0.83114   0.16668   0.88382   0.00000  Uiso   1.00
C966   C     0.83507   0.16684   0.61621   0.00000  Uiso   1.00
C967   C     0.79938   0.18963   0.90730   0.00000  Uiso   1.00
C968   C     0.87033   0.15206   0.59239   0.00000  Uiso   1.00
C969   C     0.79750   0.18607   0.95435   0.00000  Uiso   1.00
C970   C     0.86850   0.14800   0.54557   0.00000  Uiso   1.00
C971   C     0.83151   0.16562   0.97669   0.00000  Uiso   1.00
C972   C     0.83312   0.16547   0.52338   0.00000  Uiso   1.00
C973   C     0.86382   0.14465   0.95225   0.00000  Uiso   1.00
C974   C     0.79923   0.18273   0.54791   0.00000  Uiso   1.00
C975   C     0.76285   0.20193   0.97930   0.00000  Uiso   1.00
C976   C     0.90087   0.12734   0.52036   0.00000  Uiso   1.00
Cu977  Cu    0.83333   0.21355   0.75000   0.00000  Uiso   1.00
Cu978  Cu    0.83333   0.11978   0.75000   0.00000  Uiso   1.00
H979   H     0.88684   0.12662   0.88718   0.00000  Uiso   1.00
H980   H     0.77361   0.19416   0.61333   0.00000  Uiso   1.00
N981   N     0.83333   0.28402   0.75000   0.00000  Uiso   1.00
N982   N     0.83333   0.04931   0.75000   0.00000  Uiso   1.00
O983   O     0.77321   0.20625   0.75000   0.00000  Uiso   1.00
O984   O     0.89345   0.12709   0.75001   0.00000  Uiso   1.00
O985   O     0.89345   0.20625   0.75001   0.00000  Uiso   1.00
O986   O     0.77321   0.12709   0.75000   0.00000  Uiso   1.00
O987   O     0.83332   0.20627   0.68513   0.00000  Uiso   1.00
O988   O     0.83334   0.12707   0.81487   0.00000  Uiso   1.00
O989   O     0.83334   0.20627   0.81487   0.00000  Uiso   1.00
O990   O     0.83332   0.12707   0.68513   0.00000  Uiso   1.00
O991   O     0.76976   0.21362   0.88355   0.00000  Uiso   1.00
C992   C     0.78023   0.26181   0.88284   0.00000  Uiso   1.00
H993   H     0.81367   0.26790   0.87577   0.00000  Uiso   1.00
H994   H     0.77240   0.27833   0.91532   0.00000  Uiso   1.00
C995   C     0.75588   0.28611   0.84652   0.00000  Uiso   1.00
H996   H     0.72232   0.28006   0.85154   0.00000  Uiso   1.00
H997   H     0.76222   0.32436   0.84716   0.00000  Uiso   1.00
H998   H     0.76505   0.27218   0.81344   0.00000  Uiso   1.00
O999   O     0.90678   0.14328   0.61463   0.00000  Uiso   1.00
C1000  C     0.92646   0.18671   0.62336   0.00000  Uiso   1.00
H1001  H     0.90963   0.20589   0.65003   0.00000  Uiso   1.00
H1002  H     0.92819   0.20936   0.59310   0.00000  Uiso   1.00
C1003  C     0.97027   0.17854   0.63935   0.00000  Uiso   1.00
H1004  H     0.99140   0.17240   0.61084   0.00000  Uiso   1.00
H1005  H     0.98153   0.21004   0.65723   0.00000  Uiso   1.00
H1006  H     0.97126   0.14785   0.66192   0.00000  Uiso   1.00
O1007  O     0.72721   0.21473   0.95654   0.00000  Uiso   1.00
C1008  C     0.70218   0.24693   0.98011   0.00000  Uiso   1.00
H1009  H     0.72093   0.27505   0.99598   0.00000  Uiso   1.00
H1010  H     0.68331   0.22815   0.50559   0.00000  Uiso   1.00
C1011  C     0.67258   0.27012   0.94801   0.00000  Uiso   1.00
H1012  H     0.98761   0.24308   0.93028   0.00000  Uiso   1.00
H1013  H     0.98451   0.29338   0.96668   0.00000  Uiso   1.00
H1014  H     0.69003   0.29154   0.92339   0.00000  Uiso   1.00
O1015  O     0.93263   0.10385   0.54146   0.00000  Uiso   1.00
C1016  C     0.97137   0.12207   0.52773   0.00000  Uiso   1.00
H1017  H     0.97391   0.15976   0.53664   0.00000  Uiso   1.00
H1018  H     0.97677   0.11838   0.99135   0.00000  Uiso   1.00
C1019  C     0.67211   0.09494   0.55071   0.00000  Uiso   1.00
H1020  H     0.67263   0.05828   0.53834   0.00000  Uiso   1.00
H1021  H     0.70245   0.11161   0.54345   0.00000  Uiso   1.00
H1022  H     0.66686   0.09430   0.58726   0.00000  Uiso   1.00
H1023  H     0.73797   0.20933   0.54641   0.00000  Uiso   1.00
H1024  H     0.91980   0.10526   0.95467   0.00000  Uiso   1.00
H1025  H     0.70369   0.09077   0.75149   0.00000  Uiso   1.00
H1026  H     0.96288   0.24256   0.75458   0.00000  Uiso   1.00
H1027  H     0.96232   0.09083   0.75237   0.00000  Uiso   1.00
H1028  H     0.70428   0.24250   0.75389   0.00000  Uiso   1.00
H1029  H     0.78704   0.04332   0.70087   0.00000  Uiso   1.00
H1030  H     0.87941   0.28999   0.79936   0.00000  Uiso   1.00
H1031  H     0.87944   0.04369   0.79933   0.00000  Uiso   1.00
H1032  H     0.78705   0.28962   0.70087   0.00000  Uiso   1.00
C1033  C     0.08735   0.49995   0.75058   0.00000  Uiso   1.00
C1034  C     0.24595   0.50006   0.75104   0.00000  Uiso   1.00
C1035  C     0.09756   0.53247   0.52621   0.00000  Uiso   1.00
C1036  C     0.23031   0.45751   0.97402   0.00000  Uiso   1.00
C1037  C     0.02111   0.45739   0.75226   0.00000  Uiso   1.00
C1038  C     0.31214   0.54261   0.75409   0.00000  Uiso   1.00
C1039  C     0.31182   0.45744   0.75287   0.00000  Uiso   1.00
C1040  C     0.02144   0.54256   0.75357   0.00000  Uiso   1.00
C1041  C     0.29053   0.50007   0.75301   0.00000  Uiso   1.00
C1042  C     0.04272   0.49995   0.75210   0.00000  Uiso   1.00
C1043  C     0.14096   0.35804   0.72272   0.00000  Uiso   1.00
C1044  C     0.19226   0.64195   0.77740   0.00000  Uiso   1.00
C1045  C     0.19226   0.35824   0.77740   0.00000  Uiso   1.00
C1046  C     0.14097   0.64175   0.72272   0.00000  Uiso   1.00
C1047  C     0.16759   0.50002   0.66445   0.00000  Uiso   1.00
C1048  C     0.16558   0.50003   0.83556   0.00000  Uiso   1.00
C1049  C     0.19580   0.47698   0.90610   0.00000  Uiso   1.00
C1050  C     0.13344   0.51556   0.59417   0.00000  Uiso   1.00
C1051  C     0.16447   0.50001   0.88382   0.00000  Uiso   1.00
C1052  C     0.16840   0.50017   0.61621   0.00000  Uiso   1.00
C1053  C     0.13271   0.52296   0.90730   0.00000  Uiso   1.00
C1054  C     0.20366   0.48539   0.59239   0.00000  Uiso   1.00
C1055  C     0.13084   0.51940   0.95435   0.00000  Uiso   1.00
C1056  C     0.20183   0.48133   0.54557   0.00000  Uiso   1.00
C1057  C     0.16484   0.49895   0.97669   0.00000  Uiso   1.00
C1058  C     0.16645   0.49881   0.52338   0.00000  Uiso   1.00
C1059  C     0.19715   0.47798   0.95225   0.00000  Uiso   1.00
C1060  C     0.13256   0.51606   0.54791   0.00000  Uiso   1.00
C1061  C     0.09618   0.53526   0.97930   0.00000  Uiso   1.00
C1062  C     0.23420   0.46067   0.52036   0.00000  Uiso   1.00
Cu1063 Cu    0.16667   0.54689   0.75000   0.00000  Uiso   1.00
Cu1064 Cu    0.16667   0.45311   0.75000   0.00000  Uiso   1.00
H1065  H     0.22018   0.45995   0.88718   0.00000  Uiso   1.00
H1066  H     0.10694   0.52749   0.61333   0.00000  Uiso   1.00
N1067  N     0.16667   0.61736   0.75000   0.00000  Uiso   1.00
N1068  N     0.16667   0.38264   0.75000   0.00000  Uiso   1.00
O1069  O     0.10655   0.53958   0.75000   0.00000  Uiso   1.00
O1070  O     0.22679   0.46042   0.75001   0.00000  Uiso   1.00
O1071  O     0.22679   0.53958   0.75001   0.00000  Uiso   1.00
O1072  O     0.10655   0.46042   0.75000   0.00000  Uiso   1.00
O1073  O     0.16666   0.53960   0.68513   0.00000  Uiso   1.00
O1074  O     0.16668   0.46040   0.81487   0.00000  Uiso   1.00
O1075  O     0.16668   0.53960   0.81487   0.00000  Uiso   1.00
O1076  O     0.16666   0.46040   0.68513   0.00000  Uiso   1.00
O1077  O     0.10309   0.54695   0.88355   0.00000  Uiso   1.00
C1078  C     0.11356   0.59515   0.88284   0.00000  Uiso   1.00
H1079  H     0.14701   0.60123   0.87577   0.00000  Uiso   1.00
H1080  H     0.10573   0.61166   0.91532   0.00000  Uiso   1.00
C1081  C     0.08921   0.61944   0.84652   0.00000  Uiso   1.00
H1082  H     0.05566   0.61339   0.85154   0.00000  Uiso   1.00
H1083  H     0.09556   0.65769   0.84716   0.00000  Uiso   1.00
H1084  H     0.09838   0.60551   0.81344   0.00000  Uiso   1.00
O1085  O     0.24012   0.47661   0.61463   0.00000  Uiso   1.00
C1086  C     0.25979   0.52004   0.62336   0.00000  Uiso   1.00
H1087  H     0.24296   0.53922   0.65003   0.00000  Uiso   1.00
H1088  H     0.26152   0.54269   0.59310   0.00000  Uiso   1.00
C1089  C     0.30361   0.51187   0.63935   0.00000  Uiso   1.00
H1090  H     0.32473   0.50573   0.61084   0.00000  Uiso   1.00
H1091  H     0.31487   0.54338   0.65723   0.00000  Uiso   1.00
H1092  H     0.30460   0.48118   0.66192   0.00000  Uiso   1.00
O1093  O     0.06054   0.54806   0.95654   0.00000  Uiso   1.00
C1094  C     0.03551   0.58027   0.98011   0.00000  Uiso   1.00
H1095  H     0.05426   0.60838   0.99598   0.00000  Uiso   1.00
H1096  H     0.01665   0.56149   0.50559   0.00000  Uiso   1.00
C1097  C     0.00591   0.60345   0.94801   0.00000  Uiso   1.00
H1098  H     0.32095   0.57642   0.93028   0.00000  Uiso   1.00
H1099  H     0.31785   0.62671   0.96668   0.00000  Uiso   1.00
H1100  H     0.02336   0.62487   0.92339   0.00000  Uiso   1.00
O1101  O     0.26596   0.43718   0.54146   0.00000  Uiso   1.00
C1102  C     0.30471   0.45540   0.52773   0.00000  Uiso   1.00
H1103  H     0.30725   0.49310   0.53664   0.00000  Uiso   1.00
H1104  H     0.31011   0.45171   0.99135   0.00000  Uiso   1.00
C1105  C     0.00544   0.42827   0.55071   0.00000  Uiso   1.00
H1106  H     0.00596   0.39161   0.53834   0.00000  Uiso   1.00
H1107  H     0.03579   0.44494   0.54345   0.00000  Uiso   1.00
H1108  H     0.00020   0.42763   0.58726   0.00000  Uiso   1.00
H1109  H     0.07131   0.54266   0.54641   0.00000  Uiso   1.00
H1110  H     0.25314   0.43859   0.95467   0.00000  Uiso   1.00
H1111  H     0.03703   0.42410   0.75149   0.00000  Uiso   1.00
H1112  H     0.29621   0.57589   0.75458   0.00000  Uiso   1.00
H1113  H     0.29565   0.42416   0.75237   0.00000  Uiso   1.00
H1114  H     0.03761   0.57583   0.75389   0.00000  Uiso   1.00
H1115  H     0.12037   0.37666   0.70087   0.00000  Uiso   1.00
H1116  H     0.21274   0.62332   0.79936   0.00000  Uiso   1.00
H1117  H     0.21278   0.37703   0.79933   0.00000  Uiso   1.00
H1118  H     0.12039   0.62296   0.70087   0.00000  Uiso   1.00
C1119  C     0.42068   0.49995   0.75058   0.00000  Uiso   1.00
C1120  C     0.57929   0.50006   0.75104   0.00000  Uiso   1.00
C1121  C     0.43089   0.53247   0.52621   0.00000  Uiso   1.00
C1122  C     0.56365   0.45751   0.97402   0.00000  Uiso   1.00
C1123  C     0.35444   0.45739   0.75226   0.00000  Uiso   1.00
C1124  C     0.64547   0.54261   0.75409   0.00000  Uiso   1.00
C1125  C     0.64516   0.45744   0.75287   0.00000  Uiso   1.00
C1126  C     0.35477   0.54256   0.75357   0.00000  Uiso   1.00
C1127  C     0.62386   0.50007   0.75301   0.00000  Uiso   1.00
C1128  C     0.37606   0.49995   0.75210   0.00000  Uiso   1.00
C1129  C     0.47430   0.35804   0.72272   0.00000  Uiso   1.00
C1130  C     0.52559   0.64195   0.77740   0.00000  Uiso   1.00
C1131  C     0.52560   0.35824   0.77740   0.00000  Uiso   1.00
C1132  C     0.47430   0.64175   0.72272   0.00000  Uiso   1.00
C1133  C     0.50093   0.50002   0.66445   0.00000  Uiso   1.00
C1134  C     0.49891   0.50003   0.83556   0.00000  Uiso   1.00
C1135  C     0.52913   0.47698   0.90610   0.00000  Uiso   1.00
C1136  C     0.46678   0.51556   0.59417   0.00000  Uiso   1.00
C1137  C     0.49780   0.50001   0.88382   0.00000  Uiso   1.00
C1138  C     0.50173   0.50017   0.61621   0.00000  Uiso   1.00
C1139  C     0.46604   0.52296   0.90730   0.00000  Uiso   1.00
C1140  C     0.53700   0.48539   0.59239   0.00000  Uiso   1.00
C1141  C     0.46417   0.51940   0.95435   0.00000  Uiso   1.00
C1142  C     0.53516   0.48133   0.54557   0.00000  Uiso   1.00
C1143  C     0.49818   0.49895   0.97669   0.00000  Uiso   1.00
C1144  C     0.49978   0.49881   0.52338   0.00000  Uiso   1.00
C1145  C     0.53048   0.47798   0.95225   0.00000  Uiso   1.00
C1146  C     0.46590   0.51606   0.54791   0.00000  Uiso   1.00
C1147  C     0.42952   0.53526   0.97930   0.00000  Uiso   1.00
C1148  C     0.56754   0.46067   0.52036   0.00000  Uiso   1.00
Cu1149 Cu    0.50000   0.54689   0.75000   0.00000  Uiso   1.00
Cu1150 Cu    0.50000   0.45311   0.75000   0.00000  Uiso   1.00
H1151  H     0.55351   0.45995   0.88718   0.00000  Uiso   1.00
H1152  H     0.44027   0.52749   0.61333   0.00000  Uiso   1.00
N1153  N     0.50000   0.61736   0.75000   0.00000  Uiso   1.00
N1154  N     0.50000   0.38264   0.75000   0.00000  Uiso   1.00
O1155  O     0.43988   0.53958   0.75000   0.00000  Uiso   1.00
O1156  O     0.56012   0.46042   0.75001   0.00000  Uiso   1.00
O1157  O     0.56012   0.53958   0.75001   0.00000  Uiso   1.00
O1158  O     0.43988   0.46042   0.75000   0.00000  Uiso   1.00
O1159  O     0.49999   0.53960   0.68513   0.00000  Uiso   1.00
O1160  O     0.50001   0.46040   0.81487   0.00000  Uiso   1.00
O1161  O     0.50001   0.53960   0.81487   0.00000  Uiso   1.00
O1162  O     0.49999   0.46040   0.68513   0.00000  Uiso   1.00
O1163  O     0.43642   0.54695   0.88355   0.00000  Uiso   1.00
C1164  C     0.44689   0.59515   0.88284   0.00000  Uiso   1.00
H1165  H     0.48034   0.60123   0.87577   0.00000  Uiso   1.00
H1166  H     0.43907   0.61166   0.91532   0.00000  Uiso   1.00
C1167  C     0.42254   0.61944   0.84652   0.00000  Uiso   1.00
H1168  H     0.38899   0.61339   0.85154   0.00000  Uiso   1.00
H1169  H     0.42889   0.65769   0.84716   0.00000  Uiso   1.00
H1170  H     0.43172   0.60551   0.81344   0.00000  Uiso   1.00
O1171  O     0.57345   0.47661   0.61463   0.00000  Uiso   1.00
C1172  C     0.59312   0.52004   0.62336   0.00000  Uiso   1.00
H1173  H     0.57630   0.53922   0.65003   0.00000  Uiso   1.00
H1174  H     0.59486   0.54269   0.59310   0.00000  Uiso   1.00
C1175  C     0.63694   0.51187   0.63935   0.00000  Uiso   1.00
H1176  H     0.65807   0.50573   0.61084   0.00000  Uiso   1.00
H1177  H     0.64820   0.54338   0.65723   0.00000  Uiso   1.00
H1178  H     0.63793   0.48118   0.66192   0.00000  Uiso   1.00
O1179  O     0.39387   0.54806   0.95654   0.00000  Uiso   1.00
C1180  C     0.36885   0.58027   0.98011   0.00000  Uiso   1.00
H1181  H     0.38760   0.60838   0.99598   0.00000  Uiso   1.00
H1182  H     0.34998   0.56149   0.50559   0.00000  Uiso   1.00
C1183  C     0.33924   0.60345   0.94801   0.00000  Uiso   1.00
H1184  H     0.65428   0.57642   0.93028   0.00000  Uiso   1.00
H1185  H     0.65118   0.62671   0.96668   0.00000  Uiso   1.00
H1186  H     0.35669   0.62487   0.92339   0.00000  Uiso   1.00
O1187  O     0.59929   0.43718   0.54146   0.00000  Uiso   1.00
C1188  C     0.63804   0.45540   0.52773   0.00000  Uiso   1.00
H1189  H     0.64058   0.49310   0.53664   0.00000  Uiso   1.00
H1190  H     0.64344   0.45171   0.99135   0.00000  Uiso   1.00
C1191  C     0.33878   0.42827   0.55071   0.00000  Uiso   1.00
H1192  H     0.33929   0.39161   0.53834   0.00000  Uiso   1.00
H1193  H     0.36912   0.44494   0.54345   0.00000  Uiso   1.00
H1194  H     0.33353   0.42763   0.58726   0.00000  Uiso   1.00
H1195  H     0.40464   0.54266   0.54641   0.00000  Uiso   1.00
H1196  H     0.58647   0.43859   0.95467   0.00000  Uiso   1.00
H1197  H     0.37036   0.42410   0.75149   0.00000  Uiso   1.00
H1198  H     0.62954   0.57589   0.75458   0.00000  Uiso   1.00
H1199  H     0.62899   0.42416   0.75237   0.00000  Uiso   1.00
H1200  H     0.37095   0.57583   0.75389   0.00000  Uiso   1.00
H1201  H     0.45371   0.37666   0.70087   0.00000  Uiso   1.00
H1202  H     0.54608   0.62332   0.79936   0.00000  Uiso   1.00
H1203  H     0.54611   0.37703   0.79933   0.00000  Uiso   1.00
H1204  H     0.45372   0.62296   0.70087   0.00000  Uiso   1.00
C1205  C     0.75402   0.49995   0.75058   0.00000  Uiso   1.00
C1206  C     0.91262   0.50006   0.75104   0.00000  Uiso   1.00
C1207  C     0.76423   0.53247   0.52621   0.00000  Uiso   1.00
C1208  C     0.89698   0.45751   0.97402   0.00000  Uiso   1.00
C1209  C     0.68778   0.45739   0.75226   0.00000  Uiso   1.00
C1210  C     0.97880   0.54261   0.75409   0.00000  Uiso   1.00
C1211  C     0.97849   0.45744   0.75287   0.00000  Uiso   1.00
C1212  C     0.68810   0.54256   0.75357   0.00000  Uiso   1.00
C1213  C     0.95719   0.50007   0.75301   0.00000  Uiso   1.00
C1214  C     0.70939   0.49995   0.75210   0.00000  Uiso   1.00
C1215  C     0.80763   0.35804   0.72272   0.00000  Uiso   1.00
C1216  C     0.85892   0.64195   0.77740   0.00000  Uiso   1.00
C1217  C     0.85893   0.35824   0.77740   0.00000  Uiso   1.00
C1218  C     0.80764   0.64175   0.72272   0.00000  Uiso   1.00
C1219  C     0.83426   0.50002   0.66445   0.00000  Uiso   1.00
C1220  C     0.83225   0.50003   0.83556   0.00000  Uiso   1.00
C1221  C     0.86247   0.47698   0.90610   0.00000  Uiso   1.00
C1222  C     0.80011   0.51556   0.59417   0.00000  Uiso   1.00
C1223  C     0.83114   0.50001   0.88382   0.00000  Uiso   1.00
C1224  C     0.83507   0.50017   0.61621   0.00000  Uiso   1.00
C1225  C     0.79938   0.52296   0.90730   0.00000  Uiso   1.00
C1226  C     0.87033   0.48539   0.59239   0.00000  Uiso   1.00
C1227  C     0.79750   0.51940   0.95435   0.00000  Uiso   1.00
C1228  C     0.86850   0.48133   0.54557   0.00000  Uiso   1.00
C1229  C     0.83151   0.49895   0.97669   0.00000  Uiso   1.00
C1230  C     0.83312   0.49881   0.52338   0.00000  Uiso   1.00
C1231  C     0.86382   0.47798   0.95225   0.00000  Uiso   1.00
C1232  C     0.79923   0.51606   0.54791   0.00000  Uiso   1.00
C1233  C     0.76285   0.53526   0.97930   0.00000  Uiso   1.00
C1234  C     0.90087   0.46067   0.52036   0.00000  Uiso   1.00
Cu1235 Cu    0.83333   0.54689   0.75000   0.00000  Uiso   1.00
Cu1236 Cu    0.83333   0.45311   0.75000   0.00000  Uiso   1.00
H1237  H     0.88684   0.45995   0.88718   0.00000  Uiso   1.00
H1238  H     0.77361   0.52749   0.61333   0.00000  Uiso   1.00
N1239  N     0.83333   0.61736   0.75000   0.00000  Uiso   1.00
N1240  N     0.83333   0.38264   0.75000   0.00000  Uiso   1.00
O1241  O     0.77321   0.53958   0.75000   0.00000  Uiso   1.00
O1242  O     0.89345   0.46042   0.75001   0.00000  Uiso   1.00
O1243  O     0.89345   0.53958   0.75001   0.00000  Uiso   1.00
O1244  O     0.77321   0.46042   0.75000   0.00000  Uiso   1.00
O1245  O     0.83332   0.53960   0.68513   0.00000  Uiso   1.00
O1246  O     0.83334   0.46040   0.81487   0.00000  Uiso   1.00
O1247  O     0.83334   0.53960   0.81487   0.00000  Uiso   1.00
O1248  O     0.83332   0.46040   0.68513   0.00000  Uiso   1.00
O1249  O     0.76976   0.54695   0.88355   0.00000  Uiso   1.00
C1250  C     0.78023   0.59515   0.88284   0.00000  Uiso   1.00
H1251  H     0.81367   0.60123   0.87577   0.00000  Uiso   1.00
H1252  H     0.77240   0.61166   0.91532   0.00000  Uiso   1.00
C1253  C     0.75588   0.61944   0.84652   0.00000  Uiso   1.00
H1254  H     0.72232   0.61339   0.85154   0.00000  Uiso   1.00
H1255  H     0.76222   0.65769   0.84716   0.00000  Uiso   1.00
H1256  H     0.76505   0.60551   0.81344   0.00000  Uiso   1.00
O1257  O     0.90678   0.47661   0.61463   0.00000  Uiso   1.00
C1258  C     0.92646   0.52004   0.62336   0.00000  Uiso   1.00
H1259  H     0.90963   0.53922   0.65003   0.00000  Uiso   1.00
H1260  H     0.92819   0.54269   0.59310   0.00000  Uiso   1.00
C1261  C     0.97027   0.51187   0.63935   0.00000  Uiso   1.00
H1262  H     0.99140   0.50573   0.61084   0.00000  Uiso   1.00
H1263  H     0.98153   0.54338   0.65723   0.00000  Uiso   1.00
H1264  H     0.97126   0.48118   0.66192   0.00000  Uiso   1.00
O1265  O     0.72721   0.54806   0.95654   0.00000  Uiso   1.00
C1266  C     0.70218   0.58027   0.98011   0.00000  Uiso   1.00
H1267  H     0.72093   0.60838   0.99598   0.00000  Uiso   1.00
H1268  H     0.68331   0.56149   0.50559   0.00000  Uiso   1.00
C1269  C     0.67258   0.60345   0.94801   0.00000  Uiso   1.00
H1270  H     0.98761   0.57642   0.93028   0.00000  Uiso   1.00
H1271  H     0.98451   0.62671   0.96668   0.00000  Uiso   1.00
H1272  H     0.69003   0.62487   0.92339   0.00000  Uiso   1.00
O1273  O     0.93263   0.43718   0.54146   0.00000  Uiso   1.00
C1274  C     0.97137   0.45540   0.52773   0.00000  Uiso   1.00
H1275  H     0.97391   0.49310   0.53664   0.00000  Uiso   1.00
H1276  H     0.97677   0.45171   0.99135   0.00000  Uiso   1.00
C1277  C     0.67211   0.42827   0.55071   0.00000  Uiso   1.00
H1278  H     0.67263   0.39161   0.53834   0.00000  Uiso   1.00
H1279  H     0.70245   0.44494   0.54345   0.00000  Uiso   1.00
H1280  H     0.66686   0.42763   0.58726   0.00000  Uiso   1.00
H1281  H     0.73797   0.54266   0.54641   0.00000  Uiso   1.00
H1282  H     0.91980   0.43859   0.95467   0.00000  Uiso   1.00
H1283  H     0.70369   0.42410   0.75149   0.00000  Uiso   1.00
H1284  H     0.96288   0.57589   0.75458   0.00000  Uiso   1.00
H1285  H     0.96232   0.42416   0.75237   0.00000  Uiso   1.00
H1286  H     0.70428   0.57583   0.75389   0.00000  Uiso   1.00
H1287  H     0.78704   0.37666   0.70087   0.00000  Uiso   1.00
H1288  H     0.87941   0.62332   0.79936   0.00000  Uiso   1.00
H1289  H     0.87944   0.37703   0.79933   0.00000  Uiso   1.00
H1290  H     0.78705   0.62296   0.70087   0.00000  Uiso   1.00
C1291  C     0.08735   0.83329   0.75058   0.00000  Uiso   1.00
C1292  C     0.24595   0.83339   0.75104   0.00000  Uiso   1.00
C1293  C     0.09756   0.86580   0.52621   0.00000  Uiso   1.00
C1294  C     0.23031   0.79085   0.97402   0.00000  Uiso   1.00
C1295  C     0.02111   0.79072   0.75226   0.00000  Uiso   1.00
C1296  C     0.31214   0.87594   0.75409   0.00000  Uiso   1.00
C1297  C     0.31182   0.79077   0.75287   0.00000  Uiso   1.00
C1298  C     0.02144   0.87589   0.75357   0.00000  Uiso   1.00
C1299  C     0.29053   0.83340   0.75301   0.00000  Uiso   1.00
C1300  C     0.04272   0.83328   0.75210   0.00000  Uiso   1.00
C1301  C     0.14096   0.69137   0.72272   0.00000  Uiso   1.00
C1302  C     0.19226   0.97529   0.77740   0.00000  Uiso   1.00
C1303  C     0.19226   0.69157   0.77740   0.00000  Uiso   1.00
C1304  C     0.14097   0.97508   0.72272   0.00000  Uiso   1.00
C1305  C     0.16759   0.83336   0.66445   0.00000  Uiso   1.00
C1306  C     0.16558   0.83336   0.83556   0.00000  Uiso   1.00
C1307  C     0.19580   0.81031   0.90610   0.00000  Uiso   1.00
C1308  C     0.13344   0.84889   0.59417   0.00000  Uiso   1.00
C1309  C     0.16447   0.83334   0.88382   0.00000  Uiso   1.00
C1310  C     0.16840   0.83351   0.61621   0.00000  Uiso   1.00
C1311  C     0.13271   0.85630   0.90730   0.00000  Uiso   1.00
C1312  C     0.20366   0.81872   0.59239   0.00000  Uiso   1.00
C1313  C     0.13084   0.85273   0.95435   0.00000  Uiso   1.00
C1314  C     0.20183   0.81467   0.54557   0.00000  Uiso   1.00
C1315  C     0.16484   0.83228   0.97669   0.00000  Uiso   1.00
C1316  C     0.16645   0.83214   0.52338   0.00000  Uiso   1.00
C1317  C     0.19715   0.81132   0.95225   0.00000  Uiso   1.00
C1318  C     0.13256   0.84940   0.54791   0.00000  Uiso   1.00
C1319  C     0.09618   0.86860   0.97930   0.00000  Uiso   1.00
C1320  C     0.23420   0.79400   0.52036   0.00000  Uiso   1.00
Cu1321 Cu    0.16667   0.88022   0.75000   0.00000  Uiso   1.00
Cu1322 Cu    0.16667   0.78645   0.75000   0.00000  Uiso   1.00
H1323  H     0.22018   0.79328   0.88718   0.00000  Uiso   1.00
H1324  H     0.10694   0.86082   0.61333   0.00000  Uiso   1.00
N1325  N     0.16667   0.95069   0.75000   0.00000  Uiso   1.00
N1326  N     0.16667   0.71598   0.75000   0.00000  Uiso   1.00
O1327  O     0.10655   0.87291   0.75000   0.00000  Uiso   1.00
O1328  O     0.22679   0.79375   0.75001   0.00000  Uiso   1.00
O1329  O     0.22679   0.87291   0.75001   0.00000  Uiso   1.00
O1330  O     0.10655   0.79375   0.75000   0.00000  Uiso   1.00
O1331  O     0.16666   0.87293   0.68513   0.00000  Uiso   1.00
O1332  O     0.16668   0.79373   0.81487   0.00000  Uiso   1.00
O1333  O     0.16668   0.87293   0.81487   0.00000  Uiso   1.00
O1334  O     0.16666   0.79373   0.68513   0.00000  Uiso   1.00
O1335  O     0.10309   0.88029   0.88355   0.00000  Uiso   1.00
C1336  C     0.11356   0.92848   0.88284   0.00000  Uiso   1.00
H1337  H     0.14701   0.93456   0.87577   0.00000  Uiso   1.00
H1338  H     0.10573   0.94499   0.91532   0.00000  Uiso   1.00
C1339  C     0.08921   0.95277   0.84652   0.00000  Uiso   1.00
H1340  H     0.05566   0.94673   0.85154   0.00000  Uiso   1.00
H1341  H     0.09556   0.99102   0.84716   0.00000  Uiso   1.00
H1342  H     0.09838   0.93884   0.81344   0.00000  Uiso   1.00
O1343  O     0.24012   0.80994   0.61463   0.00000  Uiso   1.00
C1344  C     0.25979   0.85337   0.62336   0.00000  Uiso   1.00
H1345  H     0.24296   0.87256   0.65003   0.00000  Uiso   1.00
H1346  H     0.26152   0.87603   0.59310   0.00000  Uiso   1.00
C1347  C     0.30361   0.84520   0.63935   0.00000  Uiso   1.00
H1348  H     0.32473   0.83907   0.61084   0.00000  Uiso   1.00
H1349  H     0.31487   0.87671   0.65723   0.00000  Uiso   1.00
H1350  H     0.30460   0.81452   0.66192   0.00000  Uiso   1.00
O1351  O     0.06054   0.88140   0.95654   0.00000  Uiso   1.00
C1352  C     0.03551   0.91360   0.98011   0.00000  Uiso   1.00
H1353  H     0.05426   0.94172   0.99598   0.00000  Uiso   1.00
H1354  H     0.01665   0.89482   0.50559   0.00000  Uiso   1.00
C1355  C     0.00591   0.93678   0.94801   0.00000  Uiso   1.00
H1356  H     0.32095   0.90975   0.93028   0.00000  Uiso   1.00
H1357  H     0.31785   0.96004   0.96668   0.00000  Uiso   1.00
H1358  H     0.02336   0.95820   0.92339   0.00000  Uiso   1.00
O1359  O     0.26596   0.77052   0.54146   0.00000  Uiso   1.00
C1360  C     0.30471   0.78873   0.52773   0.00000  Uiso   1.00
H1361  H     0.30725   0.82643   0.53664   0.00000  Uiso   1.00
H1362  H     0.31011   0.78504   0.99135   0.00000  Uiso   1.00
C1363  C     0.00544   0.76160   0.55071   0.00000  Uiso   1.00
H1364  H     0.00596   0.72494   0.53834   0.00000  Uiso   1.00
H1365  H     0.03579   0.77827   0.54345   0.00000  Uiso   1.00
H1366  H     0.00020   0.76097   0.58726   0.00000  Uiso   1.00
H1367  H     0.07131   0.87600   0.54641   0.00000  Uiso   1.00
H1368  H     0.25314   0.77193   0.95467   0.00000  Uiso   1.00
H1369  H     0.03703   0.75744   0.75149   0.00000  Uiso   1.00
H1370  H     0.29621   0.90923   0.75458   0.00000  Uiso   1.00
H1371  H     0.29565   0.75750   0.75237   0.00000  Uiso   1.00
H1372  H     0.03761   0.90916   0.75389   0.00000  Uiso   1.00
H1373  H     0.12037   0.70999   0.70087   0.00000  Uiso   1.00
H1374  H     0.21274   0.95666   0.79936   0.00000  Uiso   1.00
H1375  H     0.21278   0.71036   0.79933   0.00000  Uiso   1.00
H1376  H     0.12039   0.95629   0.70087   0.00000  Uiso   1.00
C1377  C     0.42068   0.83329   0.75058   0.00000  Uiso   1.00
C1378  C     0.57929   0.83339   0.75104   0.00000  Uiso   1.00
C1379  C     0.43089   0.86580   0.52621   0.00000  Uiso   1.00
C1380  C     0.56365   0.79085   0.97402   0.00000  Uiso   1.00
C1381  C     0.35444   0.79072   0.75226   0.00000  Uiso   1.00
C1382  C     0.64547   0.87594   0.75409   0.00000  Uiso   1.00
C1383  C     0.64516   0.79077   0.75287   0.00000  Uiso   1.00
C1384  C     0.35477   0.87589   0.75357   0.00000  Uiso   1.00
C1385  C     0.62386   0.83340   0.75301   0.00000  Uiso   1.00
C1386  C     0.37606   0.83328   0.75210   0.00000  Uiso   1.00
C1387  C     0.47430   0.69137   0.72272   0.00000  Uiso   1.00
C1388  C     0.52559   0.97529   0.77740   0.00000  Uiso   1.00
C1389  C     0.52560   0.69157   0.77740   0.00000  Uiso   1.00
C1390  C     0.47430   0.97508   0.72272   0.00000  Uiso   1.00
C1391  C     0.50093   0.83336   0.66445   0.00000  Uiso   1.00
C1392  C     0.49891   0.83336   0.83556   0.00000  Uiso   1.00
C1393  C     0.52913   0.81031   0.90610   0.00000  Uiso   1.00
C1394  C     0.46678   0.84889   0.59417   0.00000  Uiso   1.00
C1395  C     0.49780   0.83334   0.88382   0.00000  Uiso   1.00
C1396  C     0.50173   0.83351   0.61621   0.00000  Uiso   1.00
C1397  C     0.46604   0.85630   0.90730   0.00000  Uiso   1.00
C1398  C     0.53700   0.81872   0.59239   0.00000  Uiso   1.00
C1399  C     0.46417   0.85273   0.95435   0.00000  Uiso   1.00
C1400  C     0.53516   0.81467   0.54557   0.00000  Uiso   1.00
C1401  C     0.49818   0.83228   0.97669   0.00000  Uiso   1.00
C1402  C     0.49978   0.83214   0.52338   0.00000  Uiso   1.00
C1403  C     0.53048   0.81132   0.95225   0.00000  Uiso   1.00
C1404  C     0.46590   0.84940   0.54791   0.00000  Uiso   1.00
C1405  C     0.42952   0.86860   0.97930   0.00000  Uiso   1.00
C1406  C     0.56754   0.79400   0.52036   0.00000  Uiso   1.00
Cu1407 Cu    0.50000   0.88022   0.75000   0.00000  Uiso   1.00
Cu1408 Cu    0.50000   0.78645   0.75000   0.00000  Uiso   1.00
H1409  H     0.55351   0.79328   0.88718   0.00000  Uiso   1.00
H1410  H     0.44027   0.86082   0.61333   0.00000  Uiso   1.00
N1411  N     0.50000   0.95069   0.75000   0.00000  Uiso   1.00
N1412  N     0.50000   0.71598   0.75000   0.00000  Uiso   1.00
O1413  O     0.43988   0.87291   0.75000   0.00000  Uiso   1.00
O1414  O     0.56012   0.79375   0.75001   0.00000  Uiso   1.00
O1415  O     0.56012   0.87291   0.75001   0.00000  Uiso   1.00
O1416  O     0.43988   0.79375   0.75000   0.00000  Uiso   1.00
O1417  O     0.49999   0.87293   0.68513   0.00000  Uiso   1.00
O1418  O     0.50001   0.79373   0.81487   0.00000  Uiso   1.00
O1419  O     0.50001   0.87293   0.81487   0.00000  Uiso   1.00
O1420  O     0.49999   0.79373   0.68513   0.00000  Uiso   1.00
O1421  O     0.43642   0.88029   0.88355   0.00000  Uiso   1.00
C1422  C     0.44689   0.92848   0.88284   0.00000  Uiso   1.00
H1423  H     0.48034   0.93456   0.87577   0.00000  Uiso   1.00
H1424  H     0.43907   0.94499   0.91532   0.00000  Uiso   1.00
C1425  C     0.42254   0.95277   0.84652   0.00000  Uiso   1.00
H1426  H     0.38899   0.94673   0.85154   0.00000  Uiso   1.00
H1427  H     0.42889   0.99102   0.84716   0.00000  Uiso   1.00
H1428  H     0.43172   0.93884   0.81344   0.00000  Uiso   1.00
O1429  O     0.57345   0.80994   0.61463   0.00000  Uiso   1.00
C1430  C     0.59312   0.85337   0.62336   0.00000  Uiso   1.00
H1431  H     0.57630   0.87256   0.65003   0.00000  Uiso   1.00
H1432  H     0.59486   0.87603   0.59310   0.00000  Uiso   1.00
C1433  C     0.63694   0.84520   0.63935   0.00000  Uiso   1.00
H1434  H     0.65807   0.83907   0.61084   0.00000  Uiso   1.00
H1435  H     0.64820   0.87671   0.65723   0.00000  Uiso   1.00
H1436  H     0.63793   0.81452   0.66192   0.00000  Uiso   1.00
O1437  O     0.39387   0.88140   0.95654   0.00000  Uiso   1.00
C1438  C     0.36885   0.91360   0.98011   0.00000  Uiso   1.00
H1439  H     0.38760   0.94172   0.99598   0.00000  Uiso   1.00
H1440  H     0.34998   0.89482   0.50559   0.00000  Uiso   1.00
C1441  C     0.33924   0.93678   0.94801   0.00000  Uiso   1.00
H1442  H     0.65428   0.90975   0.93028   0.00000  Uiso   1.00
H1443  H     0.65118   0.96004   0.96668   0.00000  Uiso   1.00
H1444  H     0.35669   0.95820   0.92339   0.00000  Uiso   1.00
O1445  O     0.59929   0.77052   0.54146   0.00000  Uiso   1.00
C1446  C     0.63804   0.78873   0.52773   0.00000  Uiso   1.00
H1447  H     0.64058   0.82643   0.53664   0.00000  Uiso   1.00
H1448  H     0.64344   0.78504   0.99135   0.00000  Uiso   1.00
C1449  C     0.33878   0.76160   0.55071   0.00000  Uiso   1.00
H1450  H     0.33929   0.72494   0.53834   0.00000  Uiso   1.00
H1451  H     0.36912   0.77827   0.54345   0.00000  Uiso   1.00
H1452  H     0.33353   0.76097   0.58726   0.00000  Uiso   1.00
H1453  H     0.40464   0.87600   0.54641   0.00000  Uiso   1.00
H1454  H     0.58647   0.77193   0.95467   0.00000  Uiso   1.00
H1455  H     0.37036   0.75744   0.75149   0.00000  Uiso   1.00
H1456  H     0.62954   0.90923   0.75458   0.00000  Uiso   1.00
H1457  H     0.62899   0.75750   0.75237   0.00000  Uiso   1.00
H1458  H     0.37095   0.90916   0.75389   0.00000  Uiso   1.00
H1459  H     0.45371   0.70999   0.70087   0.00000  Uiso   1.00
H1460  H     0.54608   0.95666   0.79936   0.00000  Uiso   1.00
H1461  H     0.54611   0.71036   0.79933   0.00000  Uiso   1.00
H1462  H     0.45372   0.95629   0.70087   0.00000  Uiso   1.00
C1463  C     0.75402   0.83329   0.75058   0.00000  Uiso   1.00
C1464  C     0.91262   0.83339   0.75104   0.00000  Uiso   1.00
C1465  C     0.76423   0.86580   0.52621   0.00000  Uiso   1.00
C1466  C     0.89698   0.79085   0.97402   0.00000  Uiso   1.00
C1467  C     0.68778   0.79072   0.75226   0.00000  Uiso   1.00
C1468  C     0.97880   0.87594   0.75409   0.00000  Uiso   1.00
C1469  C     0.97849   0.79077   0.75287   0.00000  Uiso   1.00
C1470  C     0.68810   0.87589   0.75357   0.00000  Uiso   1.00
C1471  C     0.95719   0.83340   0.75301   0.00000  Uiso   1.00
C1472  C     0.70939   0.83328   0.75210   0.00000  Uiso   1.00
C1473  C     0.80763   0.69137   0.72272   0.00000  Uiso   1.00
C1474  C     0.85892   0.97529   0.77740   0.00000  Uiso   1.00
C1475  C     0.85893   0.69157   0.77740   0.00000  Uiso   1.00
C1476  C     0.80764   0.97508   0.72272   0.00000  Uiso   1.00
C1477  C     0.83426   0.83336   0.66445   0.00000  Uiso   1.00
C1478  C     0.83225   0.83336   0.83556   0.00000  Uiso   1.00
C1479  C     0.86247   0.81031   0.90610   0.00000  Uiso   1.00
C1480  C     0.80011   0.84889   0.59417   0.00000  Uiso   1.00
C1481  C     0.83114   0.83334   0.88382   0.00000  Uiso   1.00
C1482  C     0.83507   0.83351   0.61621   0.00000  Uiso   1.00
C1483  C     0.79938   0.85630   0.90730   0.00000  Uiso   1.00
C1484  C     0.87033   0.81872   0.59239   0.00000  Uiso   1.00
C1485  C     0.79750   0.85273   0.95435   0.00000  Uiso   1.00
C1486  C     0.86850   0.81467   0.54557   0.00000  Uiso   1.00
C1487  C     0.83151   0.83228   0.97669   0.00000  Uiso   1.00
C1488  C     0.83312   0.83214   0.52338   0.00000  Uiso   1.00
C1489  C     0.86382   0.81132   0.95225   0.00000  Uiso   1.00
C1490  C     0.79923   0.84940   0.54791   0.00000  Uiso   1.00
C1491  C     0.76285   0.86860   0.97930   0.00000  Uiso   1.00
C1492  C     0.90087   0.79400   0.52036   0.00000  Uiso   1.00
Cu1493 Cu    0.83333   0.88022   0.75000   0.00000  Uiso   1.00
Cu1494 Cu    0.83333   0.78645   0.75000   0.00000  Uiso   1.00
H1495  H     0.88684   0.79328   0.88718   0.00000  Uiso   1.00
H1496  H     0.77361   0.86082   0.61333   0.00000  Uiso   1.00
N1497  N     0.83333   0.95069   0.75000   0.00000  Uiso   1.00
N1498  N     0.83333   0.71598   0.75000   0.00000  Uiso   1.00
O1499  O     0.77321   0.87291   0.75000   0.00000  Uiso   1.00
O1500  O     0.89345   0.79375   0.75001   0.00000  Uiso   1.00
O1501  O     0.89345   0.87291   0.75001   0.00000  Uiso   1.00
O1502  O     0.77321   0.79375   0.75000   0.00000  Uiso   1.00
O1503  O     0.83332   0.87293   0.68513   0.00000  Uiso   1.00
O1504  O     0.83334   0.79373   0.81487   0.00000  Uiso   1.00
O1505  O     0.83334   0.87293   0.81487   0.00000  Uiso   1.00
O1506  O     0.83332   0.79373   0.68513   0.00000  Uiso   1.00
O1507  O     0.76976   0.88029   0.88355   0.00000  Uiso   1.00
C1508  C     0.78023   0.92848   0.88284   0.00000  Uiso   1.00
H1509  H     0.81367   0.93456   0.87577   0.00000  Uiso   1.00
H1510  H     0.77240   0.94499   0.91532   0.00000  Uiso   1.00
C1511  C     0.75588   0.95277   0.84652   0.00000  Uiso   1.00
H1512  H     0.72232   0.94673   0.85154   0.00000  Uiso   1.00
H1513  H     0.76222   0.99102   0.84716   0.00000  Uiso   1.00
H1514  H     0.76505   0.93884   0.81344   0.00000  Uiso   1.00
O1515  O     0.90678   0.80994   0.61463   0.00000  Uiso   1.00
C1516  C     0.92646   0.85337   0.62336   0.00000  Uiso   1.00
H1517  H     0.90963   0.87256   0.65003   0.00000  Uiso   1.00
H1518  H     0.92819   0.87603   0.59310   0.00000  Uiso   1.00
C1519  C     0.97027   0.84520   0.63935   0.00000  Uiso   1.00
H1520  H     0.99140   0.83907   0.61084   0.00000  Uiso   1.00
H1521  H     0.98153   0.87671   0.65723   0.00000  Uiso   1.00
H1522  H     0.97126   0.81452   0.66192   0.00000  Uiso   1.00
O1523  O     0.72721   0.88140   0.95654   0.00000  Uiso   1.00
C1524  C     0.70218   0.91360   0.98011   0.00000  Uiso   1.00
H1525  H     0.72093   0.94172   0.99598   0.00000  Uiso   1.00
H1526  H     0.68331   0.89482   0.50559   0.00000  Uiso   1.00
C1527  C     0.67258   0.93678   0.94801   0.00000  Uiso   1.00
H1528  H     0.98761   0.90975   0.93028   0.00000  Uiso   1.00
H1529  H     0.98451   0.96004   0.96668   0.00000  Uiso   1.00
H1530  H     0.69003   0.95820   0.92339   0.00000  Uiso   1.00
O1531  O     0.93263   0.77052   0.54146   0.00000  Uiso   1.00
C1532  C     0.97137   0.78873   0.52773   0.00000  Uiso   1.00
H1533  H     0.97391   0.82643   0.53664   0.00000  Uiso   1.00
H1534  H     0.97677   0.78504   0.99135   0.00000  Uiso   1.00
C1535  C     0.67211   0.76160   0.55071   0.00000  Uiso   1.00
H1536  H     0.67263   0.72494   0.53834   0.00000  Uiso   1.00
H1537  H     0.70245   0.77827   0.54345   0.00000  Uiso   1.00
H1538  H     0.66686   0.76097   0.58726   0.00000  Uiso   1.00
H1539  H     0.73797   0.87600   0.54641   0.00000  Uiso   1.00
H1540  H     0.91980   0.77193   0.95467   0.00000  Uiso   1.00
H1541  H     0.70369   0.75744   0.75149   0.00000  Uiso   1.00
H1542  H     0.96288   0.90923   0.75458   0.00000  Uiso   1.00
H1543  H     0.96232   0.75750   0.75237   0.00000  Uiso   1.00
H1544  H     0.70428   0.90916   0.75389   0.00000  Uiso   1.00
H1545  H     0.78704   0.70999   0.70087   0.00000  Uiso   1.00
H1546  H     0.87941   0.95666   0.79936   0.00000  Uiso   1.00
H1547  H     0.87944   0.71036   0.79933   0.00000  Uiso   1.00
H1548  H     0.78705   0.95629   0.70087   0.00000  Uiso   1.00
loop_
_geom_bond_atom_site_label_1
_geom_bond_atom_site_label_2
_geom_bond_distance
_geom_bond_site_symmetry_2
_ccdc_geom_bond_type
C1     O40     1.291   .     A
C1     O37     1.289   .     A
C1     C10     1.447   .     S
C2     O39     1.291   .     A
C2     O38     1.289   .     A
C2     C9      1.447   .     S
C3     H77     1.082   .     S
C3     C28     1.397   .     A
C3     C803    1.413   1_554 S
C4     C27     1.394   .     A
C4     H78     1.083   .     S
C4     C804    1.402   .     S
C5     H79     1.083   .     S
C5     C10     1.400   .     A
C5     C179    1.382   1_455 S
C6     C9      1.400   .     A
C6     H80     1.083   .     S
C6     C94     1.382   .     S
C7     H81     1.083   .     S
C7     C9      1.401   .     A
C7     C91     1.382   .     S
C8     H82     1.083   .     S
C8     C10     1.401   .     A
C8     C178    1.382   1_455 S
C11    N36     1.367   .     A
C11    H83     1.082   .     S
C11    C530    1.416   1_545 S
C12    H84     1.082   .     S
C12    N35     1.367   .     A
C12    C271    1.416   .     S
C13    N36     1.367   .     A
C13    H85     1.082   .     S
C13    C528    1.416   1_545 S
C14    H86     1.082   .     S
C14    N35     1.367   .     A
C14    C269    1.416   .     S
C15    O44     1.290   .     A
C15    C20     1.449   .     S
C15    O41     1.290   .     A
C16    O42     1.291   .     A
C16    O43     1.289   .     A
C16    C19     1.450   .     S
C17    H33     1.086   .     S
C17    C27     1.388   .     A
C17    C19     1.389   .     A
C18    C28     1.391   .     A
C18    H34     1.086   .     S
C18    C20     1.391   .     A
C19    C21     1.407   .     A
C20    C22     1.409   .     A
C21    O45     1.385   .     S
C21    C23     1.418   .     A
C22    O53     1.387   .     S
C22    C24     1.413   .     A
C23    C29     1.420   .     A
C23    C25     1.423   .     A
C24    C26     1.424   .     A
C24    C30     1.419   .     A
C25    C27     1.409   .     A
C25    C800    1.404   .     S
C26    C28     1.408   .     A
C26    C799    1.404   1_554 S
C29    O61     1.398   .     S
C29    C777    1.413   .     S
C30    O69     1.389   .     S
C30    C778    1.402   1_554 S
Cu31   O43     1.960   .     S
Cu31   O37     1.960   .     S
Cu31   Cu32    2.677   .     S
Cu31   O41     1.960   .     S
Cu31   N35     2.012   .     S
Cu31   O39     1.961   .     S
Cu32   O38     1.960   .     S
Cu32   O40     1.961   .     S
Cu32   O44     1.960   .     S
Cu32   N36     2.012   .     S
Cu32   O42     1.960   .     S
O45    C46     1.416   .     S
C46    C49     1.522   .     S
C46    H47     1.116   .     S
C46    H48     1.112   .     S
C49    H51     1.110   .     S
C49    H52     1.109   .     S
C49    H50     1.110   .     S
O53    C54     1.418   .     S
C54    H55     1.111   .     S
C54    H56     1.116   .     S
C54    C57     1.523   .     S
C57    H59     1.110   .     S
C57    H60     1.108   .     S
C57    H58     1.106   .     S
O61    C62     1.414   .     S
C62    H63     1.115   .     S
C62    C65     1.521   .     S
C62    H838    1.112   .     S
H64    C836    1.112   1_554 S
C65    H68     1.109   .     S
C65    H238    1.111   1_455 S
C65    H239    1.111   1_455 S
H66    C151    1.111   .     S
H67    C151    1.111   .     S
O69    C70     1.415   .     S
C70    H71     1.112   .     S
C70    H846    1.110   1_554 S
C70    C159    1.523   .     S
H72    C844    1.110   .     S
C73    H74     1.111   .     S
C73    H75     1.111   .     S
C73    H76     1.110   .     S
C73    C242    1.523   1_455 S
C87    O126    1.291   .     A
C87    O123    1.289   .     A
C87    C96     1.447   .     S
C88    O125    1.291   .     A
C88    O124    1.289   .     A
C88    C95     1.447   .     S
C89    H163    1.082   .     S
C89    C114    1.397   .     A
C89    C889    1.413   1_554 S
C90    C113    1.394   .     A
C90    H164    1.083   .     S
C90    C890    1.402   .     S
C91    H165    1.083   .     S
C91    C96     1.400   .     A
C92    C95     1.400   .     A
C92    H166    1.083   .     S
C92    C180    1.382   .     S
C93    H167    1.083   .     S
C93    C95     1.401   .     A
C93    C177    1.382   .     S
C94    H168    1.083   .     S
C94    C96     1.401   .     A
C97    N122    1.367   .     A
C97    H169    1.082   .     S
C97    C616    1.416   1_545 S
C98    H170    1.082   .     S
C98    N121    1.367   .     A
C98    C357    1.416   .     S
C99    N122    1.367   .     A
C99    H171    1.082   .     S
C99    C614    1.416   1_545 S
C100   H172    1.082   .     S
C100   N121    1.367   .     A
C100   C355    1.416   .     S
C101   O130    1.290   .     A
C101   C106    1.449   .     S
C101   O127    1.290   .     A
C102   O128    1.291   .     A
C102   O129    1.289   .     A
C102   C105    1.450   .     S
C103   H119    1.086   .     S
C103   C113    1.388   .     A
C103   C105    1.389   .     A
C104   C114    1.391   .     A
C104   H120    1.086   .     S
C104   C106    1.391   .     A
C105   C107    1.407   .     A
C106   C108    1.409   .     A
C107   O131    1.385   .     S
C107   C109    1.418   .     A
C108   O139    1.387   .     S
C108   C110    1.413   .     A
C109   C115    1.420   .     A
C109   C111    1.423   .     A
C110   C112    1.424   .     A
C110   C116    1.419   .     A
C111   C113    1.409   .     A
C111   C886    1.404   .     S
C112   C114    1.408   .     A
C112   C885    1.404   1_554 S
C115   O147    1.398   .     S
C115   C863    1.413   .     S
C116   O155    1.389   .     S
C116   C864    1.402   1_554 S
Cu117  O129    1.960   .     S
Cu117  O123    1.960   .     S
Cu117  Cu118   2.677   .     S
Cu117  O127    1.960   .     S
Cu117  N121    2.012   .     S
Cu117  O125    1.961   .     S
Cu118  O124    1.960   .     S
Cu118  O126    1.961   .     S
Cu118  O130    1.960   .     S
Cu118  N122    2.012   .     S
Cu118  O128    1.960   .     S
O131   C132    1.416   .     S
C132   C135    1.522   .     S
C132   H133    1.116   .     S
C132   H134    1.112   .     S
C135   H137    1.110   .     S
C135   H138    1.109   .     S
C135   H136    1.110   .     S
O139   C140    1.418   .     S
C140   H141    1.111   .     S
C140   H142    1.116   .     S
C140   C143    1.523   .     S
C143   H145    1.110   .     S
C143   H146    1.108   .     S
C143   H144    1.106   .     S
O147   C148    1.414   .     S
C148   H149    1.115   .     S
C148   C151    1.521   .     S
C148   H924    1.112   .     S
H150   C922    1.112   1_554 S
C151   H154    1.109   .     S
H152   C237    1.111   .     S
H153   C237    1.111   .     S
O155   C156    1.415   .     S
C156   H157    1.112   .     S
C156   H932    1.110   1_554 S
C156   C245    1.523   .     S
H158   C930    1.110   .     S
C159   H160    1.111   .     S
C159   H161    1.111   .     S
C159   H162    1.110   .     S
C173   O212    1.291   .     A
C173   O209    1.289   .     A
C173   C182    1.447   .     S
C174   O211    1.291   .     A
C174   O210    1.289   .     A
C174   C181    1.447   .     S
C175   H249    1.082   .     S
C175   C200    1.397   .     A
C175   C975    1.413   1_554 S
C176   C199    1.394   .     A
C176   H250    1.083   .     S
C176   C976    1.402   .     S
C177   H251    1.083   .     S
C177   C182    1.400   .     A
C178   C181    1.400   .     A
C178   H252    1.083   .     S
C178   C8      1.382   1_655 S
C179   H253    1.083   .     S
C179   C181    1.401   .     A
C179   C5      1.382   1_655 S
C180   H254    1.083   .     S
C180   C182    1.401   .     A
C183   N208    1.367   .     A
C183   H255    1.082   .     S
C183   C702    1.416   1_545 S
C184   H256    1.082   .     S
C184   N207    1.367   .     A
C184   C443    1.416   .     S
C185   N208    1.367   .     A
C185   H257    1.082   .     S
C185   C700    1.416   1_545 S
C186   H258    1.082   .     S
C186   N207    1.367   .     A
C186   C441    1.416   .     S
C187   O216    1.290   .     A
C187   C192    1.449   .     S
C187   O213    1.290   .     A
C188   O214    1.291   .     A
C188   O215    1.289   .     A
C188   C191    1.450   .     S
C189   H205    1.086   .     S
C189   C199    1.388   .     A
C189   C191    1.389   .     A
C190   C200    1.391   .     A
C190   H206    1.086   .     S
C190   C192    1.391   .     A
C191   C193    1.407   .     A
C192   C194    1.409   .     A
C193   O217    1.385   .     S
C193   C195    1.418   .     A
C194   O225    1.387   .     S
C194   C196    1.413   .     A
C195   C201    1.420   .     A
C195   C197    1.423   .     A
C196   C198    1.424   .     A
C196   C202    1.419   .     A
C197   C199    1.409   .     A
C197   C972    1.404   .     S
C198   C200    1.408   .     A
C198   C971    1.404   1_554 S
C201   O233    1.398   .     S
C201   C949    1.413   .     S
C202   O241    1.389   .     S
C202   C950    1.402   1_554 S
Cu203  O215    1.960   .     S
Cu203  O209    1.960   .     S
Cu203  Cu204   2.677   .     S
Cu203  O213    1.960   .     S
Cu203  N207    2.012   .     S
Cu203  O211    1.961   .     S
Cu204  O210    1.960   .     S
Cu204  O212    1.961   .     S
Cu204  O216    1.960   .     S
Cu204  N208    2.012   .     S
Cu204  O214    1.960   .     S
O217   C218    1.416   .     S
C218   C221    1.522   .     S
C218   H219    1.116   .     S
C218   H220    1.112   .     S
C221   H223    1.110   .     S
C221   H224    1.109   .     S
C221   H222    1.110   .     S
O225   C226    1.418   .     S
C226   H227    1.111   .     S
C226   H228    1.116   .     S
C226   C229    1.523   .     S
C229   H231    1.110   .     S
C229   H232    1.108   .     S
C229   H230    1.106   .     S
O233   C234    1.414   .     S
C234   H235    1.115   .     S
C234   C237    1.521   .     S
C234   H1010   1.112   .     S
H236   C1008   1.112   1_554 S
C237   H240    1.109   .     S
H238   C65     1.111   1_655 S
H239   C65     1.111   1_655 S
O241   C242    1.415   .     S
C242   H243    1.112   .     S
C242   H1018   1.110   1_554 S
C242   C73     1.523   1_655 S
H244   C1016   1.110   .     S
C245   H246    1.111   .     S
C245   H247    1.111   .     S
C245   H248    1.110   .     S
C259   O298    1.291   .     A
C259   O295    1.289   .     A
C259   C268    1.447   .     S
C260   O297    1.291   .     A
C260   O296    1.289   .     A
C260   C267    1.447   .     S
C261   H335    1.082   .     S
C261   C286    1.397   .     A
C261   C1061   1.413   1_554 S
C262   C285    1.394   .     A
C262   H336    1.083   .     S
C262   C1062   1.402   .     S
C263   H337    1.083   .     S
C263   C268    1.400   .     A
C263   C437    1.382   1_455 S
C264   C267    1.400   .     A
C264   H338    1.083   .     S
C264   C352    1.382   .     S
C265   H339    1.083   .     S
C265   C267    1.401   .     A
C265   C349    1.382   .     S
C266   H340    1.083   .     S
C266   C268    1.401   .     A
C266   C436    1.382   1_455 S
C269   N294    1.367   .     A
C269   H341    1.082   .     S
C270   H342    1.082   .     S
C270   N293    1.367   .     A
C270   C529    1.416   .     S
C271   N294    1.367   .     A
C271   H343    1.082   .     S
C272   H344    1.082   .     S
C272   N293    1.367   .     A
C272   C527    1.416   .     S
C273   O302    1.290   .     A
C273   C278    1.449   .     S
C273   O299    1.290   .     A
C274   O300    1.291   .     A
C274   O301    1.289   .     A
C274   C277    1.450   .     S
C275   H291    1.086   .     S
C275   C285    1.388   .     A
C275   C277    1.389   .     A
C276   C286    1.391   .     A
C276   H292    1.086   .     S
C276   C278    1.391   .     A
C277   C279    1.407   .     A
C278   C280    1.409   .     A
C279   O303    1.385   .     S
C279   C281    1.418   .     A
C280   O311    1.387   .     S
C280   C282    1.413   .     A
C281   C287    1.420   .     A
C281   C283    1.423   .     A
C282   C284    1.424   .     A
C282   C288    1.419   .     A
C283   C285    1.409   .     A
C283   C1058   1.404   .     S
C284   C286    1.408   .     A
C284   C1057   1.404   1_554 S
C287   O319    1.398   .     S
C287   C1035   1.413   .     S
C288   O327    1.389   .     S
C288   C1036   1.402   1_554 S
Cu289  O301    1.960   .     S
Cu289  O295    1.960   .     S
Cu289  Cu290   2.677   .     S
Cu289  O299    1.960   .     S
Cu289  N293    2.012   .     S
Cu289  O297    1.961   .     S
Cu290  O296    1.960   .     S
Cu290  O298    1.961   .     S
Cu290  O302    1.960   .     S
Cu290  N294    2.012   .     S
Cu290  O300    1.960   .     S
O303   C304    1.416   .     S
C304   C307    1.522   .     S
C304   H305    1.116   .     S
C304   H306    1.112   .     S
C307   H309    1.110   .     S
C307   H310    1.109   .     S
C307   H308    1.110   .     S
O311   C312    1.418   .     S
C312   H313    1.111   .     S
C312   H314    1.116   .     S
C312   C315    1.523   .     S
C315   H317    1.110   .     S
C315   H318    1.108   .     S
C315   H316    1.106   .     S
O319   C320    1.414   .     S
C320   H321    1.115   .     S
C320   C323    1.521   .     S
C320   H1096   1.112   .     S
H322   C1094   1.112   1_554 S
C323   H326    1.109   .     S
C323   H496    1.111   1_455 S
C323   H497    1.111   1_455 S
H324   C409    1.111   .     S
H325   C409    1.111   .     S
O327   C328    1.415   .     S
C328   H329    1.112   .     S
C328   H1104   1.110   1_554 S
C328   C417    1.523   .     S
H330   C1102   1.110   .     S
C331   H332    1.111   .     S
C331   H333    1.111   .     S
C331   H334    1.110   .     S
C331   C500    1.523   1_455 S
C345   O384    1.291   .     A
C345   O381    1.289   .     A
C345   C354    1.447   .     S
C346   O383    1.291   .     A
C346   O382    1.289   .     A
C346   C353    1.447   .     S
C347   H421    1.082   .     S
C347   C372    1.397   .     A
C347   C1147   1.413   1_554 S
C348   C371    1.394   .     A
C348   H422    1.083   .     S
C348   C1148   1.402   .     S
C349   H423    1.083   .     S
C349   C354    1.400   .     A
C350   C353    1.400   .     A
C350   H424    1.083   .     S
C350   C438    1.382   .     S
C351   H425    1.083   .     S
C351   C353    1.401   .     A
C351   C435    1.382   .     S
C352   H426    1.083   .     S
C352   C354    1.401   .     A
C355   N380    1.367   .     A
C355   H427    1.082   .     S
C356   H428    1.082   .     S
C356   N379    1.367   .     A
C356   C615    1.416   .     S
C357   N380    1.367   .     A
C357   H429    1.082   .     S
C358   H430    1.082   .     S
C358   N379    1.367   .     A
C358   C613    1.416   .     S
C359   O388    1.290   .     A
C359   C364    1.449   .     S
C359   O385    1.290   .     A
C360   O386    1.291   .     A
C360   O387    1.289   .     A
C360   C363    1.450   .     S
C361   H377    1.086   .     S
C361   C371    1.388   .     A
C361   C363    1.389   .     A
C362   C372    1.391   .     A
C362   H378    1.086   .     S
C362   C364    1.391   .     A
C363   C365    1.407   .     A
C364   C366    1.409   .     A
C365   O389    1.385   .     S
C365   C367    1.418   .     A
C366   O397    1.387   .     S
C366   C368    1.413   .     A
C367   C373    1.420   .     A
C367   C369    1.423   .     A
C368   C370    1.424   .     A
C368   C374    1.419   .     A
C369   C371    1.409   .     A
C369   C1144   1.404   .     S
C370   C372    1.408   .     A
C370   C1143   1.404   1_554 S
C373   O405    1.398   .     S
C373   C1121   1.413   .     S
C374   O413    1.389   .     S
C374   C1122   1.402   1_554 S
Cu375  O387    1.960   .     S
Cu375  O381    1.960   .     S
Cu375  Cu376   2.677   .     S
Cu375  O385    1.960   .     S
Cu375  N379    2.012   .     S
Cu375  O383    1.961   .     S
Cu376  O382    1.960   .     S
Cu376  O384    1.961   .     S
Cu376  O388    1.960   .     S
Cu376  N380    2.012   .     S
Cu376  O386    1.960   .     S
O389   C390    1.416   .     S
C390   C393    1.522   .     S
C390   H391    1.116   .     S
C390   H392    1.112   .     S
C393   H395    1.110   .     S
C393   H396    1.109   .     S
C393   H394    1.110   .     S
O397   C398    1.418   .     S
C398   H399    1.111   .     S
C398   H400    1.116   .     S
C398   C401    1.523   .     S
C401   H403    1.110   .     S
C401   H404    1.108   .     S
C401   H402    1.106   .     S
O405   C406    1.414   .     S
C406   H407    1.115   .     S
C406   C409    1.521   .     S
C406   H1182   1.112   .     S
H408   C1180   1.112   1_554 S
C409   H412    1.109   .     S
H410   C495    1.111   .     S
H411   C495    1.111   .     S
O413   C414    1.415   .     S
C414   H415    1.112   .     S
C414   H1190   1.110   1_554 S
C414   C503    1.523   .     S
H416   C1188   1.110   .     S
C417   H418    1.111   .     S
C417   H419    1.111   .     S
C417   H420    1.110   .     S
C431   O470    1.291   .     A
C431   O467    1.289   .     A
C431   C440    1.447   .     S
C432   O469    1.291   .     A
C432   O468    1.289   .     A
C432   C439    1.447   .     S
C433   H507    1.082   .     S
C433   C458    1.397   .     A
C433   C1233   1.413   1_554 S
C434   C457    1.394   .     A
C434   H508    1.083   .     S
C434   C1234   1.402   .     S
C435   H509    1.083   .     S
C435   C440    1.400   .     A
C436   C439    1.400   .     A
C436   H510    1.083   .     S
C436   C266    1.382   1_655 S
C437   H511    1.083   .     S
C437   C439    1.401   .     A
C437   C263    1.382   1_655 S
C438   H512    1.083   .     S
C438   C440    1.401   .     A
C441   N466    1.367   .     A
C441   H513    1.082   .     S
C442   H514    1.082   .     S
C442   N465    1.367   .     A
C442   C701    1.416   .     S
C443   N466    1.367   .     A
C443   H515    1.082   .     S
C444   H516    1.082   .     S
C444   N465    1.367   .     A
C444   C699    1.416   .     S
C445   O474    1.290   .     A
C445   C450    1.449   .     S
C445   O471    1.290   .     A
C446   O472    1.291   .     A
C446   O473    1.289   .     A
C446   C449    1.450   .     S
C447   H463    1.086   .     S
C447   C457    1.388   .     A
C447   C449    1.389   .     A
C448   C458    1.391   .     A
C448   H464    1.086   .     S
C448   C450    1.391   .     A
C449   C451    1.407   .     A
C450   C452    1.409   .     A
C451   O475    1.385   .     S
C451   C453    1.418   .     A
C452   O483    1.387   .     S
C452   C454    1.413   .     A
C453   C459    1.420   .     A
C453   C455    1.423   .     A
C454   C456    1.424   .     A
C454   C460    1.419   .     A
C455   C457    1.409   .     A
C455   C1230   1.404   .     S
C456   C458    1.408   .     A
C456   C1229   1.404   1_554 S
C459   O491    1.398   .     S
C459   C1207   1.413   .     S
C460   O499    1.389   .     S
C460   C1208   1.402   1_554 S
Cu461  O473    1.960   .     S
Cu461  O467    1.960   .     S
Cu461  Cu462   2.677   .     S
Cu461  O471    1.960   .     S
Cu461  N465    2.012   .     S
Cu461  O469    1.961   .     S
Cu462  O468    1.960   .     S
Cu462  O470    1.961   .     S
Cu462  O474    1.960   .     S
Cu462  N466    2.012   .     S
Cu462  O472    1.960   .     S
O475   C476    1.416   .     S
C476   C479    1.522   .     S
C476   H477    1.116   .     S
C476   H478    1.112   .     S
C479   H481    1.110   .     S
C479   H482    1.109   .     S
C479   H480    1.110   .     S
O483   C484    1.418   .     S
C484   H485    1.111   .     S
C484   H486    1.116   .     S
C484   C487    1.523   .     S
C487   H489    1.110   .     S
C487   H490    1.108   .     S
C487   H488    1.106   .     S
O491   C492    1.414   .     S
C492   H493    1.115   .     S
C492   C495    1.521   .     S
C492   H1268   1.112   .     S
H494   C1266   1.112   1_554 S
C495   H498    1.109   .     S
H496   C323    1.111   1_655 S
H497   C323    1.111   1_655 S
O499   C500    1.415   .     S
C500   H501    1.112   .     S
C500   H1276   1.110   1_554 S
C500   C331    1.523   1_655 S
H502   C1274   1.110   .     S
C503   H504    1.111   .     S
C503   H505    1.111   .     S
C503   H506    1.110   .     S
C517   O556    1.291   .     A
C517   O553    1.289   .     A
C517   C526    1.447   .     S
C518   O555    1.291   .     A
C518   O554    1.289   .     A
C518   C525    1.447   .     S
C519   H593    1.082   .     S
C519   C544    1.397   .     A
C519   C1319   1.413   1_554 S
C520   C543    1.394   .     A
C520   H594    1.083   .     S
C520   C1320   1.402   .     S
C521   H595    1.083   .     S
C521   C526    1.400   .     A
C521   C695    1.382   1_455 S
C522   C525    1.400   .     A
C522   H596    1.083   .     S
C522   C610    1.382   .     S
C523   H597    1.083   .     S
C523   C525    1.401   .     A
C523   C607    1.382   .     S
C524   H598    1.083   .     S
C524   C526    1.401   .     A
C524   C694    1.382   1_455 S
C527   N552    1.367   .     A
C527   H599    1.082   .     S
C528   H600    1.082   .     S
C528   N551    1.367   .     A
C528   C13     1.416   1_565 S
C529   N552    1.367   .     A
C529   H601    1.082   .     S
C530   H602    1.082   .     S
C530   N551    1.367   .     A
C530   C11     1.416   1_565 S
C531   O560    1.290   .     A
C531   C536    1.449   .     S
C531   O557    1.290   .     A
C532   O558    1.291   .     A
C532   O559    1.289   .     A
C532   C535    1.450   .     S
C533   H549    1.086   .     S
C533   C543    1.388   .     A
C533   C535    1.389   .     A
C534   C544    1.391   .     A
C534   H550    1.086   .     S
C534   C536    1.391   .     A
C535   C537    1.407   .     A
C536   C538    1.409   .     A
C537   O561    1.385   .     S
C537   C539    1.418   .     A
C538   O569    1.387   .     S
C538   C540    1.413   .     A
C539   C545    1.420   .     A
C539   C541    1.423   .     A
C540   C542    1.424   .     A
C540   C546    1.419   .     A
C541   C543    1.409   .     A
C541   C1316   1.404   .     S
C542   C544    1.408   .     A
C542   C1315   1.404   1_554 S
C545   O577    1.398   .     S
C545   C1293   1.413   .     S
C546   O585    1.389   .     S
C546   C1294   1.402   1_554 S
Cu547  O559    1.960   .     S
Cu547  O553    1.960   .     S
Cu547  Cu548   2.677   .     S
Cu547  O557    1.960   .     S
Cu547  N551    2.012   .     S
Cu547  O555    1.961   .     S
Cu548  O554    1.960   .     S
Cu548  O556    1.961   .     S
Cu548  O560    1.960   .     S
Cu548  N552    2.012   .     S
Cu548  O558    1.960   .     S
O561   C562    1.416   .     S
C562   C565    1.522   .     S
C562   H563    1.116   .     S
C562   H564    1.112   .     S
C565   H567    1.110   .     S
C565   H568    1.109   .     S
C565   H566    1.110   .     S
O569   C570    1.418   .     S
C570   H571    1.111   .     S
C570   H572    1.116   .     S
C570   C573    1.523   .     S
C573   H575    1.110   .     S
C573   H576    1.108   .     S
C573   H574    1.106   .     S
O577   C578    1.414   .     S
C578   H579    1.115   .     S
C578   C581    1.521   .     S
C578   H1354   1.112   .     S
H580   C1352   1.112   1_554 S
C581   H584    1.109   .     S
C581   H754    1.111   1_455 S
C581   H755    1.111   1_455 S
H582   C667    1.111   .     S
H583   C667    1.111   .     S
O585   C586    1.415   .     S
C586   H587    1.112   .     S
C586   H1362   1.110   1_554 S
C586   C675    1.523   .     S
H588   C1360   1.110   .     S
C589   H590    1.111   .     S
C589   H591    1.111   .     S
C589   H592    1.110   .     S
C589   C758    1.523   1_455 S
C603   O642    1.291   .     A
C603   O639    1.289   .     A
C603   C612    1.447   .     S
C604   O641    1.291   .     A
C604   O640    1.289   .     A
C604   C611    1.447   .     S
C605   H679    1.082   .     S
C605   C630    1.397   .     A
C605   C1405   1.413   1_554 S
C606   C629    1.394   .     A
C606   H680    1.083   .     S
C606   C1406   1.402   .     S
C607   H681    1.083   .     S
C607   C612    1.400   .     A
C608   C611    1.400   .     A
C608   H682    1.083   .     S
C608   C696    1.382   .     S
C609   H683    1.083   .     S
C609   C611    1.401   .     A
C609   C693    1.382   .     S
C610   H684    1.083   .     S
C610   C612    1.401   .     A
C613   N638    1.367   .     A
C613   H685    1.082   .     S
C614   H686    1.082   .     S
C614   N637    1.367   .     A
C614   C99     1.416   1_565 S
C615   N638    1.367   .     A
C615   H687    1.082   .     S
C616   H688    1.082   .     S
C616   N637    1.367   .     A
C616   C97     1.416   1_565 S
C617   O646    1.290   .     A
C617   C622    1.449   .     S
C617   O643    1.290   .     A
C618   O644    1.291   .     A
C618   O645    1.289   .     A
C618   C621    1.450   .     S
C619   H635    1.086   .     S
C619   C629    1.388   .     A
C619   C621    1.389   .     A
C620   C630    1.391   .     A
C620   H636    1.086   .     S
C620   C622    1.391   .     A
C621   C623    1.407   .     A
C622   C624    1.409   .     A
C623   O647    1.385   .     S
C623   C625    1.418   .     A
C624   O655    1.387   .     S
C624   C626    1.413   .     A
C625   C631    1.420   .     A
C625   C627    1.423   .     A
C626   C628    1.424   .     A
C626   C632    1.419   .     A
C627   C629    1.409   .     A
C627   C1402   1.404   .     S
C628   C630    1.408   .     A
C628   C1401   1.404   1_554 S
C631   O663    1.398   .     S
C631   C1379   1.413   .     S
C632   O671    1.389   .     S
C632   C1380   1.402   1_554 S
Cu633  O645    1.960   .     S
Cu633  O639    1.960   .     S
Cu633  Cu634   2.677   .     S
Cu633  O643    1.960   .     S
Cu633  N637    2.012   .     S
Cu633  O641    1.961   .     S
Cu634  O640    1.960   .     S
Cu634  O642    1.961   .     S
Cu634  O646    1.960   .     S
Cu634  N638    2.012   .     S
Cu634  O644    1.960   .     S
O647   C648    1.416   .     S
C648   C651    1.522   .     S
C648   H649    1.116   .     S
C648   H650    1.112   .     S
C651   H653    1.110   .     S
C651   H654    1.109   .     S
C651   H652    1.110   .     S
O655   C656    1.418   .     S
C656   H657    1.111   .     S
C656   H658    1.116   .     S
C656   C659    1.523   .     S
C659   H661    1.110   .     S
C659   H662    1.108   .     S
C659   H660    1.106   .     S
O663   C664    1.414   .     S
C664   H665    1.115   .     S
C664   C667    1.521   .     S
C664   H1440   1.112   .     S
H666   C1438   1.112   1_554 S
C667   H670    1.109   .     S
H668   C753    1.111   .     S
H669   C753    1.111   .     S
O671   C672    1.415   .     S
C672   H673    1.112   .     S
C672   H1448   1.110   1_554 S
C672   C761    1.523   .     S
H674   C1446   1.110   .     S
C675   H676    1.111   .     S
C675   H677    1.111   .     S
C675   H678    1.110   .     S
C689   O728    1.291   .     A
C689   O725    1.289   .     A
C689   C698    1.447   .     S
C690   O727    1.291   .     A
C690   O726    1.289   .     A
C690   C697    1.447   .     S
C691   H765    1.082   .     S
C691   C716    1.397   .     A
C691   C1491   1.413   1_554 S
C692   C715    1.394   .     A
C692   H766    1.083   .     S
C692   C1492   1.402   .     S
C693   H767    1.083   .     S
C693   C698    1.400   .     A
C694   C697    1.400   .     A
C694   H768    1.083   .     S
C694   C524    1.382   1_655 S
C695   H769    1.083   .     S
C695   C697    1.401   .     A
C695   C521    1.382   1_655 S
C696   H770    1.083   .     S
C696   C698    1.401   .     A
C699   N724    1.367   .     A
C699   H771    1.082   .     S
C700   H772    1.082   .     S
C700   N723    1.367   .     A
C700   C185    1.416   1_565 S
C701   N724    1.367   .     A
C701   H773    1.082   .     S
C702   H774    1.082   .     S
C702   N723    1.367   .     A
C702   C183    1.416   1_565 S
C703   O732    1.290   .     A
C703   C708    1.449   .     S
C703   O729    1.290   .     A
C704   O730    1.291   .     A
C704   O731    1.289   .     A
C704   C707    1.450   .     S
C705   H721    1.086   .     S
C705   C715    1.388   .     A
C705   C707    1.389   .     A
C706   C716    1.391   .     A
C706   H722    1.086   .     S
C706   C708    1.391   .     A
C707   C709    1.407   .     A
C708   C710    1.409   .     A
C709   O733    1.385   .     S
C709   C711    1.418   .     A
C710   O741    1.387   .     S
C710   C712    1.413   .     A
C711   C717    1.420   .     A
C711   C713    1.423   .     A
C712   C714    1.424   .     A
C712   C718    1.419   .     A
C713   C715    1.409   .     A
C713   C1488   1.404   .     S
C714   C716    1.408   .     A
C714   C1487   1.404   1_554 S
C717   O749    1.398   .     S
C717   C1465   1.413   .     S
C718   O757    1.389   .     S
C718   C1466   1.402   1_554 S
Cu719  O731    1.960   .     S
Cu719  O725    1.960   .     S
Cu719  Cu720   2.677   .     S
Cu719  O729    1.960   .     S
Cu719  N723    2.012   .     S
Cu719  O727    1.961   .     S
Cu720  O726    1.960   .     S
Cu720  O728    1.961   .     S
Cu720  O732    1.960   .     S
Cu720  N724    2.012   .     S
Cu720  O730    1.960   .     S
O733   C734    1.416   .     S
C734   C737    1.522   .     S
C734   H735    1.116   .     S
C734   H736    1.112   .     S
C737   H739    1.110   .     S
C737   H740    1.109   .     S
C737   H738    1.110   .     S
O741   C742    1.418   .     S
C742   H743    1.111   .     S
C742   H744    1.116   .     S
C742   C745    1.523   .     S
C745   H747    1.110   .     S
C745   H748    1.108   .     S
C745   H746    1.106   .     S
O749   C750    1.414   .     S
C750   H751    1.115   .     S
C750   C753    1.521   .     S
C750   H1526   1.112   .     S
H752   C1524   1.112   1_554 S
C753   H756    1.109   .     S
H754   C581    1.111   1_655 S
H755   C581    1.111   1_655 S
O757   C758    1.415   .     S
C758   H759    1.112   .     S
C758   H1534   1.110   1_554 S
C758   C589    1.523   1_655 S
H760   C1532   1.110   .     S
C761   H762    1.111   .     S
C761   H763    1.111   .     S
C761   H764    1.110   .     S
C775   O814    1.291   .     A
C775   O811    1.289   .     A
C775   C784    1.447   .     S
C776   O813    1.291   .     A
C776   O812    1.289   .     A
C776   C783    1.447   .     S
C777   H851    1.082   .     S
C777   C802    1.397   .     A
C778   C801    1.394   .     A
C778   H852    1.083   .     S
C778   C30     1.402   1_556 S
C779   H853    1.083   .     S
C779   C784    1.400   .     A
C779   C953    1.382   1_455 S
C780   C783    1.400   .     A
C780   H854    1.083   .     S
C780   C868    1.382   .     S
C781   H855    1.083   .     S
C781   C783    1.401   .     A
C781   C865    1.382   .     S
C782   H856    1.083   .     S
C782   C784    1.401   .     A
C782   C952    1.382   1_455 S
C785   N810    1.367   .     A
C785   H857    1.082   .     S
C785   C1304   1.416   1_545 S
C786   H858    1.082   .     S
C786   N809    1.367   .     A
C786   C1045   1.416   .     S
C787   N810    1.367   .     A
C787   H859    1.082   .     S
C787   C1302   1.416   1_545 S
C788   H860    1.082   .     S
C788   N809    1.367   .     A
C788   C1043   1.416   .     S
C789   O818    1.290   .     A
C789   C794    1.449   .     S
C789   O815    1.290   .     A
C790   O816    1.291   .     A
C790   O817    1.289   .     A
C790   C793    1.450   .     S
C791   H807    1.086   .     S
C791   C801    1.388   .     A
C791   C793    1.389   .     A
C792   C802    1.391   .     A
C792   H808    1.086   .     S
C792   C794    1.391   .     A
C793   C795    1.407   .     A
C794   C796    1.409   .     A
C795   O819    1.385   .     S
C795   C797    1.418   .     A
C796   O827    1.387   .     S
C796   C798    1.413   .     A
C797   C803    1.420   .     A
C797   C799    1.423   .     A
C798   C800    1.424   .     A
C798   C804    1.419   .     A
C799   C801    1.409   .     A
C799   C26     1.404   1_556 S
C800   C802    1.408   .     A
C803   O835    1.398   .     S
C803   C3      1.413   1_556 S
C804   O843    1.389   .     S
Cu805  O817    1.960   .     S
Cu805  O811    1.960   .     S
Cu805  Cu806   2.677   .     S
Cu805  O815    1.960   .     S
Cu805  N809    2.012   .     S
Cu805  O813    1.961   .     S
Cu806  O812    1.960   .     S
Cu806  O814    1.961   .     S
Cu806  O818    1.960   .     S
Cu806  N810    2.012   .     S
Cu806  O816    1.960   .     S
O819   C820    1.416   .     S
C820   C823    1.522   .     S
C820   H821    1.116   .     S
C820   H822    1.112   .     S
C823   H825    1.110   .     S
C823   H826    1.109   .     S
C823   H824    1.110   .     S
O827   C828    1.418   .     S
C828   H829    1.111   .     S
C828   H830    1.116   .     S
C828   C831    1.523   .     S
C831   H833    1.110   .     S
C831   H834    1.108   .     S
C831   H832    1.106   .     S
O835   C836    1.414   .     S
C836   H837    1.115   .     S
C836   C839    1.521   .     S
C836   H64     1.112   1_556 S
C839   H842    1.109   .     S
C839   H1012   1.111   1_455 S
C839   H1013   1.111   1_455 S
H840   C925    1.111   .     S
H841   C925    1.111   .     S
O843   C844    1.415   .     S
C844   H845    1.112   .     S
C844   C933    1.523   .     S
H846   C70     1.110   1_556 S
C847   H848    1.111   .     S
C847   H849    1.111   .     S
C847   H850    1.110   .     S
C847   C1016   1.523   1_455 S
C861   O900    1.291   .     A
C861   O897    1.289   .     A
C861   C870    1.447   .     S
C862   O899    1.291   .     A
C862   O898    1.289   .     A
C862   C869    1.447   .     S
C863   H937    1.082   .     S
C863   C888    1.397   .     A
C864   C887    1.394   .     A
C864   H938    1.083   .     S
C864   C116    1.402   1_556 S
C865   H939    1.083   .     S
C865   C870    1.400   .     A
C866   C869    1.400   .     A
C866   H940    1.083   .     S
C866   C954    1.382   .     S
C867   H941    1.083   .     S
C867   C869    1.401   .     A
C867   C951    1.382   .     S
C868   H942    1.083   .     S
C868   C870    1.401   .     A
C871   N896    1.367   .     A
C871   H943    1.082   .     S
C871   C1390   1.416   1_545 S
C872   H944    1.082   .     S
C872   N895    1.367   .     A
C872   C1131   1.416   .     S
C873   N896    1.367   .     A
C873   H945    1.082   .     S
C873   C1388   1.416   1_545 S
C874   H946    1.082   .     S
C874   N895    1.367   .     A
C874   C1129   1.416   .     S
C875   O904    1.290   .     A
C875   C880    1.449   .     S
C875   O901    1.290   .     A
C876   O902    1.291   .     A
C876   O903    1.289   .     A
C876   C879    1.450   .     S
C877   H893    1.086   .     S
C877   C887    1.388   .     A
C877   C879    1.389   .     A
C878   C888    1.391   .     A
C878   H894    1.086   .     S
C878   C880    1.391   .     A
C879   C881    1.407   .     A
C880   C882    1.409   .     A
C881   O905    1.385   .     S
C881   C883    1.418   .     A
C882   O913    1.387   .     S
C882   C884    1.413   .     A
C883   C889    1.420   .     A
C883   C885    1.423   .     A
C884   C886    1.424   .     A
C884   C890    1.419   .     A
C885   C887    1.409   .     A
C885   C112    1.404   1_556 S
C886   C888    1.408   .     A
C889   O921    1.398   .     S
C889   C89     1.413   1_556 S
C890   O929    1.389   .     S
Cu891  O903    1.960   .     S
Cu891  O897    1.960   .     S
Cu891  Cu892   2.677   .     S
Cu891  O901    1.960   .     S
Cu891  N895    2.012   .     S
Cu891  O899    1.961   .     S
Cu892  O898    1.960   .     S
Cu892  O900    1.961   .     S
Cu892  O904    1.960   .     S
Cu892  N896    2.012   .     S
Cu892  O902    1.960   .     S
O905   C906    1.416   .     S
C906   C909    1.522   .     S
C906   H907    1.116   .     S
C906   H908    1.112   .     S
C909   H911    1.110   .     S
C909   H912    1.109   .     S
C909   H910    1.110   .     S
O913   C914    1.418   .     S
C914   H915    1.111   .     S
C914   H916    1.116   .     S
C914   C917    1.523   .     S
C917   H919    1.110   .     S
C917   H920    1.108   .     S
C917   H918    1.106   .     S
O921   C922    1.414   .     S
C922   H923    1.115   .     S
C922   C925    1.521   .     S
C922   H150    1.112   1_556 S
C925   H928    1.109   .     S
H926   C1011   1.111   .     S
H927   C1011   1.111   .     S
O929   C930    1.415   .     S
C930   H931    1.112   .     S
C930   C1019   1.523   .     S
H932   C156    1.110   1_556 S
C933   H934    1.111   .     S
C933   H935    1.111   .     S
C933   H936    1.110   .     S
C947   O986    1.291   .     A
C947   O983    1.289   .     A
C947   C956    1.447   .     S
C948   O985    1.291   .     A
C948   O984    1.289   .     A
C948   C955    1.447   .     S
C949   H1023   1.082   .     S
C949   C974    1.397   .     A
C950   C973    1.394   .     A
C950   H1024   1.083   .     S
C950   C202    1.402   1_556 S
C951   H1025   1.083   .     S
C951   C956    1.400   .     A
C952   C955    1.400   .     A
C952   H1026   1.083   .     S
C952   C782    1.382   1_655 S
C953   H1027   1.083   .     S
C953   C955    1.401   .     A
C953   C779    1.382   1_655 S
C954   H1028   1.083   .     S
C954   C956    1.401   .     A
C957   N982    1.367   .     A
C957   H1029   1.082   .     S
C957   C1476   1.416   1_545 S
C958   H1030   1.082   .     S
C958   N981    1.367   .     A
C958   C1217   1.416   .     S
C959   N982    1.367   .     A
C959   H1031   1.082   .     S
C959   C1474   1.416   1_545 S
C960   H1032   1.082   .     S
C960   N981    1.367   .     A
C960   C1215   1.416   .     S
C961   O990    1.290   .     A
C961   C966    1.449   .     S
C961   O987    1.290   .     A
C962   O988    1.291   .     A
C962   O989    1.289   .     A
C962   C965    1.450   .     S
C963   H979    1.086   .     S
C963   C973    1.388   .     A
C963   C965    1.389   .     A
C964   C974    1.391   .     A
C964   H980    1.086   .     S
C964   C966    1.391   .     A
C965   C967    1.407   .     A
C966   C968    1.409   .     A
C967   O991    1.385   .     S
C967   C969    1.418   .     A
C968   O999    1.387   .     S
C968   C970    1.413   .     A
C969   C975    1.420   .     A
C969   C971    1.423   .     A
C970   C972    1.424   .     A
C970   C976    1.419   .     A
C971   C973    1.409   .     A
C971   C198    1.404   1_556 S
C972   C974    1.408   .     A
C975   O1007   1.398   .     S
C975   C175    1.413   1_556 S
C976   O1015   1.389   .     S
Cu977  O989    1.960   .     S
Cu977  O983    1.960   .     S
Cu977  Cu978   2.677   .     S
Cu977  O987    1.960   .     S
Cu977  N981    2.012   .     S
Cu977  O985    1.961   .     S
Cu978  O984    1.960   .     S
Cu978  O986    1.961   .     S
Cu978  O990    1.960   .     S
Cu978  N982    2.012   .     S
Cu978  O988    1.960   .     S
O991   C992    1.416   .     S
C992   C995    1.522   .     S
C992   H993    1.116   .     S
C992   H994    1.112   .     S
C995   H997    1.110   .     S
C995   H998    1.109   .     S
C995   H996    1.110   .     S
O999   C1000   1.418   .     S
C1000  H1001   1.111   .     S
C1000  H1002   1.116   .     S
C1000  C1003   1.523   .     S
C1003  H1005   1.110   .     S
C1003  H1006   1.108   .     S
C1003  H1004   1.106   .     S
O1007  C1008   1.414   .     S
C1008  H1009   1.115   .     S
C1008  C1011   1.521   .     S
C1008  H236    1.112   1_556 S
C1011  H1014   1.109   .     S
H1012  C839    1.111   1_655 S
H1013  C839    1.111   1_655 S
O1015  C1016   1.415   .     S
C1016  H1017   1.112   .     S
C1016  C847    1.523   1_655 S
H1018  C242    1.110   1_556 S
C1019  H1020   1.111   .     S
C1019  H1021   1.111   .     S
C1019  H1022   1.110   .     S
C1033  O1072   1.291   .     A
C1033  O1069   1.289   .     A
C1033  C1042   1.447   .     S
C1034  O1071   1.291   .     A
C1034  O1070   1.289   .     A
C1034  C1041   1.447   .     S
C1035  H1109   1.082   .     S
C1035  C1060   1.397   .     A
C1036  C1059   1.394   .     A
C1036  H1110   1.083   .     S
C1036  C288    1.402   1_556 S
C1037  H1111   1.083   .     S
C1037  C1042   1.400   .     A
C1037  C1211   1.382   1_455 S
C1038  C1041   1.400   .     A
C1038  H1112   1.083   .     S
C1038  C1126   1.382   .     S
C1039  H1113   1.083   .     S
C1039  C1041   1.401   .     A
C1039  C1123   1.382   .     S
C1040  H1114   1.083   .     S
C1040  C1042   1.401   .     A
C1040  C1210   1.382   1_455 S
C1043  N1068   1.367   .     A
C1043  H1115   1.082   .     S
C1044  H1116   1.082   .     S
C1044  N1067   1.367   .     A
C1044  C1303   1.416   .     S
C1045  N1068   1.367   .     A
C1045  H1117   1.082   .     S
C1046  H1118   1.082   .     S
C1046  N1067   1.367   .     A
C1046  C1301   1.416   .     S
C1047  O1076   1.290   .     A
C1047  C1052   1.449   .     S
C1047  O1073   1.290   .     A
C1048  O1074   1.291   .     A
C1048  O1075   1.289   .     A
C1048  C1051   1.450   .     S
C1049  H1065   1.086   .     S
C1049  C1059   1.388   .     A
C1049  C1051   1.389   .     A
C1050  C1060   1.391   .     A
C1050  H1066   1.086   .     S
C1050  C1052   1.391   .     A
C1051  C1053   1.407   .     A
C1052  C1054   1.409   .     A
C1053  O1077   1.385   .     S
C1053  C1055   1.418   .     A
C1054  O1085   1.387   .     S
C1054  C1056   1.413   .     A
C1055  C1061   1.420   .     A
C1055  C1057   1.423   .     A
C1056  C1058   1.424   .     A
C1056  C1062   1.419   .     A
C1057  C1059   1.409   .     A
C1057  C284    1.404   1_556 S
C1058  C1060   1.408   .     A
C1061  O1093   1.398   .     S
C1061  C261    1.413   1_556 S
C1062  O1101   1.389   .     S
Cu1063 O1075   1.960   .     S
Cu1063 O1069   1.960   .     S
Cu1063 Cu1064  2.677   .     S
Cu1063 O1073   1.960   .     S
Cu1063 N1067   2.012   .     S
Cu1063 O1071   1.961   .     S
Cu1064 O1070   1.960   .     S
Cu1064 O1072   1.961   .     S
Cu1064 O1076   1.960   .     S
Cu1064 N1068   2.012   .     S
Cu1064 O1074   1.960   .     S
O1077  C1078   1.416   .     S
C1078  C1081   1.522   .     S
C1078  H1079   1.116   .     S
C1078  H1080   1.112   .     S
C1081  H1083   1.110   .     S
C1081  H1084   1.109   .     S
C1081  H1082   1.110   .     S
O1085  C1086   1.418   .     S
C1086  H1087   1.111   .     S
C1086  H1088   1.116   .     S
C1086  C1089   1.523   .     S
C1089  H1091   1.110   .     S
C1089  H1092   1.108   .     S
C1089  H1090   1.106   .     S
O1093  C1094   1.414   .     S
C1094  H1095   1.115   .     S
C1094  C1097   1.521   .     S
C1094  H322    1.112   1_556 S
C1097  H1100   1.109   .     S
C1097  H1270   1.111   1_455 S
C1097  H1271   1.111   1_455 S
H1098  C1183   1.111   .     S
H1099  C1183   1.111   .     S
O1101  C1102   1.415   .     S
C1102  H1103   1.112   .     S
C1102  C1191   1.523   .     S
H1104  C328    1.110   1_556 S
C1105  H1106   1.111   .     S
C1105  H1107   1.111   .     S
C1105  H1108   1.110   .     S
C1105  C1274   1.523   1_455 S
C1119  O1158   1.291   .     A
C1119  O1155   1.289   .     A
C1119  C1128   1.447   .     S
C1120  O1157   1.291   .     A
C1120  O1156   1.289   .     A
C1120  C1127   1.447   .     S
C1121  H1195   1.082   .     S
C1121  C1146   1.397   .     A
C1122  C1145   1.394   .     A
C1122  H1196   1.083   .     S
C1122  C374    1.402   1_556 S
C1123  H1197   1.083   .     S
C1123  C1128   1.400   .     A
C1124  C1127   1.400   .     A
C1124  H1198   1.083   .     S
C1124  C1212   1.382   .     S
C1125  H1199   1.083   .     S
C1125  C1127   1.401   .     A
C1125  C1209   1.382   .     S
C1126  H1200   1.083   .     S
C1126  C1128   1.401   .     A
C1129  N1154   1.367   .     A
C1129  H1201   1.082   .     S
C1130  H1202   1.082   .     S
C1130  N1153   1.367   .     A
C1130  C1389   1.416   .     S
C1131  N1154   1.367   .     A
C1131  H1203   1.082   .     S
C1132  H1204   1.082   .     S
C1132  N1153   1.367   .     A
C1132  C1387   1.416   .     S
C1133  O1162   1.290   .     A
C1133  C1138   1.449   .     S
C1133  O1159   1.290   .     A
C1134  O1160   1.291   .     A
C1134  O1161   1.289   .     A
C1134  C1137   1.450   .     S
C1135  H1151   1.086   .     S
C1135  C1145   1.388   .     A
C1135  C1137   1.389   .     A
C1136  C1146   1.391   .     A
C1136  H1152   1.086   .     S
C1136  C1138   1.391   .     A
C1137  C1139   1.407   .     A
C1138  C1140   1.409   .     A
C1139  O1163   1.385   .     S
C1139  C1141   1.418   .     A
C1140  O1171   1.387   .     S
C1140  C1142   1.413   .     A
C1141  C1147   1.420   .     A
C1141  C1143   1.423   .     A
C1142  C1144   1.424   .     A
C1142  C1148   1.419   .     A
C1143  C1145   1.409   .     A
C1143  C370    1.404   1_556 S
C1144  C1146   1.408   .     A
C1147  O1179   1.398   .     S
C1147  C347    1.413   1_556 S
C1148  O1187   1.389   .     S
Cu1149 O1161   1.960   .     S
Cu1149 O1155   1.960   .     S
Cu1149 Cu1150  2.677   .     S
Cu1149 O1159   1.960   .     S
Cu1149 N1153   2.012   .     S
Cu1149 O1157   1.961   .     S
Cu1150 O1156   1.960   .     S
Cu1150 O1158   1.961   .     S
Cu1150 O1162   1.960   .     S
Cu1150 N1154   2.012   .     S
Cu1150 O1160   1.960   .     S
O1163  C1164   1.416   .     S
C1164  C1167   1.522   .     S
C1164  H1165   1.116   .     S
C1164  H1166   1.112   .     S
C1167  H1169   1.110   .     S
C1167  H1170   1.109   .     S
C1167  H1168   1.110   .     S
O1171  C1172   1.418   .     S
C1172  H1173   1.111   .     S
C1172  H1174   1.116   .     S
C1172  C1175   1.523   .     S
C1175  H1177   1.110   .     S
C1175  H1178   1.108   .     S
C1175  H1176   1.106   .     S
O1179  C1180   1.414   .     S
C1180  H1181   1.115   .     S
C1180  C1183   1.521   .     S
C1180  H408    1.112   1_556 S
C1183  H1186   1.109   .     S
H1184  C1269   1.111   .     S
H1185  C1269   1.111   .     S
O1187  C1188   1.415   .     S
C1188  H1189   1.112   .     S
C1188  C1277   1.523   .     S
H1190  C414    1.110   1_556 S
C1191  H1192   1.111   .     S
C1191  H1193   1.111   .     S
C1191  H1194   1.110   .     S
C1205  O1244   1.291   .     A
C1205  O1241   1.289   .     A
C1205  C1214   1.447   .     S
C1206  O1243   1.291   .     A
C1206  O1242   1.289   .     A
C1206  C1213   1.447   .     S
C1207  H1281   1.082   .     S
C1207  C1232   1.397   .     A
C1208  C1231   1.394   .     A
C1208  H1282   1.083   .     S
C1208  C460    1.402   1_556 S
C1209  H1283   1.083   .     S
C1209  C1214   1.400   .     A
C1210  C1213   1.400   .     A
C1210  H1284   1.083   .     S
C1210  C1040   1.382   1_655 S
C1211  H1285   1.083   .     S
C1211  C1213   1.401   .     A
C1211  C1037   1.382   1_655 S
C1212  H1286   1.083   .     S
C1212  C1214   1.401   .     A
C1215  N1240   1.367   .     A
C1215  H1287   1.082   .     S
C1216  H1288   1.082   .     S
C1216  N1239   1.367   .     A
C1216  C1475   1.416   .     S
C1217  N1240   1.367   .     A
C1217  H1289   1.082   .     S
C1218  H1290   1.082   .     S
C1218  N1239   1.367   .     A
C1218  C1473   1.416   .     S
C1219  O1248   1.290   .     A
C1219  C1224   1.449   .     S
C1219  O1245   1.290   .     A
C1220  O1246   1.291   .     A
C1220  O1247   1.289   .     A
C1220  C1223   1.450   .     S
C1221  H1237   1.086   .     S
C1221  C1231   1.388   .     A
C1221  C1223   1.389   .     A
C1222  C1232   1.391   .     A
C1222  H1238   1.086   .     S
C1222  C1224   1.391   .     A
C1223  C1225   1.407   .     A
C1224  C1226   1.409   .     A
C1225  O1249   1.385   .     S
C1225  C1227   1.418   .     A
C1226  O1257   1.387   .     S
C1226  C1228   1.413   .     A
C1227  C1233   1.420   .     A
C1227  C1229   1.423   .     A
C1228  C1230   1.424   .     A
C1228  C1234   1.419   .     A
C1229  C1231   1.409   .     A
C1229  C456    1.404   1_556 S
C1230  C1232   1.408   .     A
C1233  O1265   1.398   .     S
C1233  C433    1.413   1_556 S
C1234  O1273   1.389   .     S
Cu1235 O1247   1.960   .     S
Cu1235 O1241   1.960   .     S
Cu1235 Cu1236  2.677   .     S
Cu1235 O1245   1.960   .     S
Cu1235 N1239   2.012   .     S
Cu1235 O1243   1.961   .     S
Cu1236 O1242   1.960   .     S
Cu1236 O1244   1.961   .     S
Cu1236 O1248   1.960   .     S
Cu1236 N1240   2.012   .     S
Cu1236 O1246   1.960   .     S
O1249  C1250   1.416   .     S
C1250  C1253   1.522   .     S
C1250  H1251   1.116   .     S
C1250  H1252   1.112   .     S
C1253  H1255   1.110   .     S
C1253  H1256   1.109   .     S
C1253  H1254   1.110   .     S
O1257  C1258   1.418   .     S
C1258  H1259   1.111   .     S
C1258  H1260   1.116   .     S
C1258  C1261   1.523   .     S
C1261  H1263   1.110   .     S
C1261  H1264   1.108   .     S
C1261  H1262   1.106   .     S
O1265  C1266   1.414   .     S
C1266  H1267   1.115   .     S
C1266  C1269   1.521   .     S
C1266  H494    1.112   1_556 S
C1269  H1272   1.109   .     S
H1270  C1097   1.111   1_655 S
H1271  C1097   1.111   1_655 S
O1273  C1274   1.415   .     S
C1274  H1275   1.112   .     S
C1274  C1105   1.523   1_655 S
H1276  C500    1.110   1_556 S
C1277  H1278   1.111   .     S
C1277  H1279   1.111   .     S
C1277  H1280   1.110   .     S
C1291  O1330   1.291   .     A
C1291  O1327   1.289   .     A
C1291  C1300   1.447   .     S
C1292  O1329   1.291   .     A
C1292  O1328   1.289   .     A
C1292  C1299   1.447   .     S
C1293  H1367   1.082   .     S
C1293  C1318   1.397   .     A
C1294  C1317   1.394   .     A
C1294  H1368   1.083   .     S
C1294  C546    1.402   1_556 S
C1295  H1369   1.083   .     S
C1295  C1300   1.400   .     A
C1295  C1469   1.382   1_455 S
C1296  C1299   1.400   .     A
C1296  H1370   1.083   .     S
C1296  C1384   1.382   .     S
C1297  H1371   1.083   .     S
C1297  C1299   1.401   .     A
C1297  C1381   1.382   .     S
C1298  H1372   1.083   .     S
C1298  C1300   1.401   .     A
C1298  C1468   1.382   1_455 S
C1301  N1326   1.367   .     A
C1301  H1373   1.082   .     S
C1302  H1374   1.082   .     S
C1302  N1325   1.367   .     A
C1302  C787    1.416   1_565 S
C1303  N1326   1.367   .     A
C1303  H1375   1.082   .     S
C1304  H1376   1.082   .     S
C1304  N1325   1.367   .     A
C1304  C785    1.416   1_565 S
C1305  O1334   1.290   .     A
C1305  C1310   1.449   .     S
C1305  O1331   1.290   .     A
C1306  O1332   1.291   .     A
C1306  O1333   1.289   .     A
C1306  C1309   1.450   .     S
C1307  H1323   1.086   .     S
C1307  C1317   1.388   .     A
C1307  C1309   1.389   .     A
C1308  C1318   1.391   .     A
C1308  H1324   1.086   .     S
C1308  C1310   1.391   .     A
C1309  C1311   1.407   .     A
C1310  C1312   1.409   .     A
C1311  O1335   1.385   .     S
C1311  C1313   1.418   .     A
C1312  O1343   1.387   .     S
C1312  C1314   1.413   .     A
C1313  C1319   1.420   .     A
C1313  C1315   1.423   .     A
C1314  C1316   1.424   .     A
C1314  C1320   1.419   .     A
C1315  C1317   1.409   .     A
C1315  C542    1.404   1_556 S
C1316  C1318   1.408   .     A
C1319  O1351   1.398   .     S
C1319  C519    1.413   1_556 S
C1320  O1359   1.389   .     S
Cu1321 O1333   1.960   .     S
Cu1321 O1327   1.960   .     S
Cu1321 Cu1322  2.677   .     S
Cu1321 O1331   1.960   .     S
Cu1321 N1325   2.012   .     S
Cu1321 O1329   1.961   .     S
Cu1322 O1328   1.960   .     S
Cu1322 O1330   1.961   .     S
Cu1322 O1334   1.960   .     S
Cu1322 N1326   2.012   .     S
Cu1322 O1332   1.960   .     S
O1335  C1336   1.416   .     S
C1336  C1339   1.522   .     S
C1336  H1337   1.116   .     S
C1336  H1338   1.112   .     S
C1339  H1341   1.110   .     S
C1339  H1342   1.109   .     S
C1339  H1340   1.110   .     S
O1343  C1344   1.418   .     S
C1344  H1345   1.111   .     S
C1344  H1346   1.116   .     S
C1344  C1347   1.523   .     S
C1347  H1349   1.110   .     S
C1347  H1350   1.108   .     S
C1347  H1348   1.106   .     S
O1351  C1352   1.414   .     S
C1352  H1353   1.115   .     S
C1352  C1355   1.521   .     S
C1352  H580    1.112   1_556 S
C1355  H1358   1.109   .     S
C1355  H1528   1.111   1_455 S
C1355  H1529   1.111   1_455 S
H1356  C1441   1.111   .     S
H1357  C1441   1.111   .     S
O1359  C1360   1.415   .     S
C1360  H1361   1.112   .     S
C1360  C1449   1.523   .     S
H1362  C586    1.110   1_556 S
C1363  H1364   1.111   .     S
C1363  H1365   1.111   .     S
C1363  H1366   1.110   .     S
C1363  C1532   1.523   1_455 S
C1377  O1416   1.291   .     A
C1377  O1413   1.289   .     A
C1377  C1386   1.447   .     S
C1378  O1415   1.291   .     A
C1378  O1414   1.289   .     A
C1378  C1385   1.447   .     S
C1379  H1453   1.082   .     S
C1379  C1404   1.397   .     A
C1380  C1403   1.394   .     A
C1380  H1454   1.083   .     S
C1380  C632    1.402   1_556 S
C1381  H1455   1.083   .     S
C1381  C1386   1.400   .     A
C1382  C1385   1.400   .     A
C1382  H1456   1.083   .     S
C1382  C1470   1.382   .     S
C1383  H1457   1.083   .     S
C1383  C1385   1.401   .     A
C1383  C1467   1.382   .     S
C1384  H1458   1.083   .     S
C1384  C1386   1.401   .     A
C1387  N1412   1.367   .     A
C1387  H1459   1.082   .     S
C1388  H1460   1.082   .     S
C1388  N1411   1.367   .     A
C1388  C873    1.416   1_565 S
C1389  N1412   1.367   .     A
C1389  H1461   1.082   .     S
C1390  H1462   1.082   .     S
C1390  N1411   1.367   .     A
C1390  C871    1.416   1_565 S
C1391  O1420   1.290   .     A
C1391  C1396   1.449   .     S
C1391  O1417   1.290   .     A
C1392  O1418   1.291   .     A
C1392  O1419   1.289   .     A
C1392  C1395   1.450   .     S
C1393  H1409   1.086   .     S
C1393  C1403   1.388   .     A
C1393  C1395   1.389   .     A
C1394  C1404   1.391   .     A
C1394  H1410   1.086   .     S
C1394  C1396   1.391   .     A
C1395  C1397   1.407   .     A
C1396  C1398   1.409   .     A
C1397  O1421   1.385   .     S
C1397  C1399   1.418   .     A
C1398  O1429   1.387   .     S
C1398  C1400   1.413   .     A
C1399  C1405   1.420   .     A
C1399  C1401   1.423   .     A
C1400  C1402   1.424   .     A
C1400  C1406   1.419   .     A
C1401  C1403   1.409   .     A
C1401  C628    1.404   1_556 S
C1402  C1404   1.408   .     A
C1405  O1437   1.398   .     S
C1405  C605    1.413   1_556 S
C1406  O1445   1.389   .     S
Cu1407 O1419   1.960   .     S
Cu1407 O1413   1.960   .     S
Cu1407 Cu1408  2.677   .     S
Cu1407 O1417   1.960   .     S
Cu1407 N1411   2.012   .     S
Cu1407 O1415   1.961   .     S
Cu1408 O1414   1.960   .     S
Cu1408 O1416   1.961   .     S
Cu1408 O1420   1.960   .     S
Cu1408 N1412   2.012   .     S
Cu1408 O1418   1.960   .     S
O1421  C1422   1.416   .     S
C1422  C1425   1.522   .     S
C1422  H1423   1.116   .     S
C1422  H1424   1.112   .     S
C1425  H1427   1.110   .     S
C1425  H1428   1.109   .     S
C1425  H1426   1.110   .     S
O1429  C1430   1.418   .     S
C1430  H1431   1.111   .     S
C1430  H1432   1.116   .     S
C1430  C1433   1.523   .     S
C1433  H1435   1.110   .     S
C1433  H1436   1.108   .     S
C1433  H1434   1.106   .     S
O1437  C1438   1.414   .     S
C1438  H1439   1.115   .     S
C1438  C1441   1.521   .     S
C1438  H666    1.112   1_556 S
C1441  H1444   1.109   .     S
H1442  C1527   1.111   .     S
H1443  C1527   1.111   .     S
O1445  C1446   1.415   .     S
C1446  H1447   1.112   .     S
C1446  C1535   1.523   .     S
H1448  C672    1.110   1_556 S
C1449  H1450   1.111   .     S
C1449  H1451   1.111   .     S
C1449  H1452   1.110   .     S
C1463  O1502   1.291   .     A
C1463  O1499   1.289   .     A
C1463  C1472   1.447   .     S
C1464  O1501   1.291   .     A
C1464  O1500   1.289   .     A
C1464  C1471   1.447   .     S
C1465  H1539   1.082   .     S
C1465  C1490   1.397   .     A
C1466  C1489   1.394   .     A
C1466  H1540   1.083   .     S
C1466  C718    1.402   1_556 S
C1467  H1541   1.083   .     S
C1467  C1472   1.400   .     A
C1468  C1471   1.400   .     A
C1468  H1542   1.083   .     S
C1468  C1298   1.382   1_655 S
C1469  H1543   1.083   .     S
C1469  C1471   1.401   .     A
C1469  C1295   1.382   1_655 S
C1470  H1544   1.083   .     S
C1470  C1472   1.401   .     A
C1473  N1498   1.367   .     A
C1473  H1545   1.082   .     S
C1474  H1546   1.082   .     S
C1474  N1497   1.367   .     A
C1474  C959    1.416   1_565 S
C1475  N1498   1.367   .     A
C1475  H1547   1.082   .     S
C1476  H1548   1.082   .     S
C1476  N1497   1.367   .     A
C1476  C957    1.416   1_565 S
C1477  O1506   1.290   .     A
C1477  C1482   1.449   .     S
C1477  O1503   1.290   .     A
C1478  O1504   1.291   .     A
C1478  O1505   1.289   .     A
C1478  C1481   1.450   .     S
C1479  H1495   1.086   .     S
C1479  C1489   1.388   .     A
C1479  C1481   1.389   .     A
C1480  C1490   1.391   .     A
C1480  H1496   1.086   .     S
C1480  C1482   1.391   .     A
C1481  C1483   1.407   .     A
C1482  C1484   1.409   .     A
C1483  O1507   1.385   .     S
C1483  C1485   1.418   .     A
C1484  O1515   1.387   .     S
C1484  C1486   1.413   .     A
C1485  C1491   1.420   .     A
C1485  C1487   1.423   .     A
C1486  C1488   1.424   .     A
C1486  C1492   1.419   .     A
C1487  C1489   1.409   .     A
C1487  C714    1.404   1_556 S
C1488  C1490   1.408   .     A
C1491  O1523   1.398   .     S
C1491  C691    1.413   1_556 S
C1492  O1531   1.389   .     S
Cu1493 O1505   1.960   .     S
Cu1493 O1499   1.960   .     S
Cu1493 Cu1494  2.677   .     S
Cu1493 O1503   1.960   .     S
Cu1493 N1497   2.012   .     S
Cu1493 O1501   1.961   .     S
Cu1494 O1500   1.960   .     S
Cu1494 O1502   1.961   .     S
Cu1494 O1506   1.960   .     S
Cu1494 N1498   2.012   .     S
Cu1494 O1504   1.960   .     S
O1507  C1508   1.416   .     S
C1508  C1511   1.522   .     S
C1508  H1509   1.116   .     S
C1508  H1510   1.112   .     S
C1511  H1513   1.110   .     S
C1511  H1514   1.109   .     S
C1511  H1512   1.110   .     S
O1515  C1516   1.418   .     S
C1516  H1517   1.111   .     S
C1516  H1518   1.116   .     S
C1516  C1519   1.523   .     S
C1519  H1521   1.110   .     S
C1519  H1522   1.108   .     S
C1519  H1520   1.106   .     S
O1523  C1524   1.414   .     S
C1524  H1525   1.115   .     S
C1524  C1527   1.521   .     S
C1524  H752    1.112   1_556 S
C1527  H1530   1.109   .     S
H1528  C1355   1.111   1_655 S
H1529  C1355   1.111   1_655 S
O1531  C1532   1.415   .     S
C1532  H1533   1.112   .     S
C1532  C1363   1.523   1_655 S
H1534  C758    1.110   1_556 S
C1535  H1536   1.111   .     S
C1535  H1537   1.111   .     S
C1535  H1538   1.110   .     S
