data_str_m2_o2_o10_pcu_sym.54
_audit_creation_date              2020-01-03
_audit_creation_method            'Materials Studio'
_symmetry_space_group_name_H-M    'P1'
_symmetry_Int_Tables_number       1
_symmetry_cell_setting            triclinic
loop_
_symmetry_equiv_pos_as_xyz
  x,y,z
_cell_length_a                    26.1608
_cell_length_b                    30.2864
_cell_length_c                    27.8261
_cell_angle_alpha                 90.5254
_cell_angle_beta                  98.4974
_cell_angle_gamma                 90.5705
loop_
_atom_site_label
_atom_site_type_symbol
_atom_site_fract_x
_atom_site_fract_y
_atom_site_fract_z
_atom_site_U_iso_or_equiv
_atom_site_adp_type
_atom_site_occupancy
C1     C     0.16710   0.16494   0.24994   0.00000  Uiso   1.00
C2     C     0.18992   0.28557   0.44955   0.00000  Uiso   1.00
C3     C     0.16643   0.25093   0.02711   0.00000  Uiso   1.00
C4     C     0.16682   0.25085   0.47260   0.00000  Uiso   1.00
C5     C     0.06787   0.24995   0.23745   0.00000  Uiso   1.00
C6     C     0.26546   0.25008   0.26255   0.00000  Uiso   1.00
C7     C     0.01245   0.24989   0.23064   0.00000  Uiso   1.00
C8     C     0.32089   0.25015   0.26936   0.00000  Uiso   1.00
C9     C     0.18029   0.04827   0.29473   0.00000  Uiso   1.00
C10    C     0.18921   0.45186   0.21443   0.00000  Uiso   1.00
C11    C     0.17914   0.09415   0.29434   0.00000  Uiso   1.00
C12    C     0.16703   0.33498   0.25025   0.00000  Uiso   1.00
C13    C     0.18787   0.40599   0.21392   0.00000  Uiso   1.00
C14    C     0.16838   0.11662   0.25018   0.00000  Uiso   1.00
C15    C     0.16818   0.38313   0.25084   0.00000  Uiso   1.00
C16    C     0.15895   0.09256   0.20650   0.00000  Uiso   1.00
C17    C     0.14979   0.40656   0.28829   0.00000  Uiso   1.00
C18    C     0.15911   0.04669   0.20691   0.00000  Uiso   1.00
C19    C     0.15021   0.45248   0.28832   0.00000  Uiso   1.00
C20    C     0.16989   0.02412   0.25103   0.00000  Uiso   1.00
C21    C     0.16995   0.47553   0.25138   0.00000  Uiso   1.00
C22    C     0.07890   0.16562   0.10844   0.00000  Uiso   1.00
C23    C     0.20991   0.26491   0.06008   0.00000  Uiso   1.00
C24    C     0.27825   0.30874   0.39018   0.00000  Uiso   1.00
C25    C     0.04776   0.26264   0.00500   0.00000  Uiso   1.00
C26    C     0.17288   0.35276   0.47960   0.00000  Uiso   1.00
C27    C     0.14351   0.21614   0.44264   0.00000  Uiso   1.00
C28    C     0.20861   0.26560   0.11053   0.00000  Uiso   1.00
C29    C     0.14245   0.21704   0.39194   0.00000  Uiso   1.00
C30    C     0.12474   0.23389   0.09811   0.00000  Uiso   1.00
C31    C     0.19264   0.28279   0.39907   0.00000  Uiso   1.00
C32    C     0.12239   0.23721   0.04704   0.00000  Uiso   1.00
Cu33   Cu    0.16667   0.25000   0.29821   0.00000  Uiso   1.00
Cu34   Cu    0.16667   0.25001   0.20178   0.00000  Uiso   1.00
H35    H     0.32543   0.24959   0.19363   0.00000  Uiso   1.00
H36    H     0.13429   0.46986   0.31678   0.00000  Uiso   1.00
H37    H     0.24512   0.27526   0.04714   0.00000  Uiso   1.00
H38    H     0.12613   0.18815   0.45818   0.00000  Uiso   1.00
H39    H     0.24199   0.27802   0.13454   0.00000  Uiso   1.00
H40    H     0.12299   0.19065   0.36974   0.00000  Uiso   1.00
H41    H     0.04841   0.22864   0.10832   0.00000  Uiso   1.00
H42    H     0.05317   0.15832   0.07375   0.00000  Uiso   1.00
H43    H     0.06202   0.15016   0.13861   0.00000  Uiso   1.00
H44    H     0.11730   0.15086   0.10668   0.00000  Uiso   1.00
H45    H     0.21199   0.34634   0.38252   0.00000  Uiso   1.00
H46    H     0.00793   0.25043   0.30637   0.00000  Uiso   1.00
H47    H     0.29142   0.31916   0.42841   0.00000  Uiso   1.00
H48    H     0.29838   0.32951   0.36598   0.00000  Uiso   1.00
H49    H     0.28913   0.27377   0.38542   0.00000  Uiso   1.00
H50    H     0.06733   0.28521   0.48201   0.00000  Uiso   1.00
H51    H     0.03897   0.28051   0.03790   0.00000  Uiso   1.00
H52    H     0.01037   0.25226   0.48351   0.00000  Uiso   1.00
H53    H     0.14395   0.33989   0.00165   0.00000  Uiso   1.00
H54    H     0.15334   0.36293   0.44316   0.00000  Uiso   1.00
H55    H     0.19097   0.38272   0.49838   0.00000  Uiso   1.00
H56    H     0.18977   0.03176   0.32920   0.00000  Uiso   1.00
H57    H     0.20570   0.46875   0.18611   0.00000  Uiso   1.00
H58    H     0.18719   0.11198   0.32859   0.00000  Uiso   1.00
H59    H     0.20288   0.38840   0.18503   0.00000  Uiso   1.00
H60    H     0.15092   0.10906   0.17206   0.00000  Uiso   1.00
H61    H     0.13419   0.38941   0.31699   0.00000  Uiso   1.00
H62    H     0.15012   0.02894   0.17270   0.00000  Uiso   1.00
N63    N     0.16667   0.25001   0.12934   0.00000  Uiso   1.00
N64    N     0.16667   0.24999   0.37065   0.00000  Uiso   1.00
N65    N     0.08328   0.21283   0.11678   0.00000  Uiso   1.00
N66    N     0.22295   0.31417   0.37779   0.00000  Uiso   1.00
O67    O     0.16667   0.18573   0.29071   0.00000  Uiso   1.00
O68    O     0.21190   0.32163   0.47598   0.00000  Uiso   1.00
O69    O     0.16666   0.31428   0.20928   0.00000  Uiso   1.00
O70    O     0.16667   0.18573   0.20928   0.00000  Uiso   1.00
O71    O     0.16666   0.31427   0.29072   0.00000  Uiso   1.00
O72    O     0.09161   0.25000   0.28132   0.00000  Uiso   1.00
O73    O     0.24172   0.25001   0.21868   0.00000  Uiso   1.00
O74    O     0.09161   0.25000   0.19988   0.00000  Uiso   1.00
O75    O     0.24172   0.25000   0.30011   0.00000  Uiso   1.00
O76    O     0.07741   0.22465   0.01725   0.00000  Uiso   1.00
C77    C     0.50043   0.16494   0.24994   0.00000  Uiso   1.00
C78    C     0.52325   0.28557   0.44955   0.00000  Uiso   1.00
C79    C     0.49976   0.25093   0.02711   0.00000  Uiso   1.00
C80    C     0.50015   0.25085   0.47260   0.00000  Uiso   1.00
C81    C     0.40121   0.24995   0.23745   0.00000  Uiso   1.00
C82    C     0.59880   0.25008   0.26255   0.00000  Uiso   1.00
C83    C     0.34578   0.24989   0.23064   0.00000  Uiso   1.00
C84    C     0.65422   0.25015   0.26936   0.00000  Uiso   1.00
C85    C     0.51363   0.04827   0.29473   0.00000  Uiso   1.00
C86    C     0.52255   0.45186   0.21443   0.00000  Uiso   1.00
C87    C     0.51248   0.09415   0.29434   0.00000  Uiso   1.00
C88    C     0.50036   0.33498   0.25025   0.00000  Uiso   1.00
C89    C     0.52120   0.40599   0.21392   0.00000  Uiso   1.00
C90    C     0.50171   0.11662   0.25018   0.00000  Uiso   1.00
C91    C     0.50151   0.38313   0.25084   0.00000  Uiso   1.00
C92    C     0.49228   0.09256   0.20650   0.00000  Uiso   1.00
C93    C     0.48312   0.40656   0.28829   0.00000  Uiso   1.00
C94    C     0.49244   0.04669   0.20691   0.00000  Uiso   1.00
C95    C     0.48354   0.45248   0.28832   0.00000  Uiso   1.00
C96    C     0.50322   0.02412   0.25103   0.00000  Uiso   1.00
C97    C     0.50328   0.47553   0.25138   0.00000  Uiso   1.00
C98    C     0.41223   0.16562   0.10844   0.00000  Uiso   1.00
C99    C     0.54324   0.26491   0.06008   0.00000  Uiso   1.00
C100   C     0.61159   0.30874   0.39018   0.00000  Uiso   1.00
C101   C     0.38109   0.26264   0.00500   0.00000  Uiso   1.00
C102   C     0.50621   0.35276   0.47960   0.00000  Uiso   1.00
C103   C     0.47685   0.21614   0.44264   0.00000  Uiso   1.00
C104   C     0.54194   0.26560   0.11053   0.00000  Uiso   1.00
C105   C     0.47578   0.21704   0.39194   0.00000  Uiso   1.00
C106   C     0.45807   0.23389   0.09811   0.00000  Uiso   1.00
C107   C     0.52597   0.28279   0.39907   0.00000  Uiso   1.00
C108   C     0.45573   0.23721   0.04704   0.00000  Uiso   1.00
Cu109  Cu    0.50000   0.25000   0.29821   0.00000  Uiso   1.00
Cu110  Cu    0.50000   0.25001   0.20178   0.00000  Uiso   1.00
H111   H     0.65877   0.24959   0.19363   0.00000  Uiso   1.00
H112   H     0.46762   0.46986   0.31678   0.00000  Uiso   1.00
H113   H     0.57845   0.27526   0.04714   0.00000  Uiso   1.00
H114   H     0.45946   0.18815   0.45818   0.00000  Uiso   1.00
H115   H     0.57532   0.27802   0.13454   0.00000  Uiso   1.00
H116   H     0.45632   0.19065   0.36974   0.00000  Uiso   1.00
H117   H     0.38175   0.22864   0.10832   0.00000  Uiso   1.00
H118   H     0.38651   0.15832   0.07375   0.00000  Uiso   1.00
H119   H     0.39535   0.15016   0.13861   0.00000  Uiso   1.00
H120   H     0.45063   0.15086   0.10668   0.00000  Uiso   1.00
H121   H     0.54532   0.34634   0.38252   0.00000  Uiso   1.00
H122   H     0.34126   0.25043   0.30637   0.00000  Uiso   1.00
H123   H     0.62475   0.31916   0.42841   0.00000  Uiso   1.00
H124   H     0.63171   0.32951   0.36598   0.00000  Uiso   1.00
H125   H     0.62247   0.27377   0.38542   0.00000  Uiso   1.00
H126   H     0.40067   0.28521   0.48201   0.00000  Uiso   1.00
H127   H     0.37230   0.28051   0.03790   0.00000  Uiso   1.00
H128   H     0.34370   0.25226   0.48351   0.00000  Uiso   1.00
H129   H     0.47728   0.33989   0.00165   0.00000  Uiso   1.00
H130   H     0.48668   0.36293   0.44316   0.00000  Uiso   1.00
H131   H     0.52430   0.38272   0.49838   0.00000  Uiso   1.00
H132   H     0.52310   0.03176   0.32920   0.00000  Uiso   1.00
H133   H     0.53903   0.46875   0.18611   0.00000  Uiso   1.00
H134   H     0.52052   0.11198   0.32859   0.00000  Uiso   1.00
H135   H     0.53622   0.38840   0.18503   0.00000  Uiso   1.00
H136   H     0.48426   0.10906   0.17206   0.00000  Uiso   1.00
H137   H     0.46752   0.38941   0.31699   0.00000  Uiso   1.00
H138   H     0.48346   0.02894   0.17270   0.00000  Uiso   1.00
N139   N     0.50000   0.25001   0.12934   0.00000  Uiso   1.00
N140   N     0.50000   0.24999   0.37065   0.00000  Uiso   1.00
N141   N     0.41662   0.21283   0.11678   0.00000  Uiso   1.00
N142   N     0.55629   0.31417   0.37779   0.00000  Uiso   1.00
O143   O     0.50000   0.18573   0.29071   0.00000  Uiso   1.00
O144   O     0.54523   0.32163   0.47598   0.00000  Uiso   1.00
O145   O     0.50000   0.31428   0.20928   0.00000  Uiso   1.00
O146   O     0.50000   0.18573   0.20928   0.00000  Uiso   1.00
O147   O     0.50000   0.31427   0.29072   0.00000  Uiso   1.00
O148   O     0.42495   0.25000   0.28132   0.00000  Uiso   1.00
O149   O     0.57505   0.25001   0.21868   0.00000  Uiso   1.00
O150   O     0.42495   0.25000   0.19988   0.00000  Uiso   1.00
O151   O     0.57505   0.25000   0.30011   0.00000  Uiso   1.00
O152   O     0.41075   0.22465   0.01725   0.00000  Uiso   1.00
C153   C     0.83376   0.16494   0.24994   0.00000  Uiso   1.00
C154   C     0.85659   0.28557   0.44955   0.00000  Uiso   1.00
C155   C     0.83310   0.25093   0.02711   0.00000  Uiso   1.00
C156   C     0.83349   0.25085   0.47260   0.00000  Uiso   1.00
C157   C     0.73454   0.24995   0.23745   0.00000  Uiso   1.00
C158   C     0.93213   0.25008   0.26255   0.00000  Uiso   1.00
C159   C     0.67912   0.24989   0.23064   0.00000  Uiso   1.00
C160   C     0.98756   0.25015   0.26936   0.00000  Uiso   1.00
C161   C     0.84696   0.04827   0.29473   0.00000  Uiso   1.00
C162   C     0.85588   0.45186   0.21443   0.00000  Uiso   1.00
C163   C     0.84581   0.09415   0.29434   0.00000  Uiso   1.00
C164   C     0.83369   0.33498   0.25025   0.00000  Uiso   1.00
C165   C     0.85454   0.40599   0.21392   0.00000  Uiso   1.00
C166   C     0.83505   0.11662   0.25018   0.00000  Uiso   1.00
C167   C     0.83484   0.38313   0.25084   0.00000  Uiso   1.00
C168   C     0.82561   0.09256   0.20650   0.00000  Uiso   1.00
C169   C     0.81646   0.40656   0.28829   0.00000  Uiso   1.00
C170   C     0.82578   0.04669   0.20691   0.00000  Uiso   1.00
C171   C     0.81687   0.45248   0.28832   0.00000  Uiso   1.00
C172   C     0.83655   0.02412   0.25103   0.00000  Uiso   1.00
C173   C     0.83662   0.47553   0.25138   0.00000  Uiso   1.00
C174   C     0.74557   0.16562   0.10844   0.00000  Uiso   1.00
C175   C     0.87658   0.26491   0.06008   0.00000  Uiso   1.00
C176   C     0.94492   0.30874   0.39018   0.00000  Uiso   1.00
C177   C     0.71442   0.26264   0.00500   0.00000  Uiso   1.00
C178   C     0.83955   0.35276   0.47960   0.00000  Uiso   1.00
C179   C     0.81018   0.21614   0.44264   0.00000  Uiso   1.00
C180   C     0.87528   0.26560   0.11053   0.00000  Uiso   1.00
C181   C     0.80911   0.21704   0.39194   0.00000  Uiso   1.00
C182   C     0.79141   0.23389   0.09811   0.00000  Uiso   1.00
C183   C     0.85931   0.28279   0.39907   0.00000  Uiso   1.00
C184   C     0.78906   0.23721   0.04704   0.00000  Uiso   1.00
Cu185  Cu    0.83333   0.25000   0.29821   0.00000  Uiso   1.00
Cu186  Cu    0.83333   0.25001   0.20178   0.00000  Uiso   1.00
H187   H     0.99210   0.24959   0.19363   0.00000  Uiso   1.00
H188   H     0.80095   0.46986   0.31678   0.00000  Uiso   1.00
H189   H     0.91178   0.27526   0.04714   0.00000  Uiso   1.00
H190   H     0.79279   0.18815   0.45818   0.00000  Uiso   1.00
H191   H     0.90865   0.27802   0.13454   0.00000  Uiso   1.00
H192   H     0.78966   0.19065   0.36974   0.00000  Uiso   1.00
H193   H     0.71508   0.22864   0.10832   0.00000  Uiso   1.00
H194   H     0.71984   0.15832   0.07375   0.00000  Uiso   1.00
H195   H     0.72869   0.15016   0.13861   0.00000  Uiso   1.00
H196   H     0.78397   0.15086   0.10668   0.00000  Uiso   1.00
H197   H     0.87866   0.34634   0.38252   0.00000  Uiso   1.00
H198   H     0.67459   0.25043   0.30637   0.00000  Uiso   1.00
H199   H     0.95809   0.31916   0.42841   0.00000  Uiso   1.00
H200   H     0.96504   0.32951   0.36598   0.00000  Uiso   1.00
H201   H     0.95580   0.27377   0.38542   0.00000  Uiso   1.00
H202   H     0.73400   0.28521   0.48201   0.00000  Uiso   1.00
H203   H     0.70564   0.28051   0.03790   0.00000  Uiso   1.00
H204   H     0.67703   0.25226   0.48351   0.00000  Uiso   1.00
H205   H     0.81062   0.33989   0.00165   0.00000  Uiso   1.00
H206   H     0.82001   0.36293   0.44316   0.00000  Uiso   1.00
H207   H     0.85764   0.38272   0.49838   0.00000  Uiso   1.00
H208   H     0.85643   0.03176   0.32920   0.00000  Uiso   1.00
H209   H     0.87237   0.46875   0.18611   0.00000  Uiso   1.00
H210   H     0.85385   0.11198   0.32859   0.00000  Uiso   1.00
H211   H     0.86955   0.38840   0.18503   0.00000  Uiso   1.00
H212   H     0.81759   0.10906   0.17206   0.00000  Uiso   1.00
H213   H     0.80085   0.38941   0.31699   0.00000  Uiso   1.00
H214   H     0.81679   0.02894   0.17270   0.00000  Uiso   1.00
N215   N     0.83333   0.25001   0.12934   0.00000  Uiso   1.00
N216   N     0.83333   0.24999   0.37065   0.00000  Uiso   1.00
N217   N     0.74995   0.21283   0.11678   0.00000  Uiso   1.00
N218   N     0.88962   0.31417   0.37779   0.00000  Uiso   1.00
O219   O     0.83334   0.18573   0.29071   0.00000  Uiso   1.00
O220   O     0.87857   0.32163   0.47598   0.00000  Uiso   1.00
O221   O     0.83333   0.31428   0.20928   0.00000  Uiso   1.00
O222   O     0.83334   0.18573   0.20928   0.00000  Uiso   1.00
O223   O     0.83333   0.31427   0.29072   0.00000  Uiso   1.00
O224   O     0.75828   0.25000   0.28132   0.00000  Uiso   1.00
O225   O     0.90839   0.25001   0.21868   0.00000  Uiso   1.00
O226   O     0.75828   0.25000   0.19988   0.00000  Uiso   1.00
O227   O     0.90839   0.25000   0.30011   0.00000  Uiso   1.00
O228   O     0.74408   0.22465   0.01725   0.00000  Uiso   1.00
C229   C     0.16710   0.66494   0.24994   0.00000  Uiso   1.00
C230   C     0.18992   0.78557   0.44955   0.00000  Uiso   1.00
C231   C     0.16643   0.75093   0.02711   0.00000  Uiso   1.00
C232   C     0.16682   0.75085   0.47260   0.00000  Uiso   1.00
C233   C     0.06787   0.74995   0.23745   0.00000  Uiso   1.00
C234   C     0.26546   0.75008   0.26255   0.00000  Uiso   1.00
C235   C     0.01245   0.74989   0.23064   0.00000  Uiso   1.00
C236   C     0.32089   0.75015   0.26936   0.00000  Uiso   1.00
C237   C     0.18029   0.54827   0.29473   0.00000  Uiso   1.00
C238   C     0.18921   0.95186   0.21443   0.00000  Uiso   1.00
C239   C     0.17914   0.59415   0.29434   0.00000  Uiso   1.00
C240   C     0.16703   0.83498   0.25025   0.00000  Uiso   1.00
C241   C     0.18787   0.90599   0.21392   0.00000  Uiso   1.00
C242   C     0.16838   0.61662   0.25018   0.00000  Uiso   1.00
C243   C     0.16818   0.88313   0.25084   0.00000  Uiso   1.00
C244   C     0.15895   0.59256   0.20650   0.00000  Uiso   1.00
C245   C     0.14979   0.90656   0.28829   0.00000  Uiso   1.00
C246   C     0.15911   0.54669   0.20691   0.00000  Uiso   1.00
C247   C     0.15021   0.95248   0.28832   0.00000  Uiso   1.00
C248   C     0.16989   0.52412   0.25103   0.00000  Uiso   1.00
C249   C     0.16995   0.97553   0.25138   0.00000  Uiso   1.00
C250   C     0.07890   0.66562   0.10844   0.00000  Uiso   1.00
C251   C     0.20991   0.76491   0.06008   0.00000  Uiso   1.00
C252   C     0.27825   0.80874   0.39018   0.00000  Uiso   1.00
C253   C     0.04776   0.76264   0.00500   0.00000  Uiso   1.00
C254   C     0.17288   0.85276   0.47960   0.00000  Uiso   1.00
C255   C     0.14351   0.71614   0.44264   0.00000  Uiso   1.00
C256   C     0.20861   0.76560   0.11053   0.00000  Uiso   1.00
C257   C     0.14245   0.71704   0.39194   0.00000  Uiso   1.00
C258   C     0.12474   0.73389   0.09811   0.00000  Uiso   1.00
C259   C     0.19264   0.78279   0.39907   0.00000  Uiso   1.00
C260   C     0.12239   0.73721   0.04704   0.00000  Uiso   1.00
Cu261  Cu    0.16667   0.75000   0.29821   0.00000  Uiso   1.00
Cu262  Cu    0.16667   0.75001   0.20178   0.00000  Uiso   1.00
H263   H     0.32543   0.74959   0.19363   0.00000  Uiso   1.00
H264   H     0.13429   0.96986   0.31678   0.00000  Uiso   1.00
H265   H     0.24512   0.77526   0.04714   0.00000  Uiso   1.00
H266   H     0.12613   0.68815   0.45818   0.00000  Uiso   1.00
H267   H     0.24199   0.77802   0.13454   0.00000  Uiso   1.00
H268   H     0.12299   0.69065   0.36974   0.00000  Uiso   1.00
H269   H     0.04841   0.72864   0.10832   0.00000  Uiso   1.00
H270   H     0.05317   0.65832   0.07375   0.00000  Uiso   1.00
H271   H     0.06202   0.65016   0.13861   0.00000  Uiso   1.00
H272   H     0.11730   0.65086   0.10668   0.00000  Uiso   1.00
H273   H     0.21199   0.84634   0.38252   0.00000  Uiso   1.00
H274   H     0.00793   0.75043   0.30637   0.00000  Uiso   1.00
H275   H     0.29142   0.81916   0.42841   0.00000  Uiso   1.00
H276   H     0.29838   0.82951   0.36598   0.00000  Uiso   1.00
H277   H     0.28913   0.77377   0.38542   0.00000  Uiso   1.00
H278   H     0.06733   0.78521   0.48201   0.00000  Uiso   1.00
H279   H     0.03897   0.78051   0.03790   0.00000  Uiso   1.00
H280   H     0.01037   0.75226   0.48351   0.00000  Uiso   1.00
H281   H     0.14395   0.83989   0.00165   0.00000  Uiso   1.00
H282   H     0.15334   0.86293   0.44316   0.00000  Uiso   1.00
H283   H     0.19097   0.88272   0.49838   0.00000  Uiso   1.00
H284   H     0.18977   0.53176   0.32920   0.00000  Uiso   1.00
H285   H     0.20570   0.96875   0.18611   0.00000  Uiso   1.00
H286   H     0.18719   0.61198   0.32859   0.00000  Uiso   1.00
H287   H     0.20288   0.88840   0.18503   0.00000  Uiso   1.00
H288   H     0.15092   0.60906   0.17206   0.00000  Uiso   1.00
H289   H     0.13419   0.88941   0.31699   0.00000  Uiso   1.00
H290   H     0.15012   0.52894   0.17270   0.00000  Uiso   1.00
N291   N     0.16667   0.75001   0.12934   0.00000  Uiso   1.00
N292   N     0.16667   0.74999   0.37065   0.00000  Uiso   1.00
N293   N     0.08328   0.71283   0.11678   0.00000  Uiso   1.00
N294   N     0.22295   0.81417   0.37779   0.00000  Uiso   1.00
O295   O     0.16667   0.68573   0.29071   0.00000  Uiso   1.00
O296   O     0.21190   0.82163   0.47598   0.00000  Uiso   1.00
O297   O     0.16666   0.81428   0.20928   0.00000  Uiso   1.00
O298   O     0.16667   0.68573   0.20928   0.00000  Uiso   1.00
O299   O     0.16666   0.81427   0.29072   0.00000  Uiso   1.00
O300   O     0.09161   0.75000   0.28132   0.00000  Uiso   1.00
O301   O     0.24172   0.75001   0.21868   0.00000  Uiso   1.00
O302   O     0.09161   0.75000   0.19988   0.00000  Uiso   1.00
O303   O     0.24172   0.75000   0.30011   0.00000  Uiso   1.00
O304   O     0.07741   0.72465   0.01725   0.00000  Uiso   1.00
C305   C     0.50043   0.66494   0.24994   0.00000  Uiso   1.00
C306   C     0.52325   0.78557   0.44955   0.00000  Uiso   1.00
C307   C     0.49976   0.75093   0.02711   0.00000  Uiso   1.00
C308   C     0.50015   0.75085   0.47260   0.00000  Uiso   1.00
C309   C     0.40121   0.74995   0.23745   0.00000  Uiso   1.00
C310   C     0.59880   0.75008   0.26255   0.00000  Uiso   1.00
C311   C     0.34578   0.74989   0.23064   0.00000  Uiso   1.00
C312   C     0.65422   0.75015   0.26936   0.00000  Uiso   1.00
C313   C     0.51363   0.54827   0.29473   0.00000  Uiso   1.00
C314   C     0.52255   0.95186   0.21443   0.00000  Uiso   1.00
C315   C     0.51248   0.59415   0.29434   0.00000  Uiso   1.00
C316   C     0.50036   0.83498   0.25025   0.00000  Uiso   1.00
C317   C     0.52120   0.90599   0.21392   0.00000  Uiso   1.00
C318   C     0.50171   0.61662   0.25018   0.00000  Uiso   1.00
C319   C     0.50151   0.88313   0.25084   0.00000  Uiso   1.00
C320   C     0.49228   0.59256   0.20650   0.00000  Uiso   1.00
C321   C     0.48312   0.90656   0.28829   0.00000  Uiso   1.00
C322   C     0.49244   0.54669   0.20691   0.00000  Uiso   1.00
C323   C     0.48354   0.95248   0.28832   0.00000  Uiso   1.00
C324   C     0.50322   0.52412   0.25103   0.00000  Uiso   1.00
C325   C     0.50328   0.97553   0.25138   0.00000  Uiso   1.00
C326   C     0.41223   0.66562   0.10844   0.00000  Uiso   1.00
C327   C     0.54324   0.76491   0.06008   0.00000  Uiso   1.00
C328   C     0.61159   0.80874   0.39018   0.00000  Uiso   1.00
C329   C     0.38109   0.76264   0.00500   0.00000  Uiso   1.00
C330   C     0.50621   0.85276   0.47960   0.00000  Uiso   1.00
C331   C     0.47685   0.71614   0.44264   0.00000  Uiso   1.00
C332   C     0.54194   0.76560   0.11053   0.00000  Uiso   1.00
C333   C     0.47578   0.71704   0.39194   0.00000  Uiso   1.00
C334   C     0.45807   0.73389   0.09811   0.00000  Uiso   1.00
C335   C     0.52597   0.78279   0.39907   0.00000  Uiso   1.00
C336   C     0.45573   0.73721   0.04704   0.00000  Uiso   1.00
Cu337  Cu    0.50000   0.75000   0.29821   0.00000  Uiso   1.00
Cu338  Cu    0.50000   0.75001   0.20178   0.00000  Uiso   1.00
H339   H     0.65877   0.74959   0.19363   0.00000  Uiso   1.00
H340   H     0.46762   0.96986   0.31678   0.00000  Uiso   1.00
H341   H     0.57845   0.77526   0.04714   0.00000  Uiso   1.00
H342   H     0.45946   0.68815   0.45818   0.00000  Uiso   1.00
H343   H     0.57532   0.77802   0.13454   0.00000  Uiso   1.00
H344   H     0.45632   0.69065   0.36974   0.00000  Uiso   1.00
H345   H     0.38175   0.72864   0.10832   0.00000  Uiso   1.00
H346   H     0.38651   0.65832   0.07375   0.00000  Uiso   1.00
H347   H     0.39535   0.65016   0.13861   0.00000  Uiso   1.00
H348   H     0.45063   0.65086   0.10668   0.00000  Uiso   1.00
H349   H     0.54532   0.84634   0.38252   0.00000  Uiso   1.00
H350   H     0.34126   0.75043   0.30637   0.00000  Uiso   1.00
H351   H     0.62475   0.81916   0.42841   0.00000  Uiso   1.00
H352   H     0.63171   0.82951   0.36598   0.00000  Uiso   1.00
H353   H     0.62247   0.77377   0.38542   0.00000  Uiso   1.00
H354   H     0.40067   0.78521   0.48201   0.00000  Uiso   1.00
H355   H     0.37230   0.78051   0.03790   0.00000  Uiso   1.00
H356   H     0.34370   0.75226   0.48351   0.00000  Uiso   1.00
H357   H     0.47728   0.83989   0.00165   0.00000  Uiso   1.00
H358   H     0.48668   0.86293   0.44316   0.00000  Uiso   1.00
H359   H     0.52430   0.88272   0.49838   0.00000  Uiso   1.00
H360   H     0.52310   0.53176   0.32920   0.00000  Uiso   1.00
H361   H     0.53903   0.96875   0.18611   0.00000  Uiso   1.00
H362   H     0.52052   0.61198   0.32859   0.00000  Uiso   1.00
H363   H     0.53622   0.88840   0.18503   0.00000  Uiso   1.00
H364   H     0.48426   0.60906   0.17206   0.00000  Uiso   1.00
H365   H     0.46752   0.88941   0.31699   0.00000  Uiso   1.00
H366   H     0.48346   0.52894   0.17270   0.00000  Uiso   1.00
N367   N     0.50000   0.75001   0.12934   0.00000  Uiso   1.00
N368   N     0.50000   0.74999   0.37065   0.00000  Uiso   1.00
N369   N     0.41662   0.71283   0.11678   0.00000  Uiso   1.00
N370   N     0.55629   0.81417   0.37779   0.00000  Uiso   1.00
O371   O     0.50000   0.68573   0.29071   0.00000  Uiso   1.00
O372   O     0.54523   0.82163   0.47598   0.00000  Uiso   1.00
O373   O     0.50000   0.81428   0.20928   0.00000  Uiso   1.00
O374   O     0.50000   0.68573   0.20928   0.00000  Uiso   1.00
O375   O     0.50000   0.81427   0.29072   0.00000  Uiso   1.00
O376   O     0.42495   0.75000   0.28132   0.00000  Uiso   1.00
O377   O     0.57505   0.75001   0.21868   0.00000  Uiso   1.00
O378   O     0.42495   0.75000   0.19988   0.00000  Uiso   1.00
O379   O     0.57505   0.75000   0.30011   0.00000  Uiso   1.00
O380   O     0.41075   0.72465   0.01725   0.00000  Uiso   1.00
C381   C     0.83376   0.66494   0.24994   0.00000  Uiso   1.00
C382   C     0.85659   0.78557   0.44955   0.00000  Uiso   1.00
C383   C     0.83310   0.75093   0.02711   0.00000  Uiso   1.00
C384   C     0.83349   0.75085   0.47260   0.00000  Uiso   1.00
C385   C     0.73454   0.74995   0.23745   0.00000  Uiso   1.00
C386   C     0.93213   0.75008   0.26255   0.00000  Uiso   1.00
C387   C     0.67912   0.74989   0.23064   0.00000  Uiso   1.00
C388   C     0.98756   0.75015   0.26936   0.00000  Uiso   1.00
C389   C     0.84696   0.54827   0.29473   0.00000  Uiso   1.00
C390   C     0.85588   0.95186   0.21443   0.00000  Uiso   1.00
C391   C     0.84581   0.59415   0.29434   0.00000  Uiso   1.00
C392   C     0.83369   0.83498   0.25025   0.00000  Uiso   1.00
C393   C     0.85454   0.90599   0.21392   0.00000  Uiso   1.00
C394   C     0.83505   0.61662   0.25018   0.00000  Uiso   1.00
C395   C     0.83484   0.88313   0.25084   0.00000  Uiso   1.00
C396   C     0.82561   0.59256   0.20650   0.00000  Uiso   1.00
C397   C     0.81646   0.90656   0.28829   0.00000  Uiso   1.00
C398   C     0.82578   0.54669   0.20691   0.00000  Uiso   1.00
C399   C     0.81687   0.95248   0.28832   0.00000  Uiso   1.00
C400   C     0.83655   0.52412   0.25103   0.00000  Uiso   1.00
C401   C     0.83662   0.97553   0.25138   0.00000  Uiso   1.00
C402   C     0.74557   0.66562   0.10844   0.00000  Uiso   1.00
C403   C     0.87658   0.76491   0.06008   0.00000  Uiso   1.00
C404   C     0.94492   0.80874   0.39018   0.00000  Uiso   1.00
C405   C     0.71442   0.76264   0.00500   0.00000  Uiso   1.00
C406   C     0.83955   0.85276   0.47960   0.00000  Uiso   1.00
C407   C     0.81018   0.71614   0.44264   0.00000  Uiso   1.00
C408   C     0.87528   0.76560   0.11053   0.00000  Uiso   1.00
C409   C     0.80911   0.71704   0.39194   0.00000  Uiso   1.00
C410   C     0.79141   0.73389   0.09811   0.00000  Uiso   1.00
C411   C     0.85931   0.78279   0.39907   0.00000  Uiso   1.00
C412   C     0.78906   0.73721   0.04704   0.00000  Uiso   1.00
Cu413  Cu    0.83333   0.75000   0.29821   0.00000  Uiso   1.00
Cu414  Cu    0.83333   0.75001   0.20178   0.00000  Uiso   1.00
H415   H     0.99210   0.74959   0.19363   0.00000  Uiso   1.00
H416   H     0.80095   0.96986   0.31678   0.00000  Uiso   1.00
H417   H     0.91178   0.77526   0.04714   0.00000  Uiso   1.00
H418   H     0.79279   0.68815   0.45818   0.00000  Uiso   1.00
H419   H     0.90865   0.77802   0.13454   0.00000  Uiso   1.00
H420   H     0.78966   0.69065   0.36974   0.00000  Uiso   1.00
H421   H     0.71508   0.72864   0.10832   0.00000  Uiso   1.00
H422   H     0.71984   0.65832   0.07375   0.00000  Uiso   1.00
H423   H     0.72869   0.65016   0.13861   0.00000  Uiso   1.00
H424   H     0.78397   0.65086   0.10668   0.00000  Uiso   1.00
H425   H     0.87866   0.84634   0.38252   0.00000  Uiso   1.00
H426   H     0.67459   0.75043   0.30637   0.00000  Uiso   1.00
H427   H     0.95809   0.81916   0.42841   0.00000  Uiso   1.00
H428   H     0.96504   0.82951   0.36598   0.00000  Uiso   1.00
H429   H     0.95580   0.77377   0.38542   0.00000  Uiso   1.00
H430   H     0.73400   0.78521   0.48201   0.00000  Uiso   1.00
H431   H     0.70564   0.78051   0.03790   0.00000  Uiso   1.00
H432   H     0.67703   0.75226   0.48351   0.00000  Uiso   1.00
H433   H     0.81062   0.83989   0.00165   0.00000  Uiso   1.00
H434   H     0.82001   0.86293   0.44316   0.00000  Uiso   1.00
H435   H     0.85764   0.88272   0.49838   0.00000  Uiso   1.00
H436   H     0.85643   0.53176   0.32920   0.00000  Uiso   1.00
H437   H     0.87237   0.96875   0.18611   0.00000  Uiso   1.00
H438   H     0.85385   0.61198   0.32859   0.00000  Uiso   1.00
H439   H     0.86955   0.88840   0.18503   0.00000  Uiso   1.00
H440   H     0.81759   0.60906   0.17206   0.00000  Uiso   1.00
H441   H     0.80085   0.88941   0.31699   0.00000  Uiso   1.00
H442   H     0.81679   0.52894   0.17270   0.00000  Uiso   1.00
N443   N     0.83333   0.75001   0.12934   0.00000  Uiso   1.00
N444   N     0.83333   0.74999   0.37065   0.00000  Uiso   1.00
N445   N     0.74995   0.71283   0.11678   0.00000  Uiso   1.00
N446   N     0.88962   0.81417   0.37779   0.00000  Uiso   1.00
O447   O     0.83334   0.68573   0.29071   0.00000  Uiso   1.00
O448   O     0.87857   0.82163   0.47598   0.00000  Uiso   1.00
O449   O     0.83333   0.81428   0.20928   0.00000  Uiso   1.00
O450   O     0.83334   0.68573   0.20928   0.00000  Uiso   1.00
O451   O     0.83333   0.81427   0.29072   0.00000  Uiso   1.00
O452   O     0.75828   0.75000   0.28132   0.00000  Uiso   1.00
O453   O     0.90839   0.75001   0.21868   0.00000  Uiso   1.00
O454   O     0.75828   0.75000   0.19988   0.00000  Uiso   1.00
O455   O     0.90839   0.75000   0.30011   0.00000  Uiso   1.00
O456   O     0.74408   0.72465   0.01725   0.00000  Uiso   1.00
C457   C     0.16710   0.16494   0.74994   0.00000  Uiso   1.00
C458   C     0.18992   0.28557   0.94955   0.00000  Uiso   1.00
C459   C     0.16643   0.25093   0.52711   0.00000  Uiso   1.00
C460   C     0.16682   0.25085   0.97260   0.00000  Uiso   1.00
C461   C     0.06787   0.24995   0.73745   0.00000  Uiso   1.00
C462   C     0.26546   0.25008   0.76255   0.00000  Uiso   1.00
C463   C     0.01245   0.24989   0.73064   0.00000  Uiso   1.00
C464   C     0.32089   0.25015   0.76936   0.00000  Uiso   1.00
C465   C     0.18029   0.04827   0.79473   0.00000  Uiso   1.00
C466   C     0.18921   0.45186   0.71443   0.00000  Uiso   1.00
C467   C     0.17914   0.09415   0.79434   0.00000  Uiso   1.00
C468   C     0.16703   0.33498   0.75025   0.00000  Uiso   1.00
C469   C     0.18787   0.40599   0.71392   0.00000  Uiso   1.00
C470   C     0.16838   0.11662   0.75018   0.00000  Uiso   1.00
C471   C     0.16818   0.38313   0.75084   0.00000  Uiso   1.00
C472   C     0.15895   0.09256   0.70650   0.00000  Uiso   1.00
C473   C     0.14979   0.40656   0.78829   0.00000  Uiso   1.00
C474   C     0.15911   0.04669   0.70691   0.00000  Uiso   1.00
C475   C     0.15021   0.45248   0.78832   0.00000  Uiso   1.00
C476   C     0.16989   0.02412   0.75103   0.00000  Uiso   1.00
C477   C     0.16995   0.47553   0.75138   0.00000  Uiso   1.00
C478   C     0.07890   0.16562   0.60844   0.00000  Uiso   1.00
C479   C     0.20991   0.26491   0.56008   0.00000  Uiso   1.00
C480   C     0.27825   0.30874   0.89018   0.00000  Uiso   1.00
C481   C     0.04776   0.26264   0.50500   0.00000  Uiso   1.00
C482   C     0.17288   0.35276   0.97960   0.00000  Uiso   1.00
C483   C     0.14351   0.21614   0.94264   0.00000  Uiso   1.00
C484   C     0.20861   0.26560   0.61053   0.00000  Uiso   1.00
C485   C     0.14245   0.21704   0.89194   0.00000  Uiso   1.00
C486   C     0.12474   0.23389   0.59811   0.00000  Uiso   1.00
C487   C     0.19264   0.28279   0.89907   0.00000  Uiso   1.00
C488   C     0.12239   0.23721   0.54704   0.00000  Uiso   1.00
Cu489  Cu    0.16667   0.25000   0.79821   0.00000  Uiso   1.00
Cu490  Cu    0.16667   0.25001   0.70178   0.00000  Uiso   1.00
H491   H     0.32543   0.24959   0.69363   0.00000  Uiso   1.00
H492   H     0.13429   0.46986   0.81678   0.00000  Uiso   1.00
H493   H     0.24512   0.27526   0.54714   0.00000  Uiso   1.00
H494   H     0.12613   0.18815   0.95818   0.00000  Uiso   1.00
H495   H     0.24199   0.27802   0.63454   0.00000  Uiso   1.00
H496   H     0.12299   0.19065   0.86974   0.00000  Uiso   1.00
H497   H     0.04841   0.22864   0.60832   0.00000  Uiso   1.00
H498   H     0.05317   0.15832   0.57375   0.00000  Uiso   1.00
H499   H     0.06202   0.15016   0.63861   0.00000  Uiso   1.00
H500   H     0.11730   0.15086   0.60668   0.00000  Uiso   1.00
H501   H     0.21199   0.34634   0.88252   0.00000  Uiso   1.00
H502   H     0.00793   0.25043   0.80637   0.00000  Uiso   1.00
H503   H     0.29142   0.31916   0.92841   0.00000  Uiso   1.00
H504   H     0.29838   0.32951   0.86598   0.00000  Uiso   1.00
H505   H     0.28913   0.27377   0.88542   0.00000  Uiso   1.00
H506   H     0.06733   0.28521   0.98201   0.00000  Uiso   1.00
H507   H     0.03897   0.28051   0.53790   0.00000  Uiso   1.00
H508   H     0.01037   0.25226   0.98351   0.00000  Uiso   1.00
H509   H     0.14395   0.33989   0.50165   0.00000  Uiso   1.00
H510   H     0.15334   0.36293   0.94316   0.00000  Uiso   1.00
H511   H     0.19097   0.38272   0.99838   0.00000  Uiso   1.00
H512   H     0.18977   0.03176   0.82920   0.00000  Uiso   1.00
H513   H     0.20570   0.46875   0.68611   0.00000  Uiso   1.00
H514   H     0.18719   0.11198   0.82859   0.00000  Uiso   1.00
H515   H     0.20288   0.38840   0.68503   0.00000  Uiso   1.00
H516   H     0.15092   0.10906   0.67206   0.00000  Uiso   1.00
H517   H     0.13419   0.38941   0.81699   0.00000  Uiso   1.00
H518   H     0.15012   0.02894   0.67270   0.00000  Uiso   1.00
N519   N     0.16667   0.25001   0.62934   0.00000  Uiso   1.00
N520   N     0.16667   0.24999   0.87065   0.00000  Uiso   1.00
N521   N     0.08328   0.21283   0.61678   0.00000  Uiso   1.00
N522   N     0.22295   0.31417   0.87779   0.00000  Uiso   1.00
O523   O     0.16667   0.18573   0.79071   0.00000  Uiso   1.00
O524   O     0.21190   0.32163   0.97598   0.00000  Uiso   1.00
O525   O     0.16666   0.31428   0.70928   0.00000  Uiso   1.00
O526   O     0.16667   0.18573   0.70928   0.00000  Uiso   1.00
O527   O     0.16666   0.31427   0.79072   0.00000  Uiso   1.00
O528   O     0.09161   0.25000   0.78132   0.00000  Uiso   1.00
O529   O     0.24172   0.25001   0.71868   0.00000  Uiso   1.00
O530   O     0.09161   0.25000   0.69988   0.00000  Uiso   1.00
O531   O     0.24172   0.25000   0.80011   0.00000  Uiso   1.00
O532   O     0.07741   0.22465   0.51725   0.00000  Uiso   1.00
C533   C     0.50043   0.16494   0.74994   0.00000  Uiso   1.00
C534   C     0.52325   0.28557   0.94955   0.00000  Uiso   1.00
C535   C     0.49976   0.25093   0.52711   0.00000  Uiso   1.00
C536   C     0.50015   0.25085   0.97260   0.00000  Uiso   1.00
C537   C     0.40121   0.24995   0.73745   0.00000  Uiso   1.00
C538   C     0.59880   0.25008   0.76255   0.00000  Uiso   1.00
C539   C     0.34578   0.24989   0.73064   0.00000  Uiso   1.00
C540   C     0.65422   0.25015   0.76936   0.00000  Uiso   1.00
C541   C     0.51363   0.04827   0.79473   0.00000  Uiso   1.00
C542   C     0.52255   0.45186   0.71443   0.00000  Uiso   1.00
C543   C     0.51248   0.09415   0.79434   0.00000  Uiso   1.00
C544   C     0.50036   0.33498   0.75025   0.00000  Uiso   1.00
C545   C     0.52120   0.40599   0.71392   0.00000  Uiso   1.00
C546   C     0.50171   0.11662   0.75018   0.00000  Uiso   1.00
C547   C     0.50151   0.38313   0.75084   0.00000  Uiso   1.00
C548   C     0.49228   0.09256   0.70650   0.00000  Uiso   1.00
C549   C     0.48312   0.40656   0.78829   0.00000  Uiso   1.00
C550   C     0.49244   0.04669   0.70691   0.00000  Uiso   1.00
C551   C     0.48354   0.45248   0.78832   0.00000  Uiso   1.00
C552   C     0.50322   0.02412   0.75103   0.00000  Uiso   1.00
C553   C     0.50328   0.47553   0.75138   0.00000  Uiso   1.00
C554   C     0.41223   0.16562   0.60844   0.00000  Uiso   1.00
C555   C     0.54324   0.26491   0.56008   0.00000  Uiso   1.00
C556   C     0.61159   0.30874   0.89018   0.00000  Uiso   1.00
C557   C     0.38109   0.26264   0.50500   0.00000  Uiso   1.00
C558   C     0.50621   0.35276   0.97960   0.00000  Uiso   1.00
C559   C     0.47685   0.21614   0.94264   0.00000  Uiso   1.00
C560   C     0.54194   0.26560   0.61053   0.00000  Uiso   1.00
C561   C     0.47578   0.21704   0.89194   0.00000  Uiso   1.00
C562   C     0.45807   0.23389   0.59811   0.00000  Uiso   1.00
C563   C     0.52597   0.28279   0.89907   0.00000  Uiso   1.00
C564   C     0.45573   0.23721   0.54704   0.00000  Uiso   1.00
Cu565  Cu    0.50000   0.25000   0.79821   0.00000  Uiso   1.00
Cu566  Cu    0.50000   0.25001   0.70178   0.00000  Uiso   1.00
H567   H     0.65877   0.24959   0.69363   0.00000  Uiso   1.00
H568   H     0.46762   0.46986   0.81678   0.00000  Uiso   1.00
H569   H     0.57845   0.27526   0.54714   0.00000  Uiso   1.00
H570   H     0.45946   0.18815   0.95818   0.00000  Uiso   1.00
H571   H     0.57532   0.27802   0.63454   0.00000  Uiso   1.00
H572   H     0.45632   0.19065   0.86974   0.00000  Uiso   1.00
H573   H     0.38175   0.22864   0.60832   0.00000  Uiso   1.00
H574   H     0.38651   0.15832   0.57375   0.00000  Uiso   1.00
H575   H     0.39535   0.15016   0.63861   0.00000  Uiso   1.00
H576   H     0.45063   0.15086   0.60668   0.00000  Uiso   1.00
H577   H     0.54532   0.34634   0.88252   0.00000  Uiso   1.00
H578   H     0.34126   0.25043   0.80637   0.00000  Uiso   1.00
H579   H     0.62475   0.31916   0.92841   0.00000  Uiso   1.00
H580   H     0.63171   0.32951   0.86598   0.00000  Uiso   1.00
H581   H     0.62247   0.27377   0.88542   0.00000  Uiso   1.00
H582   H     0.40067   0.28521   0.98201   0.00000  Uiso   1.00
H583   H     0.37230   0.28051   0.53790   0.00000  Uiso   1.00
H584   H     0.34370   0.25226   0.98351   0.00000  Uiso   1.00
H585   H     0.47728   0.33989   0.50165   0.00000  Uiso   1.00
H586   H     0.48668   0.36293   0.94316   0.00000  Uiso   1.00
H587   H     0.52430   0.38272   0.99838   0.00000  Uiso   1.00
H588   H     0.52310   0.03176   0.82920   0.00000  Uiso   1.00
H589   H     0.53903   0.46875   0.68611   0.00000  Uiso   1.00
H590   H     0.52052   0.11198   0.82859   0.00000  Uiso   1.00
H591   H     0.53622   0.38840   0.68503   0.00000  Uiso   1.00
H592   H     0.48426   0.10906   0.67206   0.00000  Uiso   1.00
H593   H     0.46752   0.38941   0.81699   0.00000  Uiso   1.00
H594   H     0.48346   0.02894   0.67270   0.00000  Uiso   1.00
N595   N     0.50000   0.25001   0.62934   0.00000  Uiso   1.00
N596   N     0.50000   0.24999   0.87065   0.00000  Uiso   1.00
N597   N     0.41662   0.21283   0.61678   0.00000  Uiso   1.00
N598   N     0.55629   0.31417   0.87779   0.00000  Uiso   1.00
O599   O     0.50000   0.18573   0.79071   0.00000  Uiso   1.00
O600   O     0.54523   0.32163   0.97598   0.00000  Uiso   1.00
O601   O     0.50000   0.31428   0.70928   0.00000  Uiso   1.00
O602   O     0.50000   0.18573   0.70928   0.00000  Uiso   1.00
O603   O     0.50000   0.31427   0.79072   0.00000  Uiso   1.00
O604   O     0.42495   0.25000   0.78132   0.00000  Uiso   1.00
O605   O     0.57505   0.25001   0.71868   0.00000  Uiso   1.00
O606   O     0.42495   0.25000   0.69988   0.00000  Uiso   1.00
O607   O     0.57505   0.25000   0.80011   0.00000  Uiso   1.00
O608   O     0.41075   0.22465   0.51725   0.00000  Uiso   1.00
C609   C     0.83376   0.16494   0.74994   0.00000  Uiso   1.00
C610   C     0.85659   0.28557   0.94955   0.00000  Uiso   1.00
C611   C     0.83310   0.25093   0.52711   0.00000  Uiso   1.00
C612   C     0.83349   0.25085   0.97260   0.00000  Uiso   1.00
C613   C     0.73454   0.24995   0.73745   0.00000  Uiso   1.00
C614   C     0.93213   0.25008   0.76255   0.00000  Uiso   1.00
C615   C     0.67912   0.24989   0.73064   0.00000  Uiso   1.00
C616   C     0.98756   0.25015   0.76936   0.00000  Uiso   1.00
C617   C     0.84696   0.04827   0.79473   0.00000  Uiso   1.00
C618   C     0.85588   0.45186   0.71443   0.00000  Uiso   1.00
C619   C     0.84581   0.09415   0.79434   0.00000  Uiso   1.00
C620   C     0.83369   0.33498   0.75025   0.00000  Uiso   1.00
C621   C     0.85454   0.40599   0.71392   0.00000  Uiso   1.00
C622   C     0.83505   0.11662   0.75018   0.00000  Uiso   1.00
C623   C     0.83484   0.38313   0.75084   0.00000  Uiso   1.00
C624   C     0.82561   0.09256   0.70650   0.00000  Uiso   1.00
C625   C     0.81646   0.40656   0.78829   0.00000  Uiso   1.00
C626   C     0.82578   0.04669   0.70691   0.00000  Uiso   1.00
C627   C     0.81687   0.45248   0.78832   0.00000  Uiso   1.00
C628   C     0.83655   0.02412   0.75103   0.00000  Uiso   1.00
C629   C     0.83662   0.47553   0.75138   0.00000  Uiso   1.00
C630   C     0.74557   0.16562   0.60844   0.00000  Uiso   1.00
C631   C     0.87658   0.26491   0.56008   0.00000  Uiso   1.00
C632   C     0.94492   0.30874   0.89018   0.00000  Uiso   1.00
C633   C     0.71442   0.26264   0.50500   0.00000  Uiso   1.00
C634   C     0.83955   0.35276   0.97960   0.00000  Uiso   1.00
C635   C     0.81018   0.21614   0.94264   0.00000  Uiso   1.00
C636   C     0.87528   0.26560   0.61053   0.00000  Uiso   1.00
C637   C     0.80911   0.21704   0.89194   0.00000  Uiso   1.00
C638   C     0.79141   0.23389   0.59811   0.00000  Uiso   1.00
C639   C     0.85931   0.28279   0.89907   0.00000  Uiso   1.00
C640   C     0.78906   0.23721   0.54704   0.00000  Uiso   1.00
Cu641  Cu    0.83333   0.25000   0.79821   0.00000  Uiso   1.00
Cu642  Cu    0.83333   0.25001   0.70178   0.00000  Uiso   1.00
H643   H     0.99210   0.24959   0.69363   0.00000  Uiso   1.00
H644   H     0.80095   0.46986   0.81678   0.00000  Uiso   1.00
H645   H     0.91178   0.27526   0.54714   0.00000  Uiso   1.00
H646   H     0.79279   0.18815   0.95818   0.00000  Uiso   1.00
H647   H     0.90865   0.27802   0.63454   0.00000  Uiso   1.00
H648   H     0.78966   0.19065   0.86974   0.00000  Uiso   1.00
H649   H     0.71508   0.22864   0.60832   0.00000  Uiso   1.00
H650   H     0.71984   0.15832   0.57375   0.00000  Uiso   1.00
H651   H     0.72869   0.15016   0.63861   0.00000  Uiso   1.00
H652   H     0.78397   0.15086   0.60668   0.00000  Uiso   1.00
H653   H     0.87866   0.34634   0.88252   0.00000  Uiso   1.00
H654   H     0.67459   0.25043   0.80637   0.00000  Uiso   1.00
H655   H     0.95809   0.31916   0.92841   0.00000  Uiso   1.00
H656   H     0.96504   0.32951   0.86598   0.00000  Uiso   1.00
H657   H     0.95580   0.27377   0.88542   0.00000  Uiso   1.00
H658   H     0.73400   0.28521   0.98201   0.00000  Uiso   1.00
H659   H     0.70564   0.28051   0.53790   0.00000  Uiso   1.00
H660   H     0.67703   0.25226   0.98351   0.00000  Uiso   1.00
H661   H     0.81062   0.33989   0.50165   0.00000  Uiso   1.00
H662   H     0.82001   0.36293   0.94316   0.00000  Uiso   1.00
H663   H     0.85764   0.38272   0.99838   0.00000  Uiso   1.00
H664   H     0.85643   0.03176   0.82920   0.00000  Uiso   1.00
H665   H     0.87237   0.46875   0.68611   0.00000  Uiso   1.00
H666   H     0.85385   0.11198   0.82859   0.00000  Uiso   1.00
H667   H     0.86955   0.38840   0.68503   0.00000  Uiso   1.00
H668   H     0.81759   0.10906   0.67206   0.00000  Uiso   1.00
H669   H     0.80085   0.38941   0.81699   0.00000  Uiso   1.00
H670   H     0.81679   0.02894   0.67270   0.00000  Uiso   1.00
N671   N     0.83333   0.25001   0.62934   0.00000  Uiso   1.00
N672   N     0.83333   0.24999   0.87065   0.00000  Uiso   1.00
N673   N     0.74995   0.21283   0.61678   0.00000  Uiso   1.00
N674   N     0.88962   0.31417   0.87779   0.00000  Uiso   1.00
O675   O     0.83334   0.18573   0.79071   0.00000  Uiso   1.00
O676   O     0.87857   0.32163   0.97598   0.00000  Uiso   1.00
O677   O     0.83333   0.31428   0.70928   0.00000  Uiso   1.00
O678   O     0.83334   0.18573   0.70928   0.00000  Uiso   1.00
O679   O     0.83333   0.31427   0.79072   0.00000  Uiso   1.00
O680   O     0.75828   0.25000   0.78132   0.00000  Uiso   1.00
O681   O     0.90839   0.25001   0.71868   0.00000  Uiso   1.00
O682   O     0.75828   0.25000   0.69988   0.00000  Uiso   1.00
O683   O     0.90839   0.25000   0.80011   0.00000  Uiso   1.00
O684   O     0.74408   0.22465   0.51725   0.00000  Uiso   1.00
C685   C     0.16710   0.66494   0.74994   0.00000  Uiso   1.00
C686   C     0.18992   0.78557   0.94955   0.00000  Uiso   1.00
C687   C     0.16643   0.75093   0.52711   0.00000  Uiso   1.00
C688   C     0.16682   0.75085   0.97260   0.00000  Uiso   1.00
C689   C     0.06787   0.74995   0.73745   0.00000  Uiso   1.00
C690   C     0.26546   0.75008   0.76255   0.00000  Uiso   1.00
C691   C     0.01245   0.74989   0.73064   0.00000  Uiso   1.00
C692   C     0.32089   0.75015   0.76936   0.00000  Uiso   1.00
C693   C     0.18029   0.54827   0.79473   0.00000  Uiso   1.00
C694   C     0.18921   0.95186   0.71443   0.00000  Uiso   1.00
C695   C     0.17914   0.59415   0.79434   0.00000  Uiso   1.00
C696   C     0.16703   0.83498   0.75025   0.00000  Uiso   1.00
C697   C     0.18787   0.90599   0.71392   0.00000  Uiso   1.00
C698   C     0.16838   0.61662   0.75018   0.00000  Uiso   1.00
C699   C     0.16818   0.88313   0.75084   0.00000  Uiso   1.00
C700   C     0.15895   0.59256   0.70650   0.00000  Uiso   1.00
C701   C     0.14979   0.90656   0.78829   0.00000  Uiso   1.00
C702   C     0.15911   0.54669   0.70691   0.00000  Uiso   1.00
C703   C     0.15021   0.95248   0.78832   0.00000  Uiso   1.00
C704   C     0.16989   0.52412   0.75103   0.00000  Uiso   1.00
C705   C     0.16995   0.97553   0.75138   0.00000  Uiso   1.00
C706   C     0.07890   0.66562   0.60844   0.00000  Uiso   1.00
C707   C     0.20991   0.76491   0.56008   0.00000  Uiso   1.00
C708   C     0.27825   0.80874   0.89018   0.00000  Uiso   1.00
C709   C     0.04776   0.76264   0.50500   0.00000  Uiso   1.00
C710   C     0.17288   0.85276   0.97960   0.00000  Uiso   1.00
C711   C     0.14351   0.71614   0.94264   0.00000  Uiso   1.00
C712   C     0.20861   0.76560   0.61053   0.00000  Uiso   1.00
C713   C     0.14245   0.71704   0.89194   0.00000  Uiso   1.00
C714   C     0.12474   0.73389   0.59811   0.00000  Uiso   1.00
C715   C     0.19264   0.78279   0.89907   0.00000  Uiso   1.00
C716   C     0.12239   0.73721   0.54704   0.00000  Uiso   1.00
Cu717  Cu    0.16667   0.75000   0.79821   0.00000  Uiso   1.00
Cu718  Cu    0.16667   0.75001   0.70178   0.00000  Uiso   1.00
H719   H     0.32543   0.74959   0.69363   0.00000  Uiso   1.00
H720   H     0.13429   0.96986   0.81678   0.00000  Uiso   1.00
H721   H     0.24512   0.77526   0.54714   0.00000  Uiso   1.00
H722   H     0.12613   0.68815   0.95818   0.00000  Uiso   1.00
H723   H     0.24199   0.77802   0.63454   0.00000  Uiso   1.00
H724   H     0.12299   0.69065   0.86974   0.00000  Uiso   1.00
H725   H     0.04841   0.72864   0.60832   0.00000  Uiso   1.00
H726   H     0.05317   0.65832   0.57375   0.00000  Uiso   1.00
H727   H     0.06202   0.65016   0.63861   0.00000  Uiso   1.00
H728   H     0.11730   0.65086   0.60668   0.00000  Uiso   1.00
H729   H     0.21199   0.84634   0.88252   0.00000  Uiso   1.00
H730   H     0.00793   0.75043   0.80637   0.00000  Uiso   1.00
H731   H     0.29142   0.81916   0.92841   0.00000  Uiso   1.00
H732   H     0.29838   0.82951   0.86598   0.00000  Uiso   1.00
H733   H     0.28913   0.77377   0.88542   0.00000  Uiso   1.00
H734   H     0.06733   0.78521   0.98201   0.00000  Uiso   1.00
H735   H     0.03897   0.78051   0.53790   0.00000  Uiso   1.00
H736   H     0.01037   0.75226   0.98351   0.00000  Uiso   1.00
H737   H     0.14395   0.83989   0.50165   0.00000  Uiso   1.00
H738   H     0.15334   0.86293   0.94316   0.00000  Uiso   1.00
H739   H     0.19097   0.88272   0.99838   0.00000  Uiso   1.00
H740   H     0.18977   0.53176   0.82920   0.00000  Uiso   1.00
H741   H     0.20570   0.96875   0.68611   0.00000  Uiso   1.00
H742   H     0.18719   0.61198   0.82859   0.00000  Uiso   1.00
H743   H     0.20288   0.88840   0.68503   0.00000  Uiso   1.00
H744   H     0.15092   0.60906   0.67206   0.00000  Uiso   1.00
H745   H     0.13419   0.88941   0.81699   0.00000  Uiso   1.00
H746   H     0.15012   0.52894   0.67270   0.00000  Uiso   1.00
N747   N     0.16667   0.75001   0.62934   0.00000  Uiso   1.00
N748   N     0.16667   0.74999   0.87065   0.00000  Uiso   1.00
N749   N     0.08328   0.71283   0.61678   0.00000  Uiso   1.00
N750   N     0.22295   0.81417   0.87779   0.00000  Uiso   1.00
O751   O     0.16667   0.68573   0.79071   0.00000  Uiso   1.00
O752   O     0.21190   0.82163   0.97598   0.00000  Uiso   1.00
O753   O     0.16666   0.81428   0.70928   0.00000  Uiso   1.00
O754   O     0.16667   0.68573   0.70928   0.00000  Uiso   1.00
O755   O     0.16666   0.81427   0.79072   0.00000  Uiso   1.00
O756   O     0.09161   0.75000   0.78132   0.00000  Uiso   1.00
O757   O     0.24172   0.75001   0.71868   0.00000  Uiso   1.00
O758   O     0.09161   0.75000   0.69988   0.00000  Uiso   1.00
O759   O     0.24172   0.75000   0.80011   0.00000  Uiso   1.00
O760   O     0.07741   0.72465   0.51725   0.00000  Uiso   1.00
C761   C     0.50043   0.66494   0.74994   0.00000  Uiso   1.00
C762   C     0.52325   0.78557   0.94955   0.00000  Uiso   1.00
C763   C     0.49976   0.75093   0.52711   0.00000  Uiso   1.00
C764   C     0.50015   0.75085   0.97260   0.00000  Uiso   1.00
C765   C     0.40121   0.74995   0.73745   0.00000  Uiso   1.00
C766   C     0.59880   0.75008   0.76255   0.00000  Uiso   1.00
C767   C     0.34578   0.74989   0.73064   0.00000  Uiso   1.00
C768   C     0.65422   0.75015   0.76936   0.00000  Uiso   1.00
C769   C     0.51363   0.54827   0.79473   0.00000  Uiso   1.00
C770   C     0.52255   0.95186   0.71443   0.00000  Uiso   1.00
C771   C     0.51248   0.59415   0.79434   0.00000  Uiso   1.00
C772   C     0.50036   0.83498   0.75025   0.00000  Uiso   1.00
C773   C     0.52120   0.90599   0.71392   0.00000  Uiso   1.00
C774   C     0.50171   0.61662   0.75018   0.00000  Uiso   1.00
C775   C     0.50151   0.88313   0.75084   0.00000  Uiso   1.00
C776   C     0.49228   0.59256   0.70650   0.00000  Uiso   1.00
C777   C     0.48312   0.90656   0.78829   0.00000  Uiso   1.00
C778   C     0.49244   0.54669   0.70691   0.00000  Uiso   1.00
C779   C     0.48354   0.95248   0.78832   0.00000  Uiso   1.00
C780   C     0.50322   0.52412   0.75103   0.00000  Uiso   1.00
C781   C     0.50328   0.97553   0.75138   0.00000  Uiso   1.00
C782   C     0.41223   0.66562   0.60844   0.00000  Uiso   1.00
C783   C     0.54324   0.76491   0.56008   0.00000  Uiso   1.00
C784   C     0.61159   0.80874   0.89018   0.00000  Uiso   1.00
C785   C     0.38109   0.76264   0.50500   0.00000  Uiso   1.00
C786   C     0.50621   0.85276   0.97960   0.00000  Uiso   1.00
C787   C     0.47685   0.71614   0.94264   0.00000  Uiso   1.00
C788   C     0.54194   0.76560   0.61053   0.00000  Uiso   1.00
C789   C     0.47578   0.71704   0.89194   0.00000  Uiso   1.00
C790   C     0.45807   0.73389   0.59811   0.00000  Uiso   1.00
C791   C     0.52597   0.78279   0.89907   0.00000  Uiso   1.00
C792   C     0.45573   0.73721   0.54704   0.00000  Uiso   1.00
Cu793  Cu    0.50000   0.75000   0.79821   0.00000  Uiso   1.00
Cu794  Cu    0.50000   0.75001   0.70178   0.00000  Uiso   1.00
H795   H     0.65877   0.74959   0.69363   0.00000  Uiso   1.00
H796   H     0.46762   0.96986   0.81678   0.00000  Uiso   1.00
H797   H     0.57845   0.77526   0.54714   0.00000  Uiso   1.00
H798   H     0.45946   0.68815   0.95818   0.00000  Uiso   1.00
H799   H     0.57532   0.77802   0.63454   0.00000  Uiso   1.00
H800   H     0.45632   0.69065   0.86974   0.00000  Uiso   1.00
H801   H     0.38175   0.72864   0.60832   0.00000  Uiso   1.00
H802   H     0.38651   0.65832   0.57375   0.00000  Uiso   1.00
H803   H     0.39535   0.65016   0.63861   0.00000  Uiso   1.00
H804   H     0.45063   0.65086   0.60668   0.00000  Uiso   1.00
H805   H     0.54532   0.84634   0.88252   0.00000  Uiso   1.00
H806   H     0.34126   0.75043   0.80637   0.00000  Uiso   1.00
H807   H     0.62475   0.81916   0.92841   0.00000  Uiso   1.00
H808   H     0.63171   0.82951   0.86598   0.00000  Uiso   1.00
H809   H     0.62247   0.77377   0.88542   0.00000  Uiso   1.00
H810   H     0.40067   0.78521   0.98201   0.00000  Uiso   1.00
H811   H     0.37230   0.78051   0.53790   0.00000  Uiso   1.00
H812   H     0.34370   0.75226   0.98351   0.00000  Uiso   1.00
H813   H     0.47728   0.83989   0.50165   0.00000  Uiso   1.00
H814   H     0.48668   0.86293   0.94316   0.00000  Uiso   1.00
H815   H     0.52430   0.88272   0.99838   0.00000  Uiso   1.00
H816   H     0.52310   0.53176   0.82920   0.00000  Uiso   1.00
H817   H     0.53903   0.96875   0.68611   0.00000  Uiso   1.00
H818   H     0.52052   0.61198   0.82859   0.00000  Uiso   1.00
H819   H     0.53622   0.88840   0.68503   0.00000  Uiso   1.00
H820   H     0.48426   0.60906   0.67206   0.00000  Uiso   1.00
H821   H     0.46752   0.88941   0.81699   0.00000  Uiso   1.00
H822   H     0.48346   0.52894   0.67270   0.00000  Uiso   1.00
N823   N     0.50000   0.75001   0.62934   0.00000  Uiso   1.00
N824   N     0.50000   0.74999   0.87065   0.00000  Uiso   1.00
N825   N     0.41662   0.71283   0.61678   0.00000  Uiso   1.00
N826   N     0.55629   0.81417   0.87779   0.00000  Uiso   1.00
O827   O     0.50000   0.68573   0.79071   0.00000  Uiso   1.00
O828   O     0.54523   0.82163   0.97598   0.00000  Uiso   1.00
O829   O     0.50000   0.81428   0.70928   0.00000  Uiso   1.00
O830   O     0.50000   0.68573   0.70928   0.00000  Uiso   1.00
O831   O     0.50000   0.81427   0.79072   0.00000  Uiso   1.00
O832   O     0.42495   0.75000   0.78132   0.00000  Uiso   1.00
O833   O     0.57505   0.75001   0.71868   0.00000  Uiso   1.00
O834   O     0.42495   0.75000   0.69988   0.00000  Uiso   1.00
O835   O     0.57505   0.75000   0.80011   0.00000  Uiso   1.00
O836   O     0.41075   0.72465   0.51725   0.00000  Uiso   1.00
C837   C     0.83376   0.66494   0.74994   0.00000  Uiso   1.00
C838   C     0.85659   0.78557   0.94955   0.00000  Uiso   1.00
C839   C     0.83310   0.75093   0.52711   0.00000  Uiso   1.00
C840   C     0.83349   0.75085   0.97260   0.00000  Uiso   1.00
C841   C     0.73454   0.74995   0.73745   0.00000  Uiso   1.00
C842   C     0.93213   0.75008   0.76255   0.00000  Uiso   1.00
C843   C     0.67912   0.74989   0.73064   0.00000  Uiso   1.00
C844   C     0.98756   0.75015   0.76936   0.00000  Uiso   1.00
C845   C     0.84696   0.54827   0.79473   0.00000  Uiso   1.00
C846   C     0.85588   0.95186   0.71443   0.00000  Uiso   1.00
C847   C     0.84581   0.59415   0.79434   0.00000  Uiso   1.00
C848   C     0.83369   0.83498   0.75025   0.00000  Uiso   1.00
C849   C     0.85454   0.90599   0.71392   0.00000  Uiso   1.00
C850   C     0.83505   0.61662   0.75018   0.00000  Uiso   1.00
C851   C     0.83484   0.88313   0.75084   0.00000  Uiso   1.00
C852   C     0.82561   0.59256   0.70650   0.00000  Uiso   1.00
C853   C     0.81646   0.90656   0.78829   0.00000  Uiso   1.00
C854   C     0.82578   0.54669   0.70691   0.00000  Uiso   1.00
C855   C     0.81687   0.95248   0.78832   0.00000  Uiso   1.00
C856   C     0.83655   0.52412   0.75103   0.00000  Uiso   1.00
C857   C     0.83662   0.97553   0.75138   0.00000  Uiso   1.00
C858   C     0.74557   0.66562   0.60844   0.00000  Uiso   1.00
C859   C     0.87658   0.76491   0.56008   0.00000  Uiso   1.00
C860   C     0.94492   0.80874   0.89018   0.00000  Uiso   1.00
C861   C     0.71442   0.76264   0.50500   0.00000  Uiso   1.00
C862   C     0.83955   0.85276   0.97960   0.00000  Uiso   1.00
C863   C     0.81018   0.71614   0.94264   0.00000  Uiso   1.00
C864   C     0.87528   0.76560   0.61053   0.00000  Uiso   1.00
C865   C     0.80911   0.71704   0.89194   0.00000  Uiso   1.00
C866   C     0.79141   0.73389   0.59811   0.00000  Uiso   1.00
C867   C     0.85931   0.78279   0.89907   0.00000  Uiso   1.00
C868   C     0.78906   0.73721   0.54704   0.00000  Uiso   1.00
Cu869  Cu    0.83333   0.75000   0.79821   0.00000  Uiso   1.00
Cu870  Cu    0.83333   0.75001   0.70178   0.00000  Uiso   1.00
H871   H     0.99210   0.74959   0.69363   0.00000  Uiso   1.00
H872   H     0.80095   0.96986   0.81678   0.00000  Uiso   1.00
H873   H     0.91178   0.77526   0.54714   0.00000  Uiso   1.00
H874   H     0.79279   0.68815   0.95818   0.00000  Uiso   1.00
H875   H     0.90865   0.77802   0.63454   0.00000  Uiso   1.00
H876   H     0.78966   0.69065   0.86974   0.00000  Uiso   1.00
H877   H     0.71508   0.72864   0.60832   0.00000  Uiso   1.00
H878   H     0.71984   0.65832   0.57375   0.00000  Uiso   1.00
H879   H     0.72869   0.65016   0.63861   0.00000  Uiso   1.00
H880   H     0.78397   0.65086   0.60668   0.00000  Uiso   1.00
H881   H     0.87866   0.84634   0.88252   0.00000  Uiso   1.00
H882   H     0.67459   0.75043   0.80637   0.00000  Uiso   1.00
H883   H     0.95809   0.81916   0.92841   0.00000  Uiso   1.00
H884   H     0.96504   0.82951   0.86598   0.00000  Uiso   1.00
H885   H     0.95580   0.77377   0.88542   0.00000  Uiso   1.00
H886   H     0.73400   0.78521   0.98201   0.00000  Uiso   1.00
H887   H     0.70564   0.78051   0.53790   0.00000  Uiso   1.00
H888   H     0.67703   0.75226   0.98351   0.00000  Uiso   1.00
H889   H     0.81062   0.83989   0.50165   0.00000  Uiso   1.00
H890   H     0.82001   0.86293   0.94316   0.00000  Uiso   1.00
H891   H     0.85764   0.88272   0.99838   0.00000  Uiso   1.00
H892   H     0.85643   0.53176   0.82920   0.00000  Uiso   1.00
H893   H     0.87237   0.96875   0.68611   0.00000  Uiso   1.00
H894   H     0.85385   0.61198   0.82859   0.00000  Uiso   1.00
H895   H     0.86955   0.88840   0.68503   0.00000  Uiso   1.00
H896   H     0.81759   0.60906   0.67206   0.00000  Uiso   1.00
H897   H     0.80085   0.88941   0.81699   0.00000  Uiso   1.00
H898   H     0.81679   0.52894   0.67270   0.00000  Uiso   1.00
N899   N     0.83333   0.75001   0.62934   0.00000  Uiso   1.00
N900   N     0.83333   0.74999   0.87065   0.00000  Uiso   1.00
N901   N     0.74995   0.71283   0.61678   0.00000  Uiso   1.00
N902   N     0.88962   0.81417   0.87779   0.00000  Uiso   1.00
O903   O     0.83334   0.68573   0.79071   0.00000  Uiso   1.00
O904   O     0.87857   0.82163   0.97598   0.00000  Uiso   1.00
O905   O     0.83333   0.81428   0.70928   0.00000  Uiso   1.00
O906   O     0.83334   0.68573   0.70928   0.00000  Uiso   1.00
O907   O     0.83333   0.81427   0.79072   0.00000  Uiso   1.00
O908   O     0.75828   0.75000   0.78132   0.00000  Uiso   1.00
O909   O     0.90839   0.75001   0.71868   0.00000  Uiso   1.00
O910   O     0.75828   0.75000   0.69988   0.00000  Uiso   1.00
O911   O     0.90839   0.75000   0.80011   0.00000  Uiso   1.00
O912   O     0.74408   0.72465   0.51725   0.00000  Uiso   1.00
loop_
_geom_bond_atom_site_label_1
_geom_bond_atom_site_label_2
_geom_bond_distance
_geom_bond_site_symmetry_2
_ccdc_geom_bond_type
C1     O70     1.299   .     A
C1     O67     1.294   .     A
C1     C14     1.464   .     S
C2     O68     1.383   .     S
C2     C31     1.419   .     A
C2     C4      1.413   .     A
C3     C23     1.411   .     A
C3     C32     1.411   .     A
C3     C460    1.518   1_554 S
C4     C27     1.412   .     A
C4     C459    1.518   .     S
C5     O72     1.285   .     A
C5     O74     1.292   .     A
C5     C7      1.434   .     S
C6     O75     1.292   .     A
C6     C8      1.434   .     S
C6     O73     1.285   .     A
C7     C160    1.339   1_455 S
C7     H187    1.087   1_455 S
C8     C83     1.339   .     S
C8     H122    1.087   .     S
C9     C20     1.404   .     A
C9     H56     1.083   .     S
C9     C11     1.390   .     A
C10    C21     1.404   .     A
C10    H57     1.083   .     S
C10    C13     1.389   .     A
C11    C14     1.403   .     A
C11    H58     1.083   .     S
C12    O69     1.295   .     A
C12    C15     1.458   .     S
C12    O71     1.295   .     A
C13    C15     1.401   .     A
C13    H59     1.083   .     S
C14    C16     1.400   .     A
C15    C17     1.401   .     A
C16    H60     1.079   .     S
C16    C18     1.389   .     A
C17    C19     1.391   .     A
C17    H61     1.083   .     S
C18    H62     1.083   .     S
C18    C20     1.404   .     A
C19    C21     1.405   .     A
C19    H36     1.083   .     S
C20    C249    1.472   1_545 S
C21    C248    1.472   .     S
C22    H44     1.111   .     S
C22    N65     1.447   .     S
C22    H43     1.110   .     S
C22    H42     1.111   .     S
C23    H37     1.082   .     S
C23    C28     1.409   .     A
C24    N66     1.448   .     S
C24    H48     1.110   .     S
C24    H49     1.111   .     S
C24    H47     1.111   .     S
C25    H51     1.113   .     S
C25    O76     1.410   .     S
C25    H506    1.112   1_554 S
C25    H508    1.109   1_554 S
C26    H55     1.109   .     S
C26    H54     1.114   .     S
C26    O68     1.410   .     S
C26    H509    1.112   .     S
C27    C29     1.407   .     A
C27    H38     1.082   .     S
C28    H39     1.080   .     S
C28    N63     1.366   .     A
C29    N64     1.363   .     A
C29    H40     1.081   .     S
C30    N63     1.377   .     A
C30    C32     1.418   .     A
C30    N65     1.418   .     S
C31    N66     1.420   .     S
C31    N64     1.374   .     A
C32    O76     1.383   .     S
Cu33   O72     1.950   .     S
Cu33   O75     1.956   .     S
Cu33   Cu34    2.683   .     S
Cu33   O67     1.956   .     S
Cu33   N64     2.016   .     S
Cu33   O71     1.960   .     S
Cu34   O70     1.960   .     S
Cu34   O69     1.956   .     S
Cu34   O74     1.956   .     S
Cu34   N63     2.016   .     S
Cu34   O73     1.950   .     S
H35    C83     1.087   .     S
H41    N65     1.031   .     S
H45    N66     1.031   .     S
H46    C160    1.087   1_455 S
H50    C481    1.112   .     S
H52    C481    1.109   .     S
H53    C482    1.112   1_554 S
C77    O146    1.299   .     A
C77    O143    1.294   .     A
C77    C90     1.464   .     S
C78    O144    1.383   .     S
C78    C107    1.419   .     A
C78    C80     1.413   .     A
C79    C99     1.411   .     A
C79    C108    1.411   .     A
C79    C536    1.518   1_554 S
C80    C103    1.412   .     A
C80    C535    1.518   .     S
C81    O148    1.285   .     A
C81    O150    1.292   .     A
C81    C83     1.434   .     S
C82    O151    1.292   .     A
C82    C84     1.434   .     S
C82    O149    1.285   .     A
C84    C159    1.339   .     S
C84    H198    1.087   .     S
C85    C96     1.404   .     A
C85    H132    1.083   .     S
C85    C87     1.390   .     A
C86    C97     1.404   .     A
C86    H133    1.083   .     S
C86    C89     1.389   .     A
C87    C90     1.403   .     A
C87    H134    1.083   .     S
C88    O145    1.295   .     A
C88    C91     1.458   .     S
C88    O147    1.295   .     A
C89    C91     1.401   .     A
C89    H135    1.083   .     S
C90    C92     1.400   .     A
C91    C93     1.401   .     A
C92    H136    1.079   .     S
C92    C94     1.389   .     A
C93    C95     1.391   .     A
C93    H137    1.083   .     S
C94    H138    1.083   .     S
C94    C96     1.404   .     A
C95    C97     1.405   .     A
C95    H112    1.083   .     S
C96    C325    1.472   1_545 S
C97    C324    1.472   .     S
C98    H120    1.111   .     S
C98    N141    1.447   .     S
C98    H119    1.110   .     S
C98    H118    1.111   .     S
C99    H113    1.082   .     S
C99    C104    1.409   .     A
C100   N142    1.448   .     S
C100   H124    1.110   .     S
C100   H125    1.111   .     S
C100   H123    1.111   .     S
C101   H127    1.113   .     S
C101   O152    1.410   .     S
C101   H582    1.112   1_554 S
C101   H584    1.109   1_554 S
C102   H131    1.109   .     S
C102   H130    1.114   .     S
C102   O144    1.410   .     S
C102   H585    1.112   .     S
C103   C105    1.407   .     A
C103   H114    1.082   .     S
C104   H115    1.080   .     S
C104   N139    1.366   .     A
C105   N140    1.363   .     A
C105   H116    1.081   .     S
C106   N139    1.377   .     A
C106   C108    1.418   .     A
C106   N141    1.418   .     S
C107   N142    1.420   .     S
C107   N140    1.374   .     A
C108   O152    1.383   .     S
Cu109  O148    1.950   .     S
Cu109  O151    1.956   .     S
Cu109  Cu110   2.683   .     S
Cu109  O143    1.956   .     S
Cu109  N140    2.016   .     S
Cu109  O147    1.960   .     S
Cu110  O146    1.960   .     S
Cu110  O145    1.956   .     S
Cu110  O150    1.956   .     S
Cu110  N139    2.016   .     S
Cu110  O149    1.950   .     S
H111   C159    1.087   .     S
H117   N141    1.031   .     S
H121   N142    1.031   .     S
H126   C557    1.112   .     S
H128   C557    1.109   .     S
H129   C558    1.112   1_554 S
C153   O222    1.299   .     A
C153   O219    1.294   .     A
C153   C166    1.464   .     S
C154   O220    1.383   .     S
C154   C183    1.419   .     A
C154   C156    1.413   .     A
C155   C175    1.411   .     A
C155   C184    1.411   .     A
C155   C612    1.518   1_554 S
C156   C179    1.412   .     A
C156   C611    1.518   .     S
C157   O224    1.285   .     A
C157   O226    1.292   .     A
C157   C159    1.434   .     S
C158   O227    1.292   .     A
C158   C160    1.434   .     S
C158   O225    1.285   .     A
C160   C7      1.339   1_655 S
C160   H46     1.087   1_655 S
C161   C172    1.404   .     A
C161   H208    1.083   .     S
C161   C163    1.390   .     A
C162   C173    1.404   .     A
C162   H209    1.083   .     S
C162   C165    1.389   .     A
C163   C166    1.403   .     A
C163   H210    1.083   .     S
C164   O221    1.295   .     A
C164   C167    1.458   .     S
C164   O223    1.295   .     A
C165   C167    1.401   .     A
C165   H211    1.083   .     S
C166   C168    1.400   .     A
C167   C169    1.401   .     A
C168   H212    1.079   .     S
C168   C170    1.389   .     A
C169   C171    1.391   .     A
C169   H213    1.083   .     S
C170   H214    1.083   .     S
C170   C172    1.404   .     A
C171   C173    1.405   .     A
C171   H188    1.083   .     S
C172   C401    1.472   1_545 S
C173   C400    1.472   .     S
C174   H196    1.111   .     S
C174   N217    1.447   .     S
C174   H195    1.110   .     S
C174   H194    1.111   .     S
C175   H189    1.082   .     S
C175   C180    1.409   .     A
C176   N218    1.448   .     S
C176   H200    1.110   .     S
C176   H201    1.111   .     S
C176   H199    1.111   .     S
C177   H203    1.113   .     S
C177   O228    1.410   .     S
C177   H658    1.112   1_554 S
C177   H660    1.109   1_554 S
C178   H207    1.109   .     S
C178   H206    1.114   .     S
C178   O220    1.410   .     S
C178   H661    1.112   .     S
C179   C181    1.407   .     A
C179   H190    1.082   .     S
C180   H191    1.080   .     S
C180   N215    1.366   .     A
C181   N216    1.363   .     A
C181   H192    1.081   .     S
C182   N215    1.377   .     A
C182   C184    1.418   .     A
C182   N217    1.418   .     S
C183   N218    1.420   .     S
C183   N216    1.374   .     A
C184   O228    1.383   .     S
Cu185  O224    1.950   .     S
Cu185  O227    1.956   .     S
Cu185  Cu186   2.683   .     S
Cu185  O219    1.956   .     S
Cu185  N216    2.016   .     S
Cu185  O223    1.960   .     S
Cu186  O222    1.960   .     S
Cu186  O221    1.956   .     S
Cu186  O226    1.956   .     S
Cu186  N215    2.016   .     S
Cu186  O225    1.950   .     S
H187   C7      1.087   1_655 S
H193   N217    1.031   .     S
H197   N218    1.031   .     S
H202   C633    1.112   .     S
H204   C633    1.109   .     S
H205   C634    1.112   1_554 S
C229   O298    1.299   .     A
C229   O295    1.294   .     A
C229   C242    1.464   .     S
C230   O296    1.383   .     S
C230   C259    1.419   .     A
C230   C232    1.413   .     A
C231   C251    1.411   .     A
C231   C260    1.411   .     A
C231   C688    1.518   1_554 S
C232   C255    1.412   .     A
C232   C687    1.518   .     S
C233   O300    1.285   .     A
C233   O302    1.292   .     A
C233   C235    1.434   .     S
C234   O303    1.292   .     A
C234   C236    1.434   .     S
C234   O301    1.285   .     A
C235   C388    1.339   1_455 S
C235   H415    1.087   1_455 S
C236   C311    1.339   .     S
C236   H350    1.087   .     S
C237   C248    1.404   .     A
C237   H284    1.083   .     S
C237   C239    1.390   .     A
C238   C249    1.404   .     A
C238   H285    1.083   .     S
C238   C241    1.389   .     A
C239   C242    1.403   .     A
C239   H286    1.083   .     S
C240   O297    1.295   .     A
C240   C243    1.458   .     S
C240   O299    1.295   .     A
C241   C243    1.401   .     A
C241   H287    1.083   .     S
C242   C244    1.400   .     A
C243   C245    1.401   .     A
C244   H288    1.079   .     S
C244   C246    1.389   .     A
C245   C247    1.391   .     A
C245   H289    1.083   .     S
C246   H290    1.083   .     S
C246   C248    1.404   .     A
C247   C249    1.405   .     A
C247   H264    1.083   .     S
C249   C20     1.472   1_565 S
C250   H272    1.111   .     S
C250   N293    1.447   .     S
C250   H271    1.110   .     S
C250   H270    1.111   .     S
C251   H265    1.082   .     S
C251   C256    1.409   .     A
C252   N294    1.448   .     S
C252   H276    1.110   .     S
C252   H277    1.111   .     S
C252   H275    1.111   .     S
C253   H279    1.113   .     S
C253   O304    1.410   .     S
C253   H734    1.112   1_554 S
C253   H736    1.109   1_554 S
C254   H283    1.109   .     S
C254   H282    1.114   .     S
C254   O296    1.410   .     S
C254   H737    1.112   .     S
C255   C257    1.407   .     A
C255   H266    1.082   .     S
C256   H267    1.080   .     S
C256   N291    1.366   .     A
C257   N292    1.363   .     A
C257   H268    1.081   .     S
C258   N291    1.377   .     A
C258   C260    1.418   .     A
C258   N293    1.418   .     S
C259   N294    1.420   .     S
C259   N292    1.374   .     A
C260   O304    1.383   .     S
Cu261  O300    1.950   .     S
Cu261  O303    1.956   .     S
Cu261  Cu262   2.683   .     S
Cu261  O295    1.956   .     S
Cu261  N292    2.016   .     S
Cu261  O299    1.960   .     S
Cu262  O298    1.960   .     S
Cu262  O297    1.956   .     S
Cu262  O302    1.956   .     S
Cu262  N291    2.016   .     S
Cu262  O301    1.950   .     S
H263   C311    1.087   .     S
H269   N293    1.031   .     S
H273   N294    1.031   .     S
H274   C388    1.087   1_455 S
H278   C709    1.112   .     S
H280   C709    1.109   .     S
H281   C710    1.112   1_554 S
C305   O374    1.299   .     A
C305   O371    1.294   .     A
C305   C318    1.464   .     S
C306   O372    1.383   .     S
C306   C335    1.419   .     A
C306   C308    1.413   .     A
C307   C327    1.411   .     A
C307   C336    1.411   .     A
C307   C764    1.518   1_554 S
C308   C331    1.412   .     A
C308   C763    1.518   .     S
C309   O376    1.285   .     A
C309   O378    1.292   .     A
C309   C311    1.434   .     S
C310   O379    1.292   .     A
C310   C312    1.434   .     S
C310   O377    1.285   .     A
C312   C387    1.339   .     S
C312   H426    1.087   .     S
C313   C324    1.404   .     A
C313   H360    1.083   .     S
C313   C315    1.390   .     A
C314   C325    1.404   .     A
C314   H361    1.083   .     S
C314   C317    1.389   .     A
C315   C318    1.403   .     A
C315   H362    1.083   .     S
C316   O373    1.295   .     A
C316   C319    1.458   .     S
C316   O375    1.295   .     A
C317   C319    1.401   .     A
C317   H363    1.083   .     S
C318   C320    1.400   .     A
C319   C321    1.401   .     A
C320   H364    1.079   .     S
C320   C322    1.389   .     A
C321   C323    1.391   .     A
C321   H365    1.083   .     S
C322   H366    1.083   .     S
C322   C324    1.404   .     A
C323   C325    1.405   .     A
C323   H340    1.083   .     S
C325   C96     1.472   1_565 S
C326   H348    1.111   .     S
C326   N369    1.447   .     S
C326   H347    1.110   .     S
C326   H346    1.111   .     S
C327   H341    1.082   .     S
C327   C332    1.409   .     A
C328   N370    1.448   .     S
C328   H352    1.110   .     S
C328   H353    1.111   .     S
C328   H351    1.111   .     S
C329   H355    1.113   .     S
C329   O380    1.410   .     S
C329   H810    1.112   1_554 S
C329   H812    1.109   1_554 S
C330   H359    1.109   .     S
C330   H358    1.114   .     S
C330   O372    1.410   .     S
C330   H813    1.112   .     S
C331   C333    1.407   .     A
C331   H342    1.082   .     S
C332   H343    1.080   .     S
C332   N367    1.366   .     A
C333   N368    1.363   .     A
C333   H344    1.081   .     S
C334   N367    1.377   .     A
C334   C336    1.418   .     A
C334   N369    1.418   .     S
C335   N370    1.420   .     S
C335   N368    1.374   .     A
C336   O380    1.383   .     S
Cu337  O376    1.950   .     S
Cu337  O379    1.956   .     S
Cu337  Cu338   2.683   .     S
Cu337  O371    1.956   .     S
Cu337  N368    2.016   .     S
Cu337  O375    1.960   .     S
Cu338  O374    1.960   .     S
Cu338  O373    1.956   .     S
Cu338  O378    1.956   .     S
Cu338  N367    2.016   .     S
Cu338  O377    1.950   .     S
H339   C387    1.087   .     S
H345   N369    1.031   .     S
H349   N370    1.031   .     S
H354   C785    1.112   .     S
H356   C785    1.109   .     S
H357   C786    1.112   1_554 S
C381   O450    1.299   .     A
C381   O447    1.294   .     A
C381   C394    1.464   .     S
C382   O448    1.383   .     S
C382   C411    1.419   .     A
C382   C384    1.413   .     A
C383   C403    1.411   .     A
C383   C412    1.411   .     A
C383   C840    1.518   1_554 S
C384   C407    1.412   .     A
C384   C839    1.518   .     S
C385   O452    1.285   .     A
C385   O454    1.292   .     A
C385   C387    1.434   .     S
C386   O455    1.292   .     A
C386   C388    1.434   .     S
C386   O453    1.285   .     A
C388   C235    1.339   1_655 S
C388   H274    1.087   1_655 S
C389   C400    1.404   .     A
C389   H436    1.083   .     S
C389   C391    1.390   .     A
C390   C401    1.404   .     A
C390   H437    1.083   .     S
C390   C393    1.389   .     A
C391   C394    1.403   .     A
C391   H438    1.083   .     S
C392   O449    1.295   .     A
C392   C395    1.458   .     S
C392   O451    1.295   .     A
C393   C395    1.401   .     A
C393   H439    1.083   .     S
C394   C396    1.400   .     A
C395   C397    1.401   .     A
C396   H440    1.079   .     S
C396   C398    1.389   .     A
C397   C399    1.391   .     A
C397   H441    1.083   .     S
C398   H442    1.083   .     S
C398   C400    1.404   .     A
C399   C401    1.405   .     A
C399   H416    1.083   .     S
C401   C172    1.472   1_565 S
C402   H424    1.111   .     S
C402   N445    1.447   .     S
C402   H423    1.110   .     S
C402   H422    1.111   .     S
C403   H417    1.082   .     S
C403   C408    1.409   .     A
C404   N446    1.448   .     S
C404   H428    1.110   .     S
C404   H429    1.111   .     S
C404   H427    1.111   .     S
C405   H431    1.113   .     S
C405   O456    1.410   .     S
C405   H886    1.112   1_554 S
C405   H888    1.109   1_554 S
C406   H435    1.109   .     S
C406   H434    1.114   .     S
C406   O448    1.410   .     S
C406   H889    1.112   .     S
C407   C409    1.407   .     A
C407   H418    1.082   .     S
C408   H419    1.080   .     S
C408   N443    1.366   .     A
C409   N444    1.363   .     A
C409   H420    1.081   .     S
C410   N443    1.377   .     A
C410   C412    1.418   .     A
C410   N445    1.418   .     S
C411   N446    1.420   .     S
C411   N444    1.374   .     A
C412   O456    1.383   .     S
Cu413  O452    1.950   .     S
Cu413  O455    1.956   .     S
Cu413  Cu414   2.683   .     S
Cu413  O447    1.956   .     S
Cu413  N444    2.016   .     S
Cu413  O451    1.960   .     S
Cu414  O450    1.960   .     S
Cu414  O449    1.956   .     S
Cu414  O454    1.956   .     S
Cu414  N443    2.016   .     S
Cu414  O453    1.950   .     S
H415   C235    1.087   1_655 S
H421   N445    1.031   .     S
H425   N446    1.031   .     S
H430   C861    1.112   .     S
H432   C861    1.109   .     S
H433   C862    1.112   1_554 S
C457   O526    1.299   .     A
C457   O523    1.294   .     A
C457   C470    1.464   .     S
C458   O524    1.383   .     S
C458   C487    1.419   .     A
C458   C460    1.413   .     A
C459   C479    1.411   .     A
C459   C488    1.411   .     A
C460   C483    1.412   .     A
C460   C3      1.518   1_556 S
C461   O528    1.285   .     A
C461   O530    1.292   .     A
C461   C463    1.434   .     S
C462   O531    1.292   .     A
C462   C464    1.434   .     S
C462   O529    1.285   .     A
C463   C616    1.339   1_455 S
C463   H643    1.087   1_455 S
C464   C539    1.339   .     S
C464   H578    1.087   .     S
C465   C476    1.404   .     A
C465   H512    1.083   .     S
C465   C467    1.390   .     A
C466   C477    1.404   .     A
C466   H513    1.083   .     S
C466   C469    1.389   .     A
C467   C470    1.403   .     A
C467   H514    1.083   .     S
C468   O525    1.295   .     A
C468   C471    1.458   .     S
C468   O527    1.295   .     A
C469   C471    1.401   .     A
C469   H515    1.083   .     S
C470   C472    1.400   .     A
C471   C473    1.401   .     A
C472   H516    1.079   .     S
C472   C474    1.389   .     A
C473   C475    1.391   .     A
C473   H517    1.083   .     S
C474   H518    1.083   .     S
C474   C476    1.404   .     A
C475   C477    1.405   .     A
C475   H492    1.083   .     S
C476   C705    1.472   1_545 S
C477   C704    1.472   .     S
C478   H500    1.111   .     S
C478   N521    1.447   .     S
C478   H499    1.110   .     S
C478   H498    1.111   .     S
C479   H493    1.082   .     S
C479   C484    1.409   .     A
C480   N522    1.448   .     S
C480   H504    1.110   .     S
C480   H505    1.111   .     S
C480   H503    1.111   .     S
C481   H507    1.113   .     S
C481   O532    1.410   .     S
C482   H511    1.109   .     S
C482   H510    1.114   .     S
C482   O524    1.410   .     S
C482   H53     1.112   1_556 S
C483   C485    1.407   .     A
C483   H494    1.082   .     S
C484   H495    1.080   .     S
C484   N519    1.366   .     A
C485   N520    1.363   .     A
C485   H496    1.081   .     S
C486   N519    1.377   .     A
C486   C488    1.418   .     A
C486   N521    1.418   .     S
C487   N522    1.420   .     S
C487   N520    1.374   .     A
C488   O532    1.383   .     S
Cu489  O528    1.950   .     S
Cu489  O531    1.956   .     S
Cu489  Cu490   2.683   .     S
Cu489  O523    1.956   .     S
Cu489  N520    2.016   .     S
Cu489  O527    1.960   .     S
Cu490  O526    1.960   .     S
Cu490  O525    1.956   .     S
Cu490  O530    1.956   .     S
Cu490  N519    2.016   .     S
Cu490  O529    1.950   .     S
H491   C539    1.087   .     S
H497   N521    1.031   .     S
H501   N522    1.031   .     S
H502   C616    1.087   1_455 S
H506   C25     1.112   1_556 S
H508   C25     1.109   1_556 S
C533   O602    1.299   .     A
C533   O599    1.294   .     A
C533   C546    1.464   .     S
C534   O600    1.383   .     S
C534   C563    1.419   .     A
C534   C536    1.413   .     A
C535   C555    1.411   .     A
C535   C564    1.411   .     A
C536   C559    1.412   .     A
C536   C79     1.518   1_556 S
C537   O604    1.285   .     A
C537   O606    1.292   .     A
C537   C539    1.434   .     S
C538   O607    1.292   .     A
C538   C540    1.434   .     S
C538   O605    1.285   .     A
C540   C615    1.339   .     S
C540   H654    1.087   .     S
C541   C552    1.404   .     A
C541   H588    1.083   .     S
C541   C543    1.390   .     A
C542   C553    1.404   .     A
C542   H589    1.083   .     S
C542   C545    1.389   .     A
C543   C546    1.403   .     A
C543   H590    1.083   .     S
C544   O601    1.295   .     A
C544   C547    1.458   .     S
C544   O603    1.295   .     A
C545   C547    1.401   .     A
C545   H591    1.083   .     S
C546   C548    1.400   .     A
C547   C549    1.401   .     A
C548   H592    1.079   .     S
C548   C550    1.389   .     A
C549   C551    1.391   .     A
C549   H593    1.083   .     S
C550   H594    1.083   .     S
C550   C552    1.404   .     A
C551   C553    1.405   .     A
C551   H568    1.083   .     S
C552   C781    1.472   1_545 S
C553   C780    1.472   .     S
C554   H576    1.111   .     S
C554   N597    1.447   .     S
C554   H575    1.110   .     S
C554   H574    1.111   .     S
C555   H569    1.082   .     S
C555   C560    1.409   .     A
C556   N598    1.448   .     S
C556   H580    1.110   .     S
C556   H581    1.111   .     S
C556   H579    1.111   .     S
C557   H583    1.113   .     S
C557   O608    1.410   .     S
C558   H587    1.109   .     S
C558   H586    1.114   .     S
C558   O600    1.410   .     S
C558   H129    1.112   1_556 S
C559   C561    1.407   .     A
C559   H570    1.082   .     S
C560   H571    1.080   .     S
C560   N595    1.366   .     A
C561   N596    1.363   .     A
C561   H572    1.081   .     S
C562   N595    1.377   .     A
C562   C564    1.418   .     A
C562   N597    1.418   .     S
C563   N598    1.420   .     S
C563   N596    1.374   .     A
C564   O608    1.383   .     S
Cu565  O604    1.950   .     S
Cu565  O607    1.956   .     S
Cu565  Cu566   2.683   .     S
Cu565  O599    1.956   .     S
Cu565  N596    2.016   .     S
Cu565  O603    1.960   .     S
Cu566  O602    1.960   .     S
Cu566  O601    1.956   .     S
Cu566  O606    1.956   .     S
Cu566  N595    2.016   .     S
Cu566  O605    1.950   .     S
H567   C615    1.087   .     S
H573   N597    1.031   .     S
H577   N598    1.031   .     S
H582   C101    1.112   1_556 S
H584   C101    1.109   1_556 S
C609   O678    1.299   .     A
C609   O675    1.294   .     A
C609   C622    1.464   .     S
C610   O676    1.383   .     S
C610   C639    1.419   .     A
C610   C612    1.413   .     A
C611   C631    1.411   .     A
C611   C640    1.411   .     A
C612   C635    1.412   .     A
C612   C155    1.518   1_556 S
C613   O680    1.285   .     A
C613   O682    1.292   .     A
C613   C615    1.434   .     S
C614   O683    1.292   .     A
C614   C616    1.434   .     S
C614   O681    1.285   .     A
C616   C463    1.339   1_655 S
C616   H502    1.087   1_655 S
C617   C628    1.404   .     A
C617   H664    1.083   .     S
C617   C619    1.390   .     A
C618   C629    1.404   .     A
C618   H665    1.083   .     S
C618   C621    1.389   .     A
C619   C622    1.403   .     A
C619   H666    1.083   .     S
C620   O677    1.295   .     A
C620   C623    1.458   .     S
C620   O679    1.295   .     A
C621   C623    1.401   .     A
C621   H667    1.083   .     S
C622   C624    1.400   .     A
C623   C625    1.401   .     A
C624   H668    1.079   .     S
C624   C626    1.389   .     A
C625   C627    1.391   .     A
C625   H669    1.083   .     S
C626   H670    1.083   .     S
C626   C628    1.404   .     A
C627   C629    1.405   .     A
C627   H644    1.083   .     S
C628   C857    1.472   1_545 S
C629   C856    1.472   .     S
C630   H652    1.111   .     S
C630   N673    1.447   .     S
C630   H651    1.110   .     S
C630   H650    1.111   .     S
C631   H645    1.082   .     S
C631   C636    1.409   .     A
C632   N674    1.448   .     S
C632   H656    1.110   .     S
C632   H657    1.111   .     S
C632   H655    1.111   .     S
C633   H659    1.113   .     S
C633   O684    1.410   .     S
C634   H663    1.109   .     S
C634   H662    1.114   .     S
C634   O676    1.410   .     S
C634   H205    1.112   1_556 S
C635   C637    1.407   .     A
C635   H646    1.082   .     S
C636   H647    1.080   .     S
C636   N671    1.366   .     A
C637   N672    1.363   .     A
C637   H648    1.081   .     S
C638   N671    1.377   .     A
C638   C640    1.418   .     A
C638   N673    1.418   .     S
C639   N674    1.420   .     S
C639   N672    1.374   .     A
C640   O684    1.383   .     S
Cu641  O680    1.950   .     S
Cu641  O683    1.956   .     S
Cu641  Cu642   2.683   .     S
Cu641  O675    1.956   .     S
Cu641  N672    2.016   .     S
Cu641  O679    1.960   .     S
Cu642  O678    1.960   .     S
Cu642  O677    1.956   .     S
Cu642  O682    1.956   .     S
Cu642  N671    2.016   .     S
Cu642  O681    1.950   .     S
H643   C463    1.087   1_655 S
H649   N673    1.031   .     S
H653   N674    1.031   .     S
H658   C177    1.112   1_556 S
H660   C177    1.109   1_556 S
C685   O754    1.299   .     A
C685   O751    1.294   .     A
C685   C698    1.464   .     S
C686   O752    1.383   .     S
C686   C715    1.419   .     A
C686   C688    1.413   .     A
C687   C707    1.411   .     A
C687   C716    1.411   .     A
C688   C711    1.412   .     A
C688   C231    1.518   1_556 S
C689   O756    1.285   .     A
C689   O758    1.292   .     A
C689   C691    1.434   .     S
C690   O759    1.292   .     A
C690   C692    1.434   .     S
C690   O757    1.285   .     A
C691   C844    1.339   1_455 S
C691   H871    1.087   1_455 S
C692   C767    1.339   .     S
C692   H806    1.087   .     S
C693   C704    1.404   .     A
C693   H740    1.083   .     S
C693   C695    1.390   .     A
C694   C705    1.404   .     A
C694   H741    1.083   .     S
C694   C697    1.389   .     A
C695   C698    1.403   .     A
C695   H742    1.083   .     S
C696   O753    1.295   .     A
C696   C699    1.458   .     S
C696   O755    1.295   .     A
C697   C699    1.401   .     A
C697   H743    1.083   .     S
C698   C700    1.400   .     A
C699   C701    1.401   .     A
C700   H744    1.079   .     S
C700   C702    1.389   .     A
C701   C703    1.391   .     A
C701   H745    1.083   .     S
C702   H746    1.083   .     S
C702   C704    1.404   .     A
C703   C705    1.405   .     A
C703   H720    1.083   .     S
C705   C476    1.472   1_565 S
C706   H728    1.111   .     S
C706   N749    1.447   .     S
C706   H727    1.110   .     S
C706   H726    1.111   .     S
C707   H721    1.082   .     S
C707   C712    1.409   .     A
C708   N750    1.448   .     S
C708   H732    1.110   .     S
C708   H733    1.111   .     S
C708   H731    1.111   .     S
C709   H735    1.113   .     S
C709   O760    1.410   .     S
C710   H739    1.109   .     S
C710   H738    1.114   .     S
C710   O752    1.410   .     S
C710   H281    1.112   1_556 S
C711   C713    1.407   .     A
C711   H722    1.082   .     S
C712   H723    1.080   .     S
C712   N747    1.366   .     A
C713   N748    1.363   .     A
C713   H724    1.081   .     S
C714   N747    1.377   .     A
C714   C716    1.418   .     A
C714   N749    1.418   .     S
C715   N750    1.420   .     S
C715   N748    1.374   .     A
C716   O760    1.383   .     S
Cu717  O756    1.950   .     S
Cu717  O759    1.956   .     S
Cu717  Cu718   2.683   .     S
Cu717  O751    1.956   .     S
Cu717  N748    2.016   .     S
Cu717  O755    1.960   .     S
Cu718  O754    1.960   .     S
Cu718  O753    1.956   .     S
Cu718  O758    1.956   .     S
Cu718  N747    2.016   .     S
Cu718  O757    1.950   .     S
H719   C767    1.087   .     S
H725   N749    1.031   .     S
H729   N750    1.031   .     S
H730   C844    1.087   1_455 S
H734   C253    1.112   1_556 S
H736   C253    1.109   1_556 S
C761   O830    1.299   .     A
C761   O827    1.294   .     A
C761   C774    1.464   .     S
C762   O828    1.383   .     S
C762   C791    1.419   .     A
C762   C764    1.413   .     A
C763   C783    1.411   .     A
C763   C792    1.411   .     A
C764   C787    1.412   .     A
C764   C307    1.518   1_556 S
C765   O832    1.285   .     A
C765   O834    1.292   .     A
C765   C767    1.434   .     S
C766   O835    1.292   .     A
C766   C768    1.434   .     S
C766   O833    1.285   .     A
C768   C843    1.339   .     S
C768   H882    1.087   .     S
C769   C780    1.404   .     A
C769   H816    1.083   .     S
C769   C771    1.390   .     A
C770   C781    1.404   .     A
C770   H817    1.083   .     S
C770   C773    1.389   .     A
C771   C774    1.403   .     A
C771   H818    1.083   .     S
C772   O829    1.295   .     A
C772   C775    1.458   .     S
C772   O831    1.295   .     A
C773   C775    1.401   .     A
C773   H819    1.083   .     S
C774   C776    1.400   .     A
C775   C777    1.401   .     A
C776   H820    1.079   .     S
C776   C778    1.389   .     A
C777   C779    1.391   .     A
C777   H821    1.083   .     S
C778   H822    1.083   .     S
C778   C780    1.404   .     A
C779   C781    1.405   .     A
C779   H796    1.083   .     S
C781   C552    1.472   1_565 S
C782   H804    1.111   .     S
C782   N825    1.447   .     S
C782   H803    1.110   .     S
C782   H802    1.111   .     S
C783   H797    1.082   .     S
C783   C788    1.409   .     A
C784   N826    1.448   .     S
C784   H808    1.110   .     S
C784   H809    1.111   .     S
C784   H807    1.111   .     S
C785   H811    1.113   .     S
C785   O836    1.410   .     S
C786   H815    1.109   .     S
C786   H814    1.114   .     S
C786   O828    1.410   .     S
C786   H357    1.112   1_556 S
C787   C789    1.407   .     A
C787   H798    1.082   .     S
C788   H799    1.080   .     S
C788   N823    1.366   .     A
C789   N824    1.363   .     A
C789   H800    1.081   .     S
C790   N823    1.377   .     A
C790   C792    1.418   .     A
C790   N825    1.418   .     S
C791   N826    1.420   .     S
C791   N824    1.374   .     A
C792   O836    1.383   .     S
Cu793  O832    1.950   .     S
Cu793  O835    1.956   .     S
Cu793  Cu794   2.683   .     S
Cu793  O827    1.956   .     S
Cu793  N824    2.016   .     S
Cu793  O831    1.960   .     S
Cu794  O830    1.960   .     S
Cu794  O829    1.956   .     S
Cu794  O834    1.956   .     S
Cu794  N823    2.016   .     S
Cu794  O833    1.950   .     S
H795   C843    1.087   .     S
H801   N825    1.031   .     S
H805   N826    1.031   .     S
H810   C329    1.112   1_556 S
H812   C329    1.109   1_556 S
C837   O906    1.299   .     A
C837   O903    1.294   .     A
C837   C850    1.464   .     S
C838   O904    1.383   .     S
C838   C867    1.419   .     A
C838   C840    1.413   .     A
C839   C859    1.411   .     A
C839   C868    1.411   .     A
C840   C863    1.412   .     A
C840   C383    1.518   1_556 S
C841   O908    1.285   .     A
C841   O910    1.292   .     A
C841   C843    1.434   .     S
C842   O911    1.292   .     A
C842   C844    1.434   .     S
C842   O909    1.285   .     A
C844   C691    1.339   1_655 S
C844   H730    1.087   1_655 S
C845   C856    1.404   .     A
C845   H892    1.083   .     S
C845   C847    1.390   .     A
C846   C857    1.404   .     A
C846   H893    1.083   .     S
C846   C849    1.389   .     A
C847   C850    1.403   .     A
C847   H894    1.083   .     S
C848   O905    1.295   .     A
C848   C851    1.458   .     S
C848   O907    1.295   .     A
C849   C851    1.401   .     A
C849   H895    1.083   .     S
C850   C852    1.400   .     A
C851   C853    1.401   .     A
C852   H896    1.079   .     S
C852   C854    1.389   .     A
C853   C855    1.391   .     A
C853   H897    1.083   .     S
C854   H898    1.083   .     S
C854   C856    1.404   .     A
C855   C857    1.405   .     A
C855   H872    1.083   .     S
C857   C628    1.472   1_565 S
C858   H880    1.111   .     S
C858   N901    1.447   .     S
C858   H879    1.110   .     S
C858   H878    1.111   .     S
C859   H873    1.082   .     S
C859   C864    1.409   .     A
C860   N902    1.448   .     S
C860   H884    1.110   .     S
C860   H885    1.111   .     S
C860   H883    1.111   .     S
C861   H887    1.113   .     S
C861   O912    1.410   .     S
C862   H891    1.109   .     S
C862   H890    1.114   .     S
C862   O904    1.410   .     S
C862   H433    1.112   1_556 S
C863   C865    1.407   .     A
C863   H874    1.082   .     S
C864   H875    1.080   .     S
C864   N899    1.366   .     A
C865   N900    1.363   .     A
C865   H876    1.081   .     S
C866   N899    1.377   .     A
C866   C868    1.418   .     A
C866   N901    1.418   .     S
C867   N902    1.420   .     S
C867   N900    1.374   .     A
C868   O912    1.383   .     S
Cu869  O908    1.950   .     S
Cu869  O911    1.956   .     S
Cu869  Cu870   2.683   .     S
Cu869  O903    1.956   .     S
Cu869  N900    2.016   .     S
Cu869  O907    1.960   .     S
Cu870  O906    1.960   .     S
Cu870  O905    1.956   .     S
Cu870  O910    1.956   .     S
Cu870  N899    2.016   .     S
Cu870  O909    1.950   .     S
H871   C691    1.087   1_655 S
H877   N901    1.031   .     S
H881   N902    1.031   .     S
H886   C405    1.112   1_556 S
H888   C405    1.109   1_556 S
