data_str_m2_o1_o10_pcu_sym.196
_audit_creation_date              2020-01-03
_audit_creation_method            'Materials Studio'
_symmetry_space_group_name_H-M    'P1'
_symmetry_Int_Tables_number       1
_symmetry_cell_setting            triclinic
loop_
_symmetry_equiv_pos_as_xyz
  x,y,z
_cell_length_a                    26.1302
_cell_length_b                    32.5408
_cell_length_c                    28.8022
_cell_angle_alpha                 89.2389
_cell_angle_beta                  96.7422
_cell_angle_gamma                 92.1924
loop_
_atom_site_label
_atom_site_type_symbol
_atom_site_fract_x
_atom_site_fract_y
_atom_site_fract_z
_atom_site_U_iso_or_equiv
_atom_site_adp_type
_atom_site_occupancy
C1     C     0.16840   0.08755   0.16692   0.00000  Uiso   1.00
C2     C     0.16519   0.24581   0.16644   0.00000  Uiso   1.00
C3     C     0.06812   0.16625   0.15489   0.00000  Uiso   1.00
C4     C     0.26520   0.16718   0.17842   0.00000  Uiso   1.00
C5     C     0.01300   0.16471   0.14844   0.00000  Uiso   1.00
C6     C     0.32030   0.16890   0.18480   0.00000  Uiso   1.00
C7     C     0.18652   0.02147   0.12929   0.00000  Uiso   1.00
C8     C     0.14777   0.31195   0.20425   0.00000  Uiso   1.00
C9     C     0.18271   0.31217   0.12937   0.00000  Uiso   1.00
C10    C     0.15171   0.02120   0.20421   0.00000  Uiso   1.00
C11    C     0.16404   0.29048   0.16650   0.00000  Uiso   1.00
C12    C     0.16999   0.04290   0.16694   0.00000  Uiso   1.00
C13    C     0.12762   0.14782   0.02166   0.00000  Uiso   1.00
C14    C     0.20589   0.18532   0.31174   0.00000  Uiso   1.00
C15    C     0.12690   0.14772   0.30572   0.00000  Uiso   1.00
C16    C     0.20624   0.18584   0.02762   0.00000  Uiso   1.00
Cu17   Cu    0.16667   0.16667   0.21355   0.00000  Uiso   1.00
Cu18   Cu    0.16667   0.16666   0.11978   0.00000  Uiso   1.00
H19    H     0.32701   0.15961   0.11350   0.00000  Uiso   1.00
H20    H     0.00624   0.17416   0.21968   0.00000  Uiso   1.00
H21    H     0.19615   0.29596   0.10088   0.00000  Uiso   1.00
H22    H     0.13885   0.03736   0.23300   0.00000  Uiso   1.00
H23    H     0.09678   0.13241   0.03795   0.00000  Uiso   1.00
H24    H     0.23670   0.20079   0.29548   0.00000  Uiso   1.00
N25    N     0.16668   0.16668   0.28403   0.00000  Uiso   1.00
N26    N     0.16665   0.16666   0.04931   0.00000  Uiso   1.00
O27    O     0.16666   0.10655   0.20625   0.00000  Uiso   1.00
O28    O     0.16667   0.22678   0.12709   0.00000  Uiso   1.00
O29    O     0.16666   0.10654   0.12706   0.00000  Uiso   1.00
O30    O     0.16667   0.22679   0.20628   0.00000  Uiso   1.00
O31    O     0.09161   0.16667   0.19712   0.00000  Uiso   1.00
O32    O     0.24172   0.16666   0.13621   0.00000  Uiso   1.00
O33    O     0.09161   0.16666   0.11793   0.00000  Uiso   1.00
O34    O     0.24172   0.16667   0.21540   0.00000  Uiso   1.00
C35    C     0.20966   0.04218   0.09018   0.00000  Uiso   1.00
C36    C     0.18323   0.04139   0.04482   0.00000  Uiso   1.00
C37    C     0.20471   0.06140   0.00803   0.00000  Uiso   1.00
C38    C     0.25284   0.08190   0.01614   0.00000  Uiso   1.00
C39    C     0.27961   0.08243   0.06109   0.00000  Uiso   1.00
C40    C     0.25807   0.06280   0.09813   0.00000  Uiso   1.00
H41    H     0.14579   0.02576   0.03814   0.00000  Uiso   1.00
H42    H     0.18399   0.06115   0.30660   0.00000  Uiso   1.00
H43    H     0.26938   0.09737   0.32093   0.00000  Uiso   1.00
H44    H     0.31709   0.09799   0.06716   0.00000  Uiso   1.00
H45    H     0.27901   0.06363   0.13289   0.00000  Uiso   1.00
C46    C     0.12536   0.29134   0.24378   0.00000  Uiso   1.00
C47    C     0.07713   0.27034   0.23655   0.00000  Uiso   1.00
C48    C     0.05659   0.25053   0.27398   0.00000  Uiso   1.00
C49    C     0.08411   0.25136   0.31862   0.00000  Uiso   1.00
C50    C     0.13193   0.27238   0.32604   0.00000  Uiso   1.00
C51    C     0.15248   0.29249   0.28885   0.00000  Uiso   1.00
H52    H     0.05567   0.26924   0.20202   0.00000  Uiso   1.00
H53    H     0.01935   0.23453   0.26846   0.00000  Uiso   1.00
H54    H     0.06852   0.23564   0.01411   0.00000  Uiso   1.00
H55    H     0.15320   0.27286   0.02722   0.00000  Uiso   1.00
H56    H     0.18978   0.30841   0.29498   0.00000  Uiso   1.00
C57    C     0.08080   0.12701   0.28030   0.00000  Uiso   1.00
O58    O     0.03817   0.13416   0.29118   0.00000  Uiso   1.00
O59    O     0.08535   0.09688   0.24733   0.00000  Uiso   1.00
H60    H     0.05074   0.08459   0.23349   0.00000  Uiso   1.00
C61    C     0.25106   0.20816   0.05297   0.00000  Uiso   1.00
O62    O     0.24536   0.23347   0.08253   0.00000  Uiso   1.00
O63    O     0.30017   0.20281   0.03973   0.00000  Uiso   1.00
H64    H     0.32771   0.22072   0.05826   0.00000  Uiso   1.00
C65    C     0.50173   0.08755   0.16692   0.00000  Uiso   1.00
C66    C     0.49853   0.24581   0.16644   0.00000  Uiso   1.00
C67    C     0.40145   0.16625   0.15489   0.00000  Uiso   1.00
C68    C     0.59854   0.16718   0.17842   0.00000  Uiso   1.00
C69    C     0.34633   0.16471   0.14844   0.00000  Uiso   1.00
C70    C     0.65364   0.16890   0.18480   0.00000  Uiso   1.00
C71    C     0.51985   0.02147   0.12929   0.00000  Uiso   1.00
C72    C     0.48110   0.31195   0.20425   0.00000  Uiso   1.00
C73    C     0.51604   0.31217   0.12937   0.00000  Uiso   1.00
C74    C     0.48505   0.02120   0.20421   0.00000  Uiso   1.00
C75    C     0.49737   0.29048   0.16650   0.00000  Uiso   1.00
C76    C     0.50332   0.04290   0.16694   0.00000  Uiso   1.00
C77    C     0.46095   0.14782   0.02166   0.00000  Uiso   1.00
C78    C     0.53922   0.18532   0.31174   0.00000  Uiso   1.00
C79    C     0.46023   0.14772   0.30572   0.00000  Uiso   1.00
C80    C     0.53958   0.18584   0.02762   0.00000  Uiso   1.00
Cu81   Cu    0.50000   0.16667   0.21355   0.00000  Uiso   1.00
Cu82   Cu    0.50000   0.16666   0.11978   0.00000  Uiso   1.00
H83    H     0.66034   0.15961   0.11350   0.00000  Uiso   1.00
H84    H     0.33958   0.17416   0.21968   0.00000  Uiso   1.00
H85    H     0.52949   0.29596   0.10088   0.00000  Uiso   1.00
H86    H     0.47218   0.03736   0.23300   0.00000  Uiso   1.00
H87    H     0.43012   0.13241   0.03795   0.00000  Uiso   1.00
H88    H     0.57003   0.20079   0.29548   0.00000  Uiso   1.00
N89    N     0.50001   0.16668   0.28403   0.00000  Uiso   1.00
N90    N     0.49999   0.16666   0.04931   0.00000  Uiso   1.00
O91    O     0.50000   0.10655   0.20625   0.00000  Uiso   1.00
O92    O     0.50000   0.22678   0.12709   0.00000  Uiso   1.00
O93    O     0.50000   0.10654   0.12706   0.00000  Uiso   1.00
O94    O     0.50000   0.22679   0.20628   0.00000  Uiso   1.00
O95    O     0.42495   0.16667   0.19712   0.00000  Uiso   1.00
O96    O     0.57505   0.16666   0.13621   0.00000  Uiso   1.00
O97    O     0.42494   0.16666   0.11793   0.00000  Uiso   1.00
O98    O     0.57506   0.16667   0.21540   0.00000  Uiso   1.00
C99    C     0.54299   0.04218   0.09018   0.00000  Uiso   1.00
C100   C     0.51656   0.04139   0.04482   0.00000  Uiso   1.00
C101   C     0.53805   0.06140   0.00803   0.00000  Uiso   1.00
C102   C     0.58617   0.08190   0.01614   0.00000  Uiso   1.00
C103   C     0.61294   0.08243   0.06109   0.00000  Uiso   1.00
C104   C     0.59141   0.06280   0.09813   0.00000  Uiso   1.00
H105   H     0.47912   0.02576   0.03814   0.00000  Uiso   1.00
H106   H     0.51732   0.06115   0.30660   0.00000  Uiso   1.00
H107   H     0.60271   0.09737   0.32093   0.00000  Uiso   1.00
H108   H     0.65042   0.09799   0.06716   0.00000  Uiso   1.00
H109   H     0.61235   0.06363   0.13289   0.00000  Uiso   1.00
C110   C     0.45869   0.29134   0.24378   0.00000  Uiso   1.00
C111   C     0.41046   0.27034   0.23655   0.00000  Uiso   1.00
C112   C     0.38992   0.25053   0.27398   0.00000  Uiso   1.00
C113   C     0.41745   0.25136   0.31862   0.00000  Uiso   1.00
C114   C     0.46526   0.27238   0.32604   0.00000  Uiso   1.00
C115   C     0.48581   0.29249   0.28885   0.00000  Uiso   1.00
H116   H     0.38901   0.26924   0.20202   0.00000  Uiso   1.00
H117   H     0.35269   0.23453   0.26846   0.00000  Uiso   1.00
H118   H     0.40185   0.23564   0.01411   0.00000  Uiso   1.00
H119   H     0.48653   0.27286   0.02722   0.00000  Uiso   1.00
H120   H     0.52311   0.30841   0.29498   0.00000  Uiso   1.00
C121   C     0.41413   0.12701   0.28030   0.00000  Uiso   1.00
O122   O     0.37150   0.13416   0.29118   0.00000  Uiso   1.00
O123   O     0.41868   0.09688   0.24733   0.00000  Uiso   1.00
H124   H     0.38407   0.08459   0.23349   0.00000  Uiso   1.00
C125   C     0.58439   0.20816   0.05297   0.00000  Uiso   1.00
O126   O     0.57870   0.23347   0.08253   0.00000  Uiso   1.00
O127   O     0.63351   0.20281   0.03973   0.00000  Uiso   1.00
H128   H     0.66104   0.22072   0.05826   0.00000  Uiso   1.00
C129   C     0.83507   0.08755   0.16692   0.00000  Uiso   1.00
C130   C     0.83186   0.24581   0.16644   0.00000  Uiso   1.00
C131   C     0.73479   0.16625   0.15489   0.00000  Uiso   1.00
C132   C     0.93187   0.16718   0.17842   0.00000  Uiso   1.00
C133   C     0.67966   0.16471   0.14844   0.00000  Uiso   1.00
C134   C     0.98697   0.16890   0.18480   0.00000  Uiso   1.00
C135   C     0.85319   0.02147   0.12929   0.00000  Uiso   1.00
C136   C     0.81444   0.31195   0.20425   0.00000  Uiso   1.00
C137   C     0.84938   0.31217   0.12937   0.00000  Uiso   1.00
C138   C     0.81838   0.02120   0.20421   0.00000  Uiso   1.00
C139   C     0.83071   0.29048   0.16650   0.00000  Uiso   1.00
C140   C     0.83665   0.04290   0.16694   0.00000  Uiso   1.00
C141   C     0.79429   0.14782   0.02166   0.00000  Uiso   1.00
C142   C     0.87255   0.18532   0.31174   0.00000  Uiso   1.00
C143   C     0.79357   0.14772   0.30572   0.00000  Uiso   1.00
C144   C     0.87291   0.18584   0.02762   0.00000  Uiso   1.00
Cu145  Cu    0.83333   0.16667   0.21355   0.00000  Uiso   1.00
Cu146  Cu    0.83333   0.16666   0.11978   0.00000  Uiso   1.00
H147   H     0.99367   0.15961   0.11350   0.00000  Uiso   1.00
H148   H     0.67291   0.17416   0.21968   0.00000  Uiso   1.00
H149   H     0.86282   0.29596   0.10088   0.00000  Uiso   1.00
H150   H     0.80551   0.03736   0.23300   0.00000  Uiso   1.00
H151   H     0.76345   0.13241   0.03795   0.00000  Uiso   1.00
H152   H     0.90337   0.20079   0.29548   0.00000  Uiso   1.00
N153   N     0.83335   0.16668   0.28403   0.00000  Uiso   1.00
N154   N     0.83332   0.16666   0.04931   0.00000  Uiso   1.00
O155   O     0.83333   0.10655   0.20625   0.00000  Uiso   1.00
O156   O     0.83334   0.22678   0.12709   0.00000  Uiso   1.00
O157   O     0.83333   0.10654   0.12706   0.00000  Uiso   1.00
O158   O     0.83334   0.22679   0.20628   0.00000  Uiso   1.00
O159   O     0.75828   0.16667   0.19712   0.00000  Uiso   1.00
O160   O     0.90839   0.16666   0.13621   0.00000  Uiso   1.00
O161   O     0.75828   0.16666   0.11793   0.00000  Uiso   1.00
O162   O     0.90839   0.16667   0.21540   0.00000  Uiso   1.00
C163   C     0.87632   0.04218   0.09018   0.00000  Uiso   1.00
C164   C     0.84989   0.04139   0.04482   0.00000  Uiso   1.00
C165   C     0.87138   0.06140   0.00803   0.00000  Uiso   1.00
C166   C     0.91951   0.08190   0.01614   0.00000  Uiso   1.00
C167   C     0.94628   0.08243   0.06109   0.00000  Uiso   1.00
C168   C     0.92474   0.06280   0.09813   0.00000  Uiso   1.00
H169   H     0.81245   0.02576   0.03814   0.00000  Uiso   1.00
H170   H     0.85066   0.06115   0.30660   0.00000  Uiso   1.00
H171   H     0.93604   0.09737   0.32093   0.00000  Uiso   1.00
H172   H     0.98376   0.09799   0.06716   0.00000  Uiso   1.00
H173   H     0.94568   0.06363   0.13289   0.00000  Uiso   1.00
C174   C     0.79203   0.29134   0.24378   0.00000  Uiso   1.00
C175   C     0.74380   0.27034   0.23655   0.00000  Uiso   1.00
C176   C     0.72325   0.25053   0.27398   0.00000  Uiso   1.00
C177   C     0.75078   0.25136   0.31862   0.00000  Uiso   1.00
C178   C     0.79860   0.27238   0.32604   0.00000  Uiso   1.00
C179   C     0.81915   0.29249   0.28885   0.00000  Uiso   1.00
H180   H     0.72234   0.26924   0.20202   0.00000  Uiso   1.00
H181   H     0.68602   0.23453   0.26846   0.00000  Uiso   1.00
H182   H     0.73519   0.23564   0.01411   0.00000  Uiso   1.00
H183   H     0.81987   0.27286   0.02722   0.00000  Uiso   1.00
H184   H     0.85644   0.30841   0.29498   0.00000  Uiso   1.00
C185   C     0.74747   0.12701   0.28030   0.00000  Uiso   1.00
O186   O     0.70483   0.13416   0.29118   0.00000  Uiso   1.00
O187   O     0.75201   0.09688   0.24733   0.00000  Uiso   1.00
H188   H     0.71740   0.08459   0.23349   0.00000  Uiso   1.00
C189   C     0.91773   0.20816   0.05297   0.00000  Uiso   1.00
O190   O     0.91203   0.23347   0.08253   0.00000  Uiso   1.00
O191   O     0.96684   0.20281   0.03973   0.00000  Uiso   1.00
H192   H     0.99437   0.22072   0.05826   0.00000  Uiso   1.00
C193   C     0.16840   0.42088   0.16692   0.00000  Uiso   1.00
C194   C     0.16519   0.57914   0.16644   0.00000  Uiso   1.00
C195   C     0.06812   0.49959   0.15489   0.00000  Uiso   1.00
C196   C     0.26520   0.50051   0.17842   0.00000  Uiso   1.00
C197   C     0.01300   0.49804   0.14844   0.00000  Uiso   1.00
C198   C     0.32030   0.50223   0.18480   0.00000  Uiso   1.00
C199   C     0.18652   0.35480   0.12929   0.00000  Uiso   1.00
C200   C     0.14777   0.64528   0.20425   0.00000  Uiso   1.00
C201   C     0.18271   0.64550   0.12937   0.00000  Uiso   1.00
C202   C     0.15171   0.35454   0.20421   0.00000  Uiso   1.00
C203   C     0.16404   0.62382   0.16650   0.00000  Uiso   1.00
C204   C     0.16999   0.37624   0.16694   0.00000  Uiso   1.00
C205   C     0.12762   0.48115   0.02166   0.00000  Uiso   1.00
C206   C     0.20589   0.51865   0.31174   0.00000  Uiso   1.00
C207   C     0.12690   0.48105   0.30572   0.00000  Uiso   1.00
C208   C     0.20624   0.51917   0.02762   0.00000  Uiso   1.00
Cu209  Cu    0.16667   0.50001   0.21355   0.00000  Uiso   1.00
Cu210  Cu    0.16667   0.49999   0.11978   0.00000  Uiso   1.00
H211   H     0.32701   0.49295   0.11350   0.00000  Uiso   1.00
H212   H     0.00624   0.50749   0.21968   0.00000  Uiso   1.00
H213   H     0.19615   0.62929   0.10088   0.00000  Uiso   1.00
H214   H     0.13885   0.37069   0.23300   0.00000  Uiso   1.00
H215   H     0.09678   0.46574   0.03795   0.00000  Uiso   1.00
H216   H     0.23670   0.53412   0.29548   0.00000  Uiso   1.00
N217   N     0.16668   0.50001   0.28403   0.00000  Uiso   1.00
N218   N     0.16665   0.49999   0.04931   0.00000  Uiso   1.00
O219   O     0.16666   0.43989   0.20625   0.00000  Uiso   1.00
O220   O     0.16667   0.56011   0.12709   0.00000  Uiso   1.00
O221   O     0.16666   0.43988   0.12706   0.00000  Uiso   1.00
O222   O     0.16667   0.56012   0.20628   0.00000  Uiso   1.00
O223   O     0.09161   0.50000   0.19712   0.00000  Uiso   1.00
O224   O     0.24172   0.50000   0.13621   0.00000  Uiso   1.00
O225   O     0.09161   0.49999   0.11793   0.00000  Uiso   1.00
O226   O     0.24172   0.50001   0.21540   0.00000  Uiso   1.00
C227   C     0.20966   0.37551   0.09018   0.00000  Uiso   1.00
C228   C     0.18323   0.37472   0.04482   0.00000  Uiso   1.00
C229   C     0.20471   0.39473   0.00803   0.00000  Uiso   1.00
C230   C     0.25284   0.41523   0.01614   0.00000  Uiso   1.00
C231   C     0.27961   0.41576   0.06109   0.00000  Uiso   1.00
C232   C     0.25807   0.39614   0.09813   0.00000  Uiso   1.00
H233   H     0.14579   0.35909   0.03814   0.00000  Uiso   1.00
H234   H     0.18399   0.39449   0.30660   0.00000  Uiso   1.00
H235   H     0.26938   0.43071   0.32093   0.00000  Uiso   1.00
H236   H     0.31709   0.43132   0.06716   0.00000  Uiso   1.00
H237   H     0.27901   0.39696   0.13289   0.00000  Uiso   1.00
C238   C     0.12536   0.62467   0.24378   0.00000  Uiso   1.00
C239   C     0.07713   0.60368   0.23655   0.00000  Uiso   1.00
C240   C     0.05659   0.58386   0.27398   0.00000  Uiso   1.00
C241   C     0.08411   0.58469   0.31862   0.00000  Uiso   1.00
C242   C     0.13193   0.60572   0.32604   0.00000  Uiso   1.00
C243   C     0.15248   0.62582   0.28885   0.00000  Uiso   1.00
H244   H     0.05567   0.60258   0.20202   0.00000  Uiso   1.00
H245   H     0.01935   0.56786   0.26846   0.00000  Uiso   1.00
H246   H     0.06852   0.56897   0.01411   0.00000  Uiso   1.00
H247   H     0.15320   0.60619   0.02722   0.00000  Uiso   1.00
H248   H     0.18978   0.64175   0.29498   0.00000  Uiso   1.00
C249   C     0.08080   0.46034   0.28030   0.00000  Uiso   1.00
O250   O     0.03817   0.46749   0.29118   0.00000  Uiso   1.00
O251   O     0.08535   0.43021   0.24733   0.00000  Uiso   1.00
H252   H     0.05074   0.41793   0.23349   0.00000  Uiso   1.00
C253   C     0.25106   0.54150   0.05297   0.00000  Uiso   1.00
O254   O     0.24536   0.56681   0.08253   0.00000  Uiso   1.00
O255   O     0.30017   0.53615   0.03973   0.00000  Uiso   1.00
H256   H     0.32771   0.55405   0.05826   0.00000  Uiso   1.00
C257   C     0.50173   0.42088   0.16692   0.00000  Uiso   1.00
C258   C     0.49853   0.57914   0.16644   0.00000  Uiso   1.00
C259   C     0.40145   0.49959   0.15489   0.00000  Uiso   1.00
C260   C     0.59854   0.50051   0.17842   0.00000  Uiso   1.00
C261   C     0.34633   0.49804   0.14844   0.00000  Uiso   1.00
C262   C     0.65364   0.50223   0.18480   0.00000  Uiso   1.00
C263   C     0.51985   0.35480   0.12929   0.00000  Uiso   1.00
C264   C     0.48110   0.64528   0.20425   0.00000  Uiso   1.00
C265   C     0.51604   0.64550   0.12937   0.00000  Uiso   1.00
C266   C     0.48505   0.35454   0.20421   0.00000  Uiso   1.00
C267   C     0.49737   0.62382   0.16650   0.00000  Uiso   1.00
C268   C     0.50332   0.37624   0.16694   0.00000  Uiso   1.00
C269   C     0.46095   0.48115   0.02166   0.00000  Uiso   1.00
C270   C     0.53922   0.51865   0.31174   0.00000  Uiso   1.00
C271   C     0.46023   0.48105   0.30572   0.00000  Uiso   1.00
C272   C     0.53958   0.51917   0.02762   0.00000  Uiso   1.00
Cu273  Cu    0.50000   0.50001   0.21355   0.00000  Uiso   1.00
Cu274  Cu    0.50000   0.49999   0.11978   0.00000  Uiso   1.00
H275   H     0.66034   0.49295   0.11350   0.00000  Uiso   1.00
H276   H     0.33958   0.50749   0.21968   0.00000  Uiso   1.00
H277   H     0.52949   0.62929   0.10088   0.00000  Uiso   1.00
H278   H     0.47218   0.37069   0.23300   0.00000  Uiso   1.00
H279   H     0.43012   0.46574   0.03795   0.00000  Uiso   1.00
H280   H     0.57003   0.53412   0.29548   0.00000  Uiso   1.00
N281   N     0.50001   0.50001   0.28403   0.00000  Uiso   1.00
N282   N     0.49999   0.49999   0.04931   0.00000  Uiso   1.00
O283   O     0.50000   0.43989   0.20625   0.00000  Uiso   1.00
O284   O     0.50000   0.56011   0.12709   0.00000  Uiso   1.00
O285   O     0.50000   0.43988   0.12706   0.00000  Uiso   1.00
O286   O     0.50000   0.56012   0.20628   0.00000  Uiso   1.00
O287   O     0.42495   0.50000   0.19712   0.00000  Uiso   1.00
O288   O     0.57505   0.50000   0.13621   0.00000  Uiso   1.00
O289   O     0.42494   0.49999   0.11793   0.00000  Uiso   1.00
O290   O     0.57506   0.50001   0.21540   0.00000  Uiso   1.00
C291   C     0.54299   0.37551   0.09018   0.00000  Uiso   1.00
C292   C     0.51656   0.37472   0.04482   0.00000  Uiso   1.00
C293   C     0.53805   0.39473   0.00803   0.00000  Uiso   1.00
C294   C     0.58617   0.41523   0.01614   0.00000  Uiso   1.00
C295   C     0.61294   0.41576   0.06109   0.00000  Uiso   1.00
C296   C     0.59141   0.39614   0.09813   0.00000  Uiso   1.00
H297   H     0.47912   0.35909   0.03814   0.00000  Uiso   1.00
H298   H     0.51732   0.39449   0.30660   0.00000  Uiso   1.00
H299   H     0.60271   0.43071   0.32093   0.00000  Uiso   1.00
H300   H     0.65042   0.43132   0.06716   0.00000  Uiso   1.00
H301   H     0.61235   0.39696   0.13289   0.00000  Uiso   1.00
C302   C     0.45869   0.62467   0.24378   0.00000  Uiso   1.00
C303   C     0.41046   0.60368   0.23655   0.00000  Uiso   1.00
C304   C     0.38992   0.58386   0.27398   0.00000  Uiso   1.00
C305   C     0.41745   0.58469   0.31862   0.00000  Uiso   1.00
C306   C     0.46526   0.60572   0.32604   0.00000  Uiso   1.00
C307   C     0.48581   0.62582   0.28885   0.00000  Uiso   1.00
H308   H     0.38901   0.60258   0.20202   0.00000  Uiso   1.00
H309   H     0.35269   0.56786   0.26846   0.00000  Uiso   1.00
H310   H     0.40185   0.56897   0.01411   0.00000  Uiso   1.00
H311   H     0.48653   0.60619   0.02722   0.00000  Uiso   1.00
H312   H     0.52311   0.64175   0.29498   0.00000  Uiso   1.00
C313   C     0.41413   0.46034   0.28030   0.00000  Uiso   1.00
O314   O     0.37150   0.46749   0.29118   0.00000  Uiso   1.00
O315   O     0.41868   0.43021   0.24733   0.00000  Uiso   1.00
H316   H     0.38407   0.41793   0.23349   0.00000  Uiso   1.00
C317   C     0.58439   0.54150   0.05297   0.00000  Uiso   1.00
O318   O     0.57870   0.56681   0.08253   0.00000  Uiso   1.00
O319   O     0.63351   0.53615   0.03973   0.00000  Uiso   1.00
H320   H     0.66104   0.55405   0.05826   0.00000  Uiso   1.00
C321   C     0.83507   0.42088   0.16692   0.00000  Uiso   1.00
C322   C     0.83186   0.57914   0.16644   0.00000  Uiso   1.00
C323   C     0.73479   0.49959   0.15489   0.00000  Uiso   1.00
C324   C     0.93187   0.50051   0.17842   0.00000  Uiso   1.00
C325   C     0.67966   0.49804   0.14844   0.00000  Uiso   1.00
C326   C     0.98697   0.50223   0.18480   0.00000  Uiso   1.00
C327   C     0.85319   0.35480   0.12929   0.00000  Uiso   1.00
C328   C     0.81444   0.64528   0.20425   0.00000  Uiso   1.00
C329   C     0.84938   0.64550   0.12937   0.00000  Uiso   1.00
C330   C     0.81838   0.35454   0.20421   0.00000  Uiso   1.00
C331   C     0.83071   0.62382   0.16650   0.00000  Uiso   1.00
C332   C     0.83665   0.37624   0.16694   0.00000  Uiso   1.00
C333   C     0.79429   0.48115   0.02166   0.00000  Uiso   1.00
C334   C     0.87255   0.51865   0.31174   0.00000  Uiso   1.00
C335   C     0.79357   0.48105   0.30572   0.00000  Uiso   1.00
C336   C     0.87291   0.51917   0.02762   0.00000  Uiso   1.00
Cu337  Cu    0.83333   0.50001   0.21355   0.00000  Uiso   1.00
Cu338  Cu    0.83333   0.49999   0.11978   0.00000  Uiso   1.00
H339   H     0.99367   0.49295   0.11350   0.00000  Uiso   1.00
H340   H     0.67291   0.50749   0.21968   0.00000  Uiso   1.00
H341   H     0.86282   0.62929   0.10088   0.00000  Uiso   1.00
H342   H     0.80551   0.37069   0.23300   0.00000  Uiso   1.00
H343   H     0.76345   0.46574   0.03795   0.00000  Uiso   1.00
H344   H     0.90337   0.53412   0.29548   0.00000  Uiso   1.00
N345   N     0.83335   0.50001   0.28403   0.00000  Uiso   1.00
N346   N     0.83332   0.49999   0.04931   0.00000  Uiso   1.00
O347   O     0.83333   0.43989   0.20625   0.00000  Uiso   1.00
O348   O     0.83334   0.56011   0.12709   0.00000  Uiso   1.00
O349   O     0.83333   0.43988   0.12706   0.00000  Uiso   1.00
O350   O     0.83334   0.56012   0.20628   0.00000  Uiso   1.00
O351   O     0.75828   0.50000   0.19712   0.00000  Uiso   1.00
O352   O     0.90839   0.50000   0.13621   0.00000  Uiso   1.00
O353   O     0.75828   0.49999   0.11793   0.00000  Uiso   1.00
O354   O     0.90839   0.50001   0.21540   0.00000  Uiso   1.00
C355   C     0.87632   0.37551   0.09018   0.00000  Uiso   1.00
C356   C     0.84989   0.37472   0.04482   0.00000  Uiso   1.00
C357   C     0.87138   0.39473   0.00803   0.00000  Uiso   1.00
C358   C     0.91951   0.41523   0.01614   0.00000  Uiso   1.00
C359   C     0.94628   0.41576   0.06109   0.00000  Uiso   1.00
C360   C     0.92474   0.39614   0.09813   0.00000  Uiso   1.00
H361   H     0.81245   0.35909   0.03814   0.00000  Uiso   1.00
H362   H     0.85066   0.39449   0.30660   0.00000  Uiso   1.00
H363   H     0.93604   0.43071   0.32093   0.00000  Uiso   1.00
H364   H     0.98376   0.43132   0.06716   0.00000  Uiso   1.00
H365   H     0.94568   0.39696   0.13289   0.00000  Uiso   1.00
C366   C     0.79203   0.62467   0.24378   0.00000  Uiso   1.00
C367   C     0.74380   0.60368   0.23655   0.00000  Uiso   1.00
C368   C     0.72325   0.58386   0.27398   0.00000  Uiso   1.00
C369   C     0.75078   0.58469   0.31862   0.00000  Uiso   1.00
C370   C     0.79860   0.60572   0.32604   0.00000  Uiso   1.00
C371   C     0.81915   0.62582   0.28885   0.00000  Uiso   1.00
H372   H     0.72234   0.60258   0.20202   0.00000  Uiso   1.00
H373   H     0.68602   0.56786   0.26846   0.00000  Uiso   1.00
H374   H     0.73519   0.56897   0.01411   0.00000  Uiso   1.00
H375   H     0.81987   0.60619   0.02722   0.00000  Uiso   1.00
H376   H     0.85644   0.64175   0.29498   0.00000  Uiso   1.00
C377   C     0.74747   0.46034   0.28030   0.00000  Uiso   1.00
O378   O     0.70483   0.46749   0.29118   0.00000  Uiso   1.00
O379   O     0.75201   0.43021   0.24733   0.00000  Uiso   1.00
H380   H     0.71740   0.41793   0.23349   0.00000  Uiso   1.00
C381   C     0.91773   0.54150   0.05297   0.00000  Uiso   1.00
O382   O     0.91203   0.56681   0.08253   0.00000  Uiso   1.00
O383   O     0.96684   0.53615   0.03973   0.00000  Uiso   1.00
H384   H     0.99437   0.55405   0.05826   0.00000  Uiso   1.00
C385   C     0.16840   0.75422   0.16692   0.00000  Uiso   1.00
C386   C     0.16519   0.91247   0.16644   0.00000  Uiso   1.00
C387   C     0.06812   0.83292   0.15489   0.00000  Uiso   1.00
C388   C     0.26520   0.83384   0.17842   0.00000  Uiso   1.00
C389   C     0.01300   0.83138   0.14844   0.00000  Uiso   1.00
C390   C     0.32030   0.83556   0.18480   0.00000  Uiso   1.00
C391   C     0.18652   0.68813   0.12929   0.00000  Uiso   1.00
C392   C     0.14777   0.97862   0.20425   0.00000  Uiso   1.00
C393   C     0.18271   0.97884   0.12937   0.00000  Uiso   1.00
C394   C     0.15171   0.68787   0.20421   0.00000  Uiso   1.00
C395   C     0.16404   0.95715   0.16650   0.00000  Uiso   1.00
C396   C     0.16999   0.70957   0.16694   0.00000  Uiso   1.00
C397   C     0.12762   0.81448   0.02166   0.00000  Uiso   1.00
C398   C     0.20589   0.85199   0.31174   0.00000  Uiso   1.00
C399   C     0.12690   0.81438   0.30572   0.00000  Uiso   1.00
C400   C     0.20624   0.85250   0.02762   0.00000  Uiso   1.00
Cu401  Cu    0.16667   0.83334   0.21355   0.00000  Uiso   1.00
Cu402  Cu    0.16667   0.83333   0.11978   0.00000  Uiso   1.00
H403   H     0.32701   0.82628   0.11350   0.00000  Uiso   1.00
H404   H     0.00624   0.84083   0.21968   0.00000  Uiso   1.00
H405   H     0.19615   0.96262   0.10088   0.00000  Uiso   1.00
H406   H     0.13885   0.70402   0.23300   0.00000  Uiso   1.00
H407   H     0.09678   0.79907   0.03795   0.00000  Uiso   1.00
H408   H     0.23670   0.86745   0.29548   0.00000  Uiso   1.00
N409   N     0.16668   0.83334   0.28403   0.00000  Uiso   1.00
N410   N     0.16665   0.83332   0.04931   0.00000  Uiso   1.00
O411   O     0.16666   0.77322   0.20625   0.00000  Uiso   1.00
O412   O     0.16667   0.89345   0.12709   0.00000  Uiso   1.00
O413   O     0.16666   0.77321   0.12706   0.00000  Uiso   1.00
O414   O     0.16667   0.89346   0.20628   0.00000  Uiso   1.00
O415   O     0.09161   0.83334   0.19712   0.00000  Uiso   1.00
O416   O     0.24172   0.83333   0.13621   0.00000  Uiso   1.00
O417   O     0.09161   0.83333   0.11793   0.00000  Uiso   1.00
O418   O     0.24172   0.83334   0.21540   0.00000  Uiso   1.00
C419   C     0.20966   0.70885   0.09018   0.00000  Uiso   1.00
C420   C     0.18323   0.70805   0.04482   0.00000  Uiso   1.00
C421   C     0.20471   0.72807   0.00803   0.00000  Uiso   1.00
C422   C     0.25284   0.74857   0.01614   0.00000  Uiso   1.00
C423   C     0.27961   0.74910   0.06109   0.00000  Uiso   1.00
C424   C     0.25807   0.72947   0.09813   0.00000  Uiso   1.00
H425   H     0.14579   0.69243   0.03814   0.00000  Uiso   1.00
H426   H     0.18399   0.72782   0.30660   0.00000  Uiso   1.00
H427   H     0.26938   0.76404   0.32093   0.00000  Uiso   1.00
H428   H     0.31709   0.76465   0.06716   0.00000  Uiso   1.00
H429   H     0.27901   0.73030   0.13289   0.00000  Uiso   1.00
C430   C     0.12536   0.95800   0.24378   0.00000  Uiso   1.00
C431   C     0.07713   0.93701   0.23655   0.00000  Uiso   1.00
C432   C     0.05659   0.91720   0.27398   0.00000  Uiso   1.00
C433   C     0.08411   0.91803   0.31862   0.00000  Uiso   1.00
C434   C     0.13193   0.93905   0.32604   0.00000  Uiso   1.00
C435   C     0.15248   0.95915   0.28885   0.00000  Uiso   1.00
H436   H     0.05567   0.93591   0.20202   0.00000  Uiso   1.00
H437   H     0.01935   0.90120   0.26846   0.00000  Uiso   1.00
H438   H     0.06852   0.90231   0.01411   0.00000  Uiso   1.00
H439   H     0.15320   0.93953   0.02722   0.00000  Uiso   1.00
H440   H     0.18978   0.97508   0.29498   0.00000  Uiso   1.00
C441   C     0.08080   0.79367   0.28030   0.00000  Uiso   1.00
O442   O     0.03817   0.80083   0.29118   0.00000  Uiso   1.00
O443   O     0.08535   0.76355   0.24733   0.00000  Uiso   1.00
H444   H     0.05074   0.75126   0.23349   0.00000  Uiso   1.00
C445   C     0.25106   0.87483   0.05297   0.00000  Uiso   1.00
O446   O     0.24536   0.90014   0.08253   0.00000  Uiso   1.00
O447   O     0.30017   0.86948   0.03973   0.00000  Uiso   1.00
H448   H     0.32771   0.88738   0.05826   0.00000  Uiso   1.00
C449   C     0.50173   0.75422   0.16692   0.00000  Uiso   1.00
C450   C     0.49853   0.91247   0.16644   0.00000  Uiso   1.00
C451   C     0.40145   0.83292   0.15489   0.00000  Uiso   1.00
C452   C     0.59854   0.83384   0.17842   0.00000  Uiso   1.00
C453   C     0.34633   0.83138   0.14844   0.00000  Uiso   1.00
C454   C     0.65364   0.83556   0.18480   0.00000  Uiso   1.00
C455   C     0.51985   0.68813   0.12929   0.00000  Uiso   1.00
C456   C     0.48110   0.97862   0.20425   0.00000  Uiso   1.00
C457   C     0.51604   0.97884   0.12937   0.00000  Uiso   1.00
C458   C     0.48505   0.68787   0.20421   0.00000  Uiso   1.00
C459   C     0.49737   0.95715   0.16650   0.00000  Uiso   1.00
C460   C     0.50332   0.70957   0.16694   0.00000  Uiso   1.00
C461   C     0.46095   0.81448   0.02166   0.00000  Uiso   1.00
C462   C     0.53922   0.85199   0.31174   0.00000  Uiso   1.00
C463   C     0.46023   0.81438   0.30572   0.00000  Uiso   1.00
C464   C     0.53958   0.85250   0.02762   0.00000  Uiso   1.00
Cu465  Cu    0.50000   0.83334   0.21355   0.00000  Uiso   1.00
Cu466  Cu    0.50000   0.83333   0.11978   0.00000  Uiso   1.00
H467   H     0.66034   0.82628   0.11350   0.00000  Uiso   1.00
H468   H     0.33958   0.84083   0.21968   0.00000  Uiso   1.00
H469   H     0.52949   0.96262   0.10088   0.00000  Uiso   1.00
H470   H     0.47218   0.70402   0.23300   0.00000  Uiso   1.00
H471   H     0.43012   0.79907   0.03795   0.00000  Uiso   1.00
H472   H     0.57003   0.86745   0.29548   0.00000  Uiso   1.00
N473   N     0.50001   0.83334   0.28403   0.00000  Uiso   1.00
N474   N     0.49999   0.83332   0.04931   0.00000  Uiso   1.00
O475   O     0.50000   0.77322   0.20625   0.00000  Uiso   1.00
O476   O     0.50000   0.89345   0.12709   0.00000  Uiso   1.00
O477   O     0.50000   0.77321   0.12706   0.00000  Uiso   1.00
O478   O     0.50000   0.89346   0.20628   0.00000  Uiso   1.00
O479   O     0.42495   0.83334   0.19712   0.00000  Uiso   1.00
O480   O     0.57505   0.83333   0.13621   0.00000  Uiso   1.00
O481   O     0.42494   0.83333   0.11793   0.00000  Uiso   1.00
O482   O     0.57506   0.83334   0.21540   0.00000  Uiso   1.00
C483   C     0.54299   0.70885   0.09018   0.00000  Uiso   1.00
C484   C     0.51656   0.70805   0.04482   0.00000  Uiso   1.00
C485   C     0.53805   0.72807   0.00803   0.00000  Uiso   1.00
C486   C     0.58617   0.74857   0.01614   0.00000  Uiso   1.00
C487   C     0.61294   0.74910   0.06109   0.00000  Uiso   1.00
C488   C     0.59141   0.72947   0.09813   0.00000  Uiso   1.00
H489   H     0.47912   0.69243   0.03814   0.00000  Uiso   1.00
H490   H     0.51732   0.72782   0.30660   0.00000  Uiso   1.00
H491   H     0.60271   0.76404   0.32093   0.00000  Uiso   1.00
H492   H     0.65042   0.76465   0.06716   0.00000  Uiso   1.00
H493   H     0.61235   0.73030   0.13289   0.00000  Uiso   1.00
C494   C     0.45869   0.95800   0.24378   0.00000  Uiso   1.00
C495   C     0.41046   0.93701   0.23655   0.00000  Uiso   1.00
C496   C     0.38992   0.91720   0.27398   0.00000  Uiso   1.00
C497   C     0.41745   0.91803   0.31862   0.00000  Uiso   1.00
C498   C     0.46526   0.93905   0.32604   0.00000  Uiso   1.00
C499   C     0.48581   0.95915   0.28885   0.00000  Uiso   1.00
H500   H     0.38901   0.93591   0.20202   0.00000  Uiso   1.00
H501   H     0.35269   0.90120   0.26846   0.00000  Uiso   1.00
H502   H     0.40185   0.90231   0.01411   0.00000  Uiso   1.00
H503   H     0.48653   0.93953   0.02722   0.00000  Uiso   1.00
H504   H     0.52311   0.97508   0.29498   0.00000  Uiso   1.00
C505   C     0.41413   0.79367   0.28030   0.00000  Uiso   1.00
O506   O     0.37150   0.80083   0.29118   0.00000  Uiso   1.00
O507   O     0.41868   0.76355   0.24733   0.00000  Uiso   1.00
H508   H     0.38407   0.75126   0.23349   0.00000  Uiso   1.00
C509   C     0.58439   0.87483   0.05297   0.00000  Uiso   1.00
O510   O     0.57870   0.90014   0.08253   0.00000  Uiso   1.00
O511   O     0.63351   0.86948   0.03973   0.00000  Uiso   1.00
H512   H     0.66104   0.88738   0.05826   0.00000  Uiso   1.00
C513   C     0.83507   0.75422   0.16692   0.00000  Uiso   1.00
C514   C     0.83186   0.91247   0.16644   0.00000  Uiso   1.00
C515   C     0.73479   0.83292   0.15489   0.00000  Uiso   1.00
C516   C     0.93187   0.83384   0.17842   0.00000  Uiso   1.00
C517   C     0.67966   0.83138   0.14844   0.00000  Uiso   1.00
C518   C     0.98697   0.83556   0.18480   0.00000  Uiso   1.00
C519   C     0.85319   0.68813   0.12929   0.00000  Uiso   1.00
C520   C     0.81444   0.97862   0.20425   0.00000  Uiso   1.00
C521   C     0.84938   0.97884   0.12937   0.00000  Uiso   1.00
C522   C     0.81838   0.68787   0.20421   0.00000  Uiso   1.00
C523   C     0.83071   0.95715   0.16650   0.00000  Uiso   1.00
C524   C     0.83665   0.70957   0.16694   0.00000  Uiso   1.00
C525   C     0.79429   0.81448   0.02166   0.00000  Uiso   1.00
C526   C     0.87255   0.85199   0.31174   0.00000  Uiso   1.00
C527   C     0.79357   0.81438   0.30572   0.00000  Uiso   1.00
C528   C     0.87291   0.85250   0.02762   0.00000  Uiso   1.00
Cu529  Cu    0.83333   0.83334   0.21355   0.00000  Uiso   1.00
Cu530  Cu    0.83333   0.83333   0.11978   0.00000  Uiso   1.00
H531   H     0.99367   0.82628   0.11350   0.00000  Uiso   1.00
H532   H     0.67291   0.84083   0.21968   0.00000  Uiso   1.00
H533   H     0.86282   0.96262   0.10088   0.00000  Uiso   1.00
H534   H     0.80551   0.70402   0.23300   0.00000  Uiso   1.00
H535   H     0.76345   0.79907   0.03795   0.00000  Uiso   1.00
H536   H     0.90337   0.86745   0.29548   0.00000  Uiso   1.00
N537   N     0.83335   0.83334   0.28403   0.00000  Uiso   1.00
N538   N     0.83332   0.83332   0.04931   0.00000  Uiso   1.00
O539   O     0.83333   0.77322   0.20625   0.00000  Uiso   1.00
O540   O     0.83334   0.89345   0.12709   0.00000  Uiso   1.00
O541   O     0.83333   0.77321   0.12706   0.00000  Uiso   1.00
O542   O     0.83334   0.89346   0.20628   0.00000  Uiso   1.00
O543   O     0.75828   0.83334   0.19712   0.00000  Uiso   1.00
O544   O     0.90839   0.83333   0.13621   0.00000  Uiso   1.00
O545   O     0.75828   0.83333   0.11793   0.00000  Uiso   1.00
O546   O     0.90839   0.83334   0.21540   0.00000  Uiso   1.00
C547   C     0.87632   0.70885   0.09018   0.00000  Uiso   1.00
C548   C     0.84989   0.70805   0.04482   0.00000  Uiso   1.00
C549   C     0.87138   0.72807   0.00803   0.00000  Uiso   1.00
C550   C     0.91951   0.74857   0.01614   0.00000  Uiso   1.00
C551   C     0.94628   0.74910   0.06109   0.00000  Uiso   1.00
C552   C     0.92474   0.72947   0.09813   0.00000  Uiso   1.00
H553   H     0.81245   0.69243   0.03814   0.00000  Uiso   1.00
H554   H     0.85066   0.72782   0.30660   0.00000  Uiso   1.00
H555   H     0.93604   0.76404   0.32093   0.00000  Uiso   1.00
H556   H     0.98376   0.76465   0.06716   0.00000  Uiso   1.00
H557   H     0.94568   0.73030   0.13289   0.00000  Uiso   1.00
C558   C     0.79203   0.95800   0.24378   0.00000  Uiso   1.00
C559   C     0.74380   0.93701   0.23655   0.00000  Uiso   1.00
C560   C     0.72325   0.91720   0.27398   0.00000  Uiso   1.00
C561   C     0.75078   0.91803   0.31862   0.00000  Uiso   1.00
C562   C     0.79860   0.93905   0.32604   0.00000  Uiso   1.00
C563   C     0.81915   0.95915   0.28885   0.00000  Uiso   1.00
H564   H     0.72234   0.93591   0.20202   0.00000  Uiso   1.00
H565   H     0.68602   0.90120   0.26846   0.00000  Uiso   1.00
H566   H     0.73519   0.90231   0.01411   0.00000  Uiso   1.00
H567   H     0.81987   0.93953   0.02722   0.00000  Uiso   1.00
H568   H     0.85644   0.97508   0.29498   0.00000  Uiso   1.00
C569   C     0.74747   0.79367   0.28030   0.00000  Uiso   1.00
O570   O     0.70483   0.80083   0.29118   0.00000  Uiso   1.00
O571   O     0.75201   0.76355   0.24733   0.00000  Uiso   1.00
H572   H     0.71740   0.75126   0.23349   0.00000  Uiso   1.00
C573   C     0.91773   0.87483   0.05297   0.00000  Uiso   1.00
O574   O     0.91203   0.90014   0.08253   0.00000  Uiso   1.00
O575   O     0.96684   0.86948   0.03973   0.00000  Uiso   1.00
H576   H     0.99437   0.88738   0.05826   0.00000  Uiso   1.00
C577   C     0.16840   0.08755   0.50025   0.00000  Uiso   1.00
C578   C     0.16519   0.24581   0.49978   0.00000  Uiso   1.00
C579   C     0.06812   0.16625   0.48822   0.00000  Uiso   1.00
C580   C     0.26520   0.16718   0.51176   0.00000  Uiso   1.00
C581   C     0.01300   0.16471   0.48177   0.00000  Uiso   1.00
C582   C     0.32030   0.16890   0.51814   0.00000  Uiso   1.00
C583   C     0.18652   0.02147   0.46262   0.00000  Uiso   1.00
C584   C     0.14777   0.31195   0.53759   0.00000  Uiso   1.00
C585   C     0.18271   0.31217   0.46270   0.00000  Uiso   1.00
C586   C     0.15171   0.02120   0.53755   0.00000  Uiso   1.00
C587   C     0.16404   0.29048   0.49983   0.00000  Uiso   1.00
C588   C     0.16999   0.04290   0.50028   0.00000  Uiso   1.00
C589   C     0.12762   0.14782   0.35500   0.00000  Uiso   1.00
C590   C     0.20589   0.18532   0.64507   0.00000  Uiso   1.00
C591   C     0.12690   0.14772   0.63906   0.00000  Uiso   1.00
C592   C     0.20624   0.18584   0.36095   0.00000  Uiso   1.00
Cu593  Cu    0.16667   0.16667   0.54689   0.00000  Uiso   1.00
Cu594  Cu    0.16667   0.16666   0.45311   0.00000  Uiso   1.00
H595   H     0.32701   0.15961   0.44683   0.00000  Uiso   1.00
H596   H     0.00624   0.17416   0.55301   0.00000  Uiso   1.00
H597   H     0.19615   0.29596   0.43422   0.00000  Uiso   1.00
H598   H     0.13885   0.03736   0.56633   0.00000  Uiso   1.00
H599   H     0.09678   0.13241   0.37128   0.00000  Uiso   1.00
H600   H     0.23670   0.20079   0.62881   0.00000  Uiso   1.00
N601   N     0.16668   0.16668   0.61736   0.00000  Uiso   1.00
N602   N     0.16665   0.16666   0.38264   0.00000  Uiso   1.00
O603   O     0.16666   0.10655   0.53958   0.00000  Uiso   1.00
O604   O     0.16667   0.22678   0.46042   0.00000  Uiso   1.00
O605   O     0.16666   0.10654   0.46039   0.00000  Uiso   1.00
O606   O     0.16667   0.22679   0.53961   0.00000  Uiso   1.00
O607   O     0.09161   0.16667   0.53046   0.00000  Uiso   1.00
O608   O     0.24172   0.16666   0.46954   0.00000  Uiso   1.00
O609   O     0.09161   0.16666   0.45127   0.00000  Uiso   1.00
O610   O     0.24172   0.16667   0.54873   0.00000  Uiso   1.00
C611   C     0.20966   0.04218   0.42352   0.00000  Uiso   1.00
C612   C     0.18323   0.04139   0.37815   0.00000  Uiso   1.00
C613   C     0.20471   0.06140   0.34136   0.00000  Uiso   1.00
C614   C     0.25284   0.08190   0.34947   0.00000  Uiso   1.00
C615   C     0.27961   0.08243   0.39443   0.00000  Uiso   1.00
C616   C     0.25807   0.06280   0.43146   0.00000  Uiso   1.00
H617   H     0.14579   0.02576   0.37147   0.00000  Uiso   1.00
H618   H     0.18399   0.06115   0.63993   0.00000  Uiso   1.00
H619   H     0.26938   0.09737   0.65426   0.00000  Uiso   1.00
H620   H     0.31709   0.09799   0.40050   0.00000  Uiso   1.00
H621   H     0.27901   0.06363   0.46622   0.00000  Uiso   1.00
C622   C     0.12536   0.29134   0.57711   0.00000  Uiso   1.00
C623   C     0.07713   0.27034   0.56988   0.00000  Uiso   1.00
C624   C     0.05659   0.25053   0.60732   0.00000  Uiso   1.00
C625   C     0.08411   0.25136   0.65195   0.00000  Uiso   1.00
C626   C     0.13193   0.27238   0.65937   0.00000  Uiso   1.00
C627   C     0.15248   0.29249   0.62218   0.00000  Uiso   1.00
H628   H     0.05567   0.26924   0.53535   0.00000  Uiso   1.00
H629   H     0.01935   0.23453   0.60180   0.00000  Uiso   1.00
H630   H     0.06852   0.23564   0.34745   0.00000  Uiso   1.00
H631   H     0.15320   0.27286   0.36056   0.00000  Uiso   1.00
H632   H     0.18978   0.30841   0.62831   0.00000  Uiso   1.00
C633   C     0.08080   0.12701   0.61363   0.00000  Uiso   1.00
O634   O     0.03817   0.13416   0.62452   0.00000  Uiso   1.00
O635   O     0.08535   0.09688   0.58066   0.00000  Uiso   1.00
H636   H     0.05074   0.08459   0.56683   0.00000  Uiso   1.00
C637   C     0.25106   0.20816   0.38630   0.00000  Uiso   1.00
O638   O     0.24536   0.23347   0.41586   0.00000  Uiso   1.00
O639   O     0.30017   0.20281   0.37307   0.00000  Uiso   1.00
H640   H     0.32771   0.22072   0.39159   0.00000  Uiso   1.00
C641   C     0.50173   0.08755   0.50025   0.00000  Uiso   1.00
C642   C     0.49853   0.24581   0.49978   0.00000  Uiso   1.00
C643   C     0.40145   0.16625   0.48822   0.00000  Uiso   1.00
C644   C     0.59854   0.16718   0.51176   0.00000  Uiso   1.00
C645   C     0.34633   0.16471   0.48177   0.00000  Uiso   1.00
C646   C     0.65364   0.16890   0.51814   0.00000  Uiso   1.00
C647   C     0.51985   0.02147   0.46262   0.00000  Uiso   1.00
C648   C     0.48110   0.31195   0.53759   0.00000  Uiso   1.00
C649   C     0.51604   0.31217   0.46270   0.00000  Uiso   1.00
C650   C     0.48505   0.02120   0.53755   0.00000  Uiso   1.00
C651   C     0.49737   0.29048   0.49983   0.00000  Uiso   1.00
C652   C     0.50332   0.04290   0.50028   0.00000  Uiso   1.00
C653   C     0.46095   0.14782   0.35500   0.00000  Uiso   1.00
C654   C     0.53922   0.18532   0.64507   0.00000  Uiso   1.00
C655   C     0.46023   0.14772   0.63906   0.00000  Uiso   1.00
C656   C     0.53958   0.18584   0.36095   0.00000  Uiso   1.00
Cu657  Cu    0.50000   0.16667   0.54689   0.00000  Uiso   1.00
Cu658  Cu    0.50000   0.16666   0.45311   0.00000  Uiso   1.00
H659   H     0.66034   0.15961   0.44683   0.00000  Uiso   1.00
H660   H     0.33958   0.17416   0.55301   0.00000  Uiso   1.00
H661   H     0.52949   0.29596   0.43422   0.00000  Uiso   1.00
H662   H     0.47218   0.03736   0.56633   0.00000  Uiso   1.00
H663   H     0.43012   0.13241   0.37128   0.00000  Uiso   1.00
H664   H     0.57003   0.20079   0.62881   0.00000  Uiso   1.00
N665   N     0.50001   0.16668   0.61736   0.00000  Uiso   1.00
N666   N     0.49999   0.16666   0.38264   0.00000  Uiso   1.00
O667   O     0.50000   0.10655   0.53958   0.00000  Uiso   1.00
O668   O     0.50000   0.22678   0.46042   0.00000  Uiso   1.00
O669   O     0.50000   0.10654   0.46039   0.00000  Uiso   1.00
O670   O     0.50000   0.22679   0.53961   0.00000  Uiso   1.00
O671   O     0.42495   0.16667   0.53046   0.00000  Uiso   1.00
O672   O     0.57505   0.16666   0.46954   0.00000  Uiso   1.00
O673   O     0.42494   0.16666   0.45127   0.00000  Uiso   1.00
O674   O     0.57506   0.16667   0.54873   0.00000  Uiso   1.00
C675   C     0.54299   0.04218   0.42352   0.00000  Uiso   1.00
C676   C     0.51656   0.04139   0.37815   0.00000  Uiso   1.00
C677   C     0.53805   0.06140   0.34136   0.00000  Uiso   1.00
C678   C     0.58617   0.08190   0.34947   0.00000  Uiso   1.00
C679   C     0.61294   0.08243   0.39443   0.00000  Uiso   1.00
C680   C     0.59141   0.06280   0.43146   0.00000  Uiso   1.00
H681   H     0.47912   0.02576   0.37147   0.00000  Uiso   1.00
H682   H     0.51732   0.06115   0.63993   0.00000  Uiso   1.00
H683   H     0.60271   0.09737   0.65426   0.00000  Uiso   1.00
H684   H     0.65042   0.09799   0.40050   0.00000  Uiso   1.00
H685   H     0.61235   0.06363   0.46622   0.00000  Uiso   1.00
C686   C     0.45869   0.29134   0.57711   0.00000  Uiso   1.00
C687   C     0.41046   0.27034   0.56988   0.00000  Uiso   1.00
C688   C     0.38992   0.25053   0.60732   0.00000  Uiso   1.00
C689   C     0.41745   0.25136   0.65195   0.00000  Uiso   1.00
C690   C     0.46526   0.27238   0.65937   0.00000  Uiso   1.00
C691   C     0.48581   0.29249   0.62218   0.00000  Uiso   1.00
H692   H     0.38901   0.26924   0.53535   0.00000  Uiso   1.00
H693   H     0.35269   0.23453   0.60180   0.00000  Uiso   1.00
H694   H     0.40185   0.23564   0.34745   0.00000  Uiso   1.00
H695   H     0.48653   0.27286   0.36056   0.00000  Uiso   1.00
H696   H     0.52311   0.30841   0.62831   0.00000  Uiso   1.00
C697   C     0.41413   0.12701   0.61363   0.00000  Uiso   1.00
O698   O     0.37150   0.13416   0.62452   0.00000  Uiso   1.00
O699   O     0.41868   0.09688   0.58066   0.00000  Uiso   1.00
H700   H     0.38407   0.08459   0.56683   0.00000  Uiso   1.00
C701   C     0.58439   0.20816   0.38630   0.00000  Uiso   1.00
O702   O     0.57870   0.23347   0.41586   0.00000  Uiso   1.00
O703   O     0.63351   0.20281   0.37307   0.00000  Uiso   1.00
H704   H     0.66104   0.22072   0.39159   0.00000  Uiso   1.00
C705   C     0.83507   0.08755   0.50025   0.00000  Uiso   1.00
C706   C     0.83186   0.24581   0.49978   0.00000  Uiso   1.00
C707   C     0.73479   0.16625   0.48822   0.00000  Uiso   1.00
C708   C     0.93187   0.16718   0.51176   0.00000  Uiso   1.00
C709   C     0.67966   0.16471   0.48177   0.00000  Uiso   1.00
C710   C     0.98697   0.16890   0.51814   0.00000  Uiso   1.00
C711   C     0.85319   0.02147   0.46262   0.00000  Uiso   1.00
C712   C     0.81444   0.31195   0.53759   0.00000  Uiso   1.00
C713   C     0.84938   0.31217   0.46270   0.00000  Uiso   1.00
C714   C     0.81838   0.02120   0.53755   0.00000  Uiso   1.00
C715   C     0.83071   0.29048   0.49983   0.00000  Uiso   1.00
C716   C     0.83665   0.04290   0.50028   0.00000  Uiso   1.00
C717   C     0.79429   0.14782   0.35500   0.00000  Uiso   1.00
C718   C     0.87255   0.18532   0.64507   0.00000  Uiso   1.00
C719   C     0.79357   0.14772   0.63906   0.00000  Uiso   1.00
C720   C     0.87291   0.18584   0.36095   0.00000  Uiso   1.00
Cu721  Cu    0.83333   0.16667   0.54689   0.00000  Uiso   1.00
Cu722  Cu    0.83333   0.16666   0.45311   0.00000  Uiso   1.00
H723   H     0.99367   0.15961   0.44683   0.00000  Uiso   1.00
H724   H     0.67291   0.17416   0.55301   0.00000  Uiso   1.00
H725   H     0.86282   0.29596   0.43422   0.00000  Uiso   1.00
H726   H     0.80551   0.03736   0.56633   0.00000  Uiso   1.00
H727   H     0.76345   0.13241   0.37128   0.00000  Uiso   1.00
H728   H     0.90337   0.20079   0.62881   0.00000  Uiso   1.00
N729   N     0.83335   0.16668   0.61736   0.00000  Uiso   1.00
N730   N     0.83332   0.16666   0.38264   0.00000  Uiso   1.00
O731   O     0.83333   0.10655   0.53958   0.00000  Uiso   1.00
O732   O     0.83334   0.22678   0.46042   0.00000  Uiso   1.00
O733   O     0.83333   0.10654   0.46039   0.00000  Uiso   1.00
O734   O     0.83334   0.22679   0.53961   0.00000  Uiso   1.00
O735   O     0.75828   0.16667   0.53046   0.00000  Uiso   1.00
O736   O     0.90839   0.16666   0.46954   0.00000  Uiso   1.00
O737   O     0.75828   0.16666   0.45127   0.00000  Uiso   1.00
O738   O     0.90839   0.16667   0.54873   0.00000  Uiso   1.00
C739   C     0.87632   0.04218   0.42352   0.00000  Uiso   1.00
C740   C     0.84989   0.04139   0.37815   0.00000  Uiso   1.00
C741   C     0.87138   0.06140   0.34136   0.00000  Uiso   1.00
C742   C     0.91951   0.08190   0.34947   0.00000  Uiso   1.00
C743   C     0.94628   0.08243   0.39443   0.00000  Uiso   1.00
C744   C     0.92474   0.06280   0.43146   0.00000  Uiso   1.00
H745   H     0.81245   0.02576   0.37147   0.00000  Uiso   1.00
H746   H     0.85066   0.06115   0.63993   0.00000  Uiso   1.00
H747   H     0.93604   0.09737   0.65426   0.00000  Uiso   1.00
H748   H     0.98376   0.09799   0.40050   0.00000  Uiso   1.00
H749   H     0.94568   0.06363   0.46622   0.00000  Uiso   1.00
C750   C     0.79203   0.29134   0.57711   0.00000  Uiso   1.00
C751   C     0.74380   0.27034   0.56988   0.00000  Uiso   1.00
C752   C     0.72325   0.25053   0.60732   0.00000  Uiso   1.00
C753   C     0.75078   0.25136   0.65195   0.00000  Uiso   1.00
C754   C     0.79860   0.27238   0.65937   0.00000  Uiso   1.00
C755   C     0.81915   0.29249   0.62218   0.00000  Uiso   1.00
H756   H     0.72234   0.26924   0.53535   0.00000  Uiso   1.00
H757   H     0.68602   0.23453   0.60180   0.00000  Uiso   1.00
H758   H     0.73519   0.23564   0.34745   0.00000  Uiso   1.00
H759   H     0.81987   0.27286   0.36056   0.00000  Uiso   1.00
H760   H     0.85644   0.30841   0.62831   0.00000  Uiso   1.00
C761   C     0.74747   0.12701   0.61363   0.00000  Uiso   1.00
O762   O     0.70483   0.13416   0.62452   0.00000  Uiso   1.00
O763   O     0.75201   0.09688   0.58066   0.00000  Uiso   1.00
H764   H     0.71740   0.08459   0.56683   0.00000  Uiso   1.00
C765   C     0.91773   0.20816   0.38630   0.00000  Uiso   1.00
O766   O     0.91203   0.23347   0.41586   0.00000  Uiso   1.00
O767   O     0.96684   0.20281   0.37307   0.00000  Uiso   1.00
H768   H     0.99437   0.22072   0.39159   0.00000  Uiso   1.00
C769   C     0.16840   0.42088   0.50025   0.00000  Uiso   1.00
C770   C     0.16519   0.57914   0.49978   0.00000  Uiso   1.00
C771   C     0.06812   0.49959   0.48822   0.00000  Uiso   1.00
C772   C     0.26520   0.50051   0.51176   0.00000  Uiso   1.00
C773   C     0.01300   0.49804   0.48177   0.00000  Uiso   1.00
C774   C     0.32030   0.50223   0.51814   0.00000  Uiso   1.00
C775   C     0.18652   0.35480   0.46262   0.00000  Uiso   1.00
C776   C     0.14777   0.64528   0.53759   0.00000  Uiso   1.00
C777   C     0.18271   0.64550   0.46270   0.00000  Uiso   1.00
C778   C     0.15171   0.35454   0.53755   0.00000  Uiso   1.00
C779   C     0.16404   0.62382   0.49983   0.00000  Uiso   1.00
C780   C     0.16999   0.37624   0.50028   0.00000  Uiso   1.00
C781   C     0.12762   0.48115   0.35500   0.00000  Uiso   1.00
C782   C     0.20589   0.51865   0.64507   0.00000  Uiso   1.00
C783   C     0.12690   0.48105   0.63906   0.00000  Uiso   1.00
C784   C     0.20624   0.51917   0.36095   0.00000  Uiso   1.00
Cu785  Cu    0.16667   0.50001   0.54689   0.00000  Uiso   1.00
Cu786  Cu    0.16667   0.49999   0.45311   0.00000  Uiso   1.00
H787   H     0.32701   0.49295   0.44683   0.00000  Uiso   1.00
H788   H     0.00624   0.50749   0.55301   0.00000  Uiso   1.00
H789   H     0.19615   0.62929   0.43422   0.00000  Uiso   1.00
H790   H     0.13885   0.37069   0.56633   0.00000  Uiso   1.00
H791   H     0.09678   0.46574   0.37128   0.00000  Uiso   1.00
H792   H     0.23670   0.53412   0.62881   0.00000  Uiso   1.00
N793   N     0.16668   0.50001   0.61736   0.00000  Uiso   1.00
N794   N     0.16665   0.49999   0.38264   0.00000  Uiso   1.00
O795   O     0.16666   0.43989   0.53958   0.00000  Uiso   1.00
O796   O     0.16667   0.56011   0.46042   0.00000  Uiso   1.00
O797   O     0.16666   0.43988   0.46039   0.00000  Uiso   1.00
O798   O     0.16667   0.56012   0.53961   0.00000  Uiso   1.00
O799   O     0.09161   0.50000   0.53046   0.00000  Uiso   1.00
O800   O     0.24172   0.50000   0.46954   0.00000  Uiso   1.00
O801   O     0.09161   0.49999   0.45127   0.00000  Uiso   1.00
O802   O     0.24172   0.50001   0.54873   0.00000  Uiso   1.00
C803   C     0.20966   0.37551   0.42352   0.00000  Uiso   1.00
C804   C     0.18323   0.37472   0.37815   0.00000  Uiso   1.00
C805   C     0.20471   0.39473   0.34136   0.00000  Uiso   1.00
C806   C     0.25284   0.41523   0.34947   0.00000  Uiso   1.00
C807   C     0.27961   0.41576   0.39443   0.00000  Uiso   1.00
C808   C     0.25807   0.39614   0.43146   0.00000  Uiso   1.00
H809   H     0.14579   0.35909   0.37147   0.00000  Uiso   1.00
H810   H     0.18399   0.39449   0.63993   0.00000  Uiso   1.00
H811   H     0.26938   0.43071   0.65426   0.00000  Uiso   1.00
H812   H     0.31709   0.43132   0.40050   0.00000  Uiso   1.00
H813   H     0.27901   0.39696   0.46622   0.00000  Uiso   1.00
C814   C     0.12536   0.62467   0.57711   0.00000  Uiso   1.00
C815   C     0.07713   0.60368   0.56988   0.00000  Uiso   1.00
C816   C     0.05659   0.58386   0.60732   0.00000  Uiso   1.00
C817   C     0.08411   0.58469   0.65195   0.00000  Uiso   1.00
C818   C     0.13193   0.60572   0.65937   0.00000  Uiso   1.00
C819   C     0.15248   0.62582   0.62218   0.00000  Uiso   1.00
H820   H     0.05567   0.60258   0.53535   0.00000  Uiso   1.00
H821   H     0.01935   0.56786   0.60180   0.00000  Uiso   1.00
H822   H     0.06852   0.56897   0.34745   0.00000  Uiso   1.00
H823   H     0.15320   0.60619   0.36056   0.00000  Uiso   1.00
H824   H     0.18978   0.64175   0.62831   0.00000  Uiso   1.00
C825   C     0.08080   0.46034   0.61363   0.00000  Uiso   1.00
O826   O     0.03817   0.46749   0.62452   0.00000  Uiso   1.00
O827   O     0.08535   0.43021   0.58066   0.00000  Uiso   1.00
H828   H     0.05074   0.41793   0.56683   0.00000  Uiso   1.00
C829   C     0.25106   0.54150   0.38630   0.00000  Uiso   1.00
O830   O     0.24536   0.56681   0.41586   0.00000  Uiso   1.00
O831   O     0.30017   0.53615   0.37307   0.00000  Uiso   1.00
H832   H     0.32771   0.55405   0.39159   0.00000  Uiso   1.00
C833   C     0.50173   0.42088   0.50025   0.00000  Uiso   1.00
C834   C     0.49853   0.57914   0.49978   0.00000  Uiso   1.00
C835   C     0.40145   0.49959   0.48822   0.00000  Uiso   1.00
C836   C     0.59854   0.50051   0.51176   0.00000  Uiso   1.00
C837   C     0.34633   0.49804   0.48177   0.00000  Uiso   1.00
C838   C     0.65364   0.50223   0.51814   0.00000  Uiso   1.00
C839   C     0.51985   0.35480   0.46262   0.00000  Uiso   1.00
C840   C     0.48110   0.64528   0.53759   0.00000  Uiso   1.00
C841   C     0.51604   0.64550   0.46270   0.00000  Uiso   1.00
C842   C     0.48505   0.35454   0.53755   0.00000  Uiso   1.00
C843   C     0.49737   0.62382   0.49983   0.00000  Uiso   1.00
C844   C     0.50332   0.37624   0.50028   0.00000  Uiso   1.00
C845   C     0.46095   0.48115   0.35500   0.00000  Uiso   1.00
C846   C     0.53922   0.51865   0.64507   0.00000  Uiso   1.00
C847   C     0.46023   0.48105   0.63906   0.00000  Uiso   1.00
C848   C     0.53958   0.51917   0.36095   0.00000  Uiso   1.00
Cu849  Cu    0.50000   0.50001   0.54689   0.00000  Uiso   1.00
Cu850  Cu    0.50000   0.49999   0.45311   0.00000  Uiso   1.00
H851   H     0.66034   0.49295   0.44683   0.00000  Uiso   1.00
H852   H     0.33958   0.50749   0.55301   0.00000  Uiso   1.00
H853   H     0.52949   0.62929   0.43422   0.00000  Uiso   1.00
H854   H     0.47218   0.37069   0.56633   0.00000  Uiso   1.00
H855   H     0.43012   0.46574   0.37128   0.00000  Uiso   1.00
H856   H     0.57003   0.53412   0.62881   0.00000  Uiso   1.00
N857   N     0.50001   0.50001   0.61736   0.00000  Uiso   1.00
N858   N     0.49999   0.49999   0.38264   0.00000  Uiso   1.00
O859   O     0.50000   0.43989   0.53958   0.00000  Uiso   1.00
O860   O     0.50000   0.56011   0.46042   0.00000  Uiso   1.00
O861   O     0.50000   0.43988   0.46039   0.00000  Uiso   1.00
O862   O     0.50000   0.56012   0.53961   0.00000  Uiso   1.00
O863   O     0.42495   0.50000   0.53046   0.00000  Uiso   1.00
O864   O     0.57505   0.50000   0.46954   0.00000  Uiso   1.00
O865   O     0.42494   0.49999   0.45127   0.00000  Uiso   1.00
O866   O     0.57506   0.50001   0.54873   0.00000  Uiso   1.00
C867   C     0.54299   0.37551   0.42352   0.00000  Uiso   1.00
C868   C     0.51656   0.37472   0.37815   0.00000  Uiso   1.00
C869   C     0.53805   0.39473   0.34136   0.00000  Uiso   1.00
C870   C     0.58617   0.41523   0.34947   0.00000  Uiso   1.00
C871   C     0.61294   0.41576   0.39443   0.00000  Uiso   1.00
C872   C     0.59141   0.39614   0.43146   0.00000  Uiso   1.00
H873   H     0.47912   0.35909   0.37147   0.00000  Uiso   1.00
H874   H     0.51732   0.39449   0.63993   0.00000  Uiso   1.00
H875   H     0.60271   0.43071   0.65426   0.00000  Uiso   1.00
H876   H     0.65042   0.43132   0.40050   0.00000  Uiso   1.00
H877   H     0.61235   0.39696   0.46622   0.00000  Uiso   1.00
C878   C     0.45869   0.62467   0.57711   0.00000  Uiso   1.00
C879   C     0.41046   0.60368   0.56988   0.00000  Uiso   1.00
C880   C     0.38992   0.58386   0.60732   0.00000  Uiso   1.00
C881   C     0.41745   0.58469   0.65195   0.00000  Uiso   1.00
C882   C     0.46526   0.60572   0.65937   0.00000  Uiso   1.00
C883   C     0.48581   0.62582   0.62218   0.00000  Uiso   1.00
H884   H     0.38901   0.60258   0.53535   0.00000  Uiso   1.00
H885   H     0.35269   0.56786   0.60180   0.00000  Uiso   1.00
H886   H     0.40185   0.56897   0.34745   0.00000  Uiso   1.00
H887   H     0.48653   0.60619   0.36056   0.00000  Uiso   1.00
H888   H     0.52311   0.64175   0.62831   0.00000  Uiso   1.00
C889   C     0.41413   0.46034   0.61363   0.00000  Uiso   1.00
O890   O     0.37150   0.46749   0.62452   0.00000  Uiso   1.00
O891   O     0.41868   0.43021   0.58066   0.00000  Uiso   1.00
H892   H     0.38407   0.41793   0.56683   0.00000  Uiso   1.00
C893   C     0.58439   0.54150   0.38630   0.00000  Uiso   1.00
O894   O     0.57870   0.56681   0.41586   0.00000  Uiso   1.00
O895   O     0.63351   0.53615   0.37307   0.00000  Uiso   1.00
H896   H     0.66104   0.55405   0.39159   0.00000  Uiso   1.00
C897   C     0.83507   0.42088   0.50025   0.00000  Uiso   1.00
C898   C     0.83186   0.57914   0.49978   0.00000  Uiso   1.00
C899   C     0.73479   0.49959   0.48822   0.00000  Uiso   1.00
C900   C     0.93187   0.50051   0.51176   0.00000  Uiso   1.00
C901   C     0.67966   0.49804   0.48177   0.00000  Uiso   1.00
C902   C     0.98697   0.50223   0.51814   0.00000  Uiso   1.00
C903   C     0.85319   0.35480   0.46262   0.00000  Uiso   1.00
C904   C     0.81444   0.64528   0.53759   0.00000  Uiso   1.00
C905   C     0.84938   0.64550   0.46270   0.00000  Uiso   1.00
C906   C     0.81838   0.35454   0.53755   0.00000  Uiso   1.00
C907   C     0.83071   0.62382   0.49983   0.00000  Uiso   1.00
C908   C     0.83665   0.37624   0.50028   0.00000  Uiso   1.00
C909   C     0.79429   0.48115   0.35500   0.00000  Uiso   1.00
C910   C     0.87255   0.51865   0.64507   0.00000  Uiso   1.00
C911   C     0.79357   0.48105   0.63906   0.00000  Uiso   1.00
C912   C     0.87291   0.51917   0.36095   0.00000  Uiso   1.00
Cu913  Cu    0.83333   0.50001   0.54689   0.00000  Uiso   1.00
Cu914  Cu    0.83333   0.49999   0.45311   0.00000  Uiso   1.00
H915   H     0.99367   0.49295   0.44683   0.00000  Uiso   1.00
H916   H     0.67291   0.50749   0.55301   0.00000  Uiso   1.00
H917   H     0.86282   0.62929   0.43422   0.00000  Uiso   1.00
H918   H     0.80551   0.37069   0.56633   0.00000  Uiso   1.00
H919   H     0.76345   0.46574   0.37128   0.00000  Uiso   1.00
H920   H     0.90337   0.53412   0.62881   0.00000  Uiso   1.00
N921   N     0.83335   0.50001   0.61736   0.00000  Uiso   1.00
N922   N     0.83332   0.49999   0.38264   0.00000  Uiso   1.00
O923   O     0.83333   0.43989   0.53958   0.00000  Uiso   1.00
O924   O     0.83334   0.56011   0.46042   0.00000  Uiso   1.00
O925   O     0.83333   0.43988   0.46039   0.00000  Uiso   1.00
O926   O     0.83334   0.56012   0.53961   0.00000  Uiso   1.00
O927   O     0.75828   0.50000   0.53046   0.00000  Uiso   1.00
O928   O     0.90839   0.50000   0.46954   0.00000  Uiso   1.00
O929   O     0.75828   0.49999   0.45127   0.00000  Uiso   1.00
O930   O     0.90839   0.50001   0.54873   0.00000  Uiso   1.00
C931   C     0.87632   0.37551   0.42352   0.00000  Uiso   1.00
C932   C     0.84989   0.37472   0.37815   0.00000  Uiso   1.00
C933   C     0.87138   0.39473   0.34136   0.00000  Uiso   1.00
C934   C     0.91951   0.41523   0.34947   0.00000  Uiso   1.00
C935   C     0.94628   0.41576   0.39443   0.00000  Uiso   1.00
C936   C     0.92474   0.39614   0.43146   0.00000  Uiso   1.00
H937   H     0.81245   0.35909   0.37147   0.00000  Uiso   1.00
H938   H     0.85066   0.39449   0.63993   0.00000  Uiso   1.00
H939   H     0.93604   0.43071   0.65426   0.00000  Uiso   1.00
H940   H     0.98376   0.43132   0.40050   0.00000  Uiso   1.00
H941   H     0.94568   0.39696   0.46622   0.00000  Uiso   1.00
C942   C     0.79203   0.62467   0.57711   0.00000  Uiso   1.00
C943   C     0.74380   0.60368   0.56988   0.00000  Uiso   1.00
C944   C     0.72325   0.58386   0.60732   0.00000  Uiso   1.00
C945   C     0.75078   0.58469   0.65195   0.00000  Uiso   1.00
C946   C     0.79860   0.60572   0.65937   0.00000  Uiso   1.00
C947   C     0.81915   0.62582   0.62218   0.00000  Uiso   1.00
H948   H     0.72234   0.60258   0.53535   0.00000  Uiso   1.00
H949   H     0.68602   0.56786   0.60180   0.00000  Uiso   1.00
H950   H     0.73519   0.56897   0.34745   0.00000  Uiso   1.00
H951   H     0.81987   0.60619   0.36056   0.00000  Uiso   1.00
H952   H     0.85644   0.64175   0.62831   0.00000  Uiso   1.00
C953   C     0.74747   0.46034   0.61363   0.00000  Uiso   1.00
O954   O     0.70483   0.46749   0.62452   0.00000  Uiso   1.00
O955   O     0.75201   0.43021   0.58066   0.00000  Uiso   1.00
H956   H     0.71740   0.41793   0.56683   0.00000  Uiso   1.00
C957   C     0.91773   0.54150   0.38630   0.00000  Uiso   1.00
O958   O     0.91203   0.56681   0.41586   0.00000  Uiso   1.00
O959   O     0.96684   0.53615   0.37307   0.00000  Uiso   1.00
H960   H     0.99437   0.55405   0.39159   0.00000  Uiso   1.00
C961   C     0.16840   0.75422   0.50025   0.00000  Uiso   1.00
C962   C     0.16519   0.91247   0.49978   0.00000  Uiso   1.00
C963   C     0.06812   0.83292   0.48822   0.00000  Uiso   1.00
C964   C     0.26520   0.83384   0.51176   0.00000  Uiso   1.00
C965   C     0.01300   0.83138   0.48177   0.00000  Uiso   1.00
C966   C     0.32030   0.83556   0.51814   0.00000  Uiso   1.00
C967   C     0.18652   0.68813   0.46262   0.00000  Uiso   1.00
C968   C     0.14777   0.97862   0.53759   0.00000  Uiso   1.00
C969   C     0.18271   0.97884   0.46270   0.00000  Uiso   1.00
C970   C     0.15171   0.68787   0.53755   0.00000  Uiso   1.00
C971   C     0.16404   0.95715   0.49983   0.00000  Uiso   1.00
C972   C     0.16999   0.70957   0.50028   0.00000  Uiso   1.00
C973   C     0.12762   0.81448   0.35500   0.00000  Uiso   1.00
C974   C     0.20589   0.85199   0.64507   0.00000  Uiso   1.00
C975   C     0.12690   0.81438   0.63906   0.00000  Uiso   1.00
C976   C     0.20624   0.85250   0.36095   0.00000  Uiso   1.00
Cu977  Cu    0.16667   0.83334   0.54689   0.00000  Uiso   1.00
Cu978  Cu    0.16667   0.83333   0.45311   0.00000  Uiso   1.00
H979   H     0.32701   0.82628   0.44683   0.00000  Uiso   1.00
H980   H     0.00624   0.84083   0.55301   0.00000  Uiso   1.00
H981   H     0.19615   0.96262   0.43422   0.00000  Uiso   1.00
H982   H     0.13885   0.70402   0.56633   0.00000  Uiso   1.00
H983   H     0.09678   0.79907   0.37128   0.00000  Uiso   1.00
H984   H     0.23670   0.86745   0.62881   0.00000  Uiso   1.00
N985   N     0.16668   0.83334   0.61736   0.00000  Uiso   1.00
N986   N     0.16665   0.83332   0.38264   0.00000  Uiso   1.00
O987   O     0.16666   0.77322   0.53958   0.00000  Uiso   1.00
O988   O     0.16667   0.89345   0.46042   0.00000  Uiso   1.00
O989   O     0.16666   0.77321   0.46039   0.00000  Uiso   1.00
O990   O     0.16667   0.89346   0.53961   0.00000  Uiso   1.00
O991   O     0.09161   0.83334   0.53046   0.00000  Uiso   1.00
O992   O     0.24172   0.83333   0.46954   0.00000  Uiso   1.00
O993   O     0.09161   0.83333   0.45127   0.00000  Uiso   1.00
O994   O     0.24172   0.83334   0.54873   0.00000  Uiso   1.00
C995   C     0.20966   0.70885   0.42352   0.00000  Uiso   1.00
C996   C     0.18323   0.70805   0.37815   0.00000  Uiso   1.00
C997   C     0.20471   0.72807   0.34136   0.00000  Uiso   1.00
C998   C     0.25284   0.74857   0.34947   0.00000  Uiso   1.00
C999   C     0.27961   0.74910   0.39443   0.00000  Uiso   1.00
C1000  C     0.25807   0.72947   0.43146   0.00000  Uiso   1.00
H1001  H     0.14579   0.69243   0.37147   0.00000  Uiso   1.00
H1002  H     0.18399   0.72782   0.63993   0.00000  Uiso   1.00
H1003  H     0.26938   0.76404   0.65426   0.00000  Uiso   1.00
H1004  H     0.31709   0.76465   0.40050   0.00000  Uiso   1.00
H1005  H     0.27901   0.73030   0.46622   0.00000  Uiso   1.00
C1006  C     0.12536   0.95800   0.57711   0.00000  Uiso   1.00
C1007  C     0.07713   0.93701   0.56988   0.00000  Uiso   1.00
C1008  C     0.05659   0.91720   0.60732   0.00000  Uiso   1.00
C1009  C     0.08411   0.91803   0.65195   0.00000  Uiso   1.00
C1010  C     0.13193   0.93905   0.65937   0.00000  Uiso   1.00
C1011  C     0.15248   0.95915   0.62218   0.00000  Uiso   1.00
H1012  H     0.05567   0.93591   0.53535   0.00000  Uiso   1.00
H1013  H     0.01935   0.90120   0.60180   0.00000  Uiso   1.00
H1014  H     0.06852   0.90231   0.34745   0.00000  Uiso   1.00
H1015  H     0.15320   0.93953   0.36056   0.00000  Uiso   1.00
H1016  H     0.18978   0.97508   0.62831   0.00000  Uiso   1.00
C1017  C     0.08080   0.79367   0.61363   0.00000  Uiso   1.00
O1018  O     0.03817   0.80083   0.62452   0.00000  Uiso   1.00
O1019  O     0.08535   0.76355   0.58066   0.00000  Uiso   1.00
H1020  H     0.05074   0.75126   0.56683   0.00000  Uiso   1.00
C1021  C     0.25106   0.87483   0.38630   0.00000  Uiso   1.00
O1022  O     0.24536   0.90014   0.41586   0.00000  Uiso   1.00
O1023  O     0.30017   0.86948   0.37307   0.00000  Uiso   1.00
H1024  H     0.32771   0.88738   0.39159   0.00000  Uiso   1.00
C1025  C     0.50173   0.75422   0.50025   0.00000  Uiso   1.00
C1026  C     0.49853   0.91247   0.49978   0.00000  Uiso   1.00
C1027  C     0.40145   0.83292   0.48822   0.00000  Uiso   1.00
C1028  C     0.59854   0.83384   0.51176   0.00000  Uiso   1.00
C1029  C     0.34633   0.83138   0.48177   0.00000  Uiso   1.00
C1030  C     0.65364   0.83556   0.51814   0.00000  Uiso   1.00
C1031  C     0.51985   0.68813   0.46262   0.00000  Uiso   1.00
C1032  C     0.48110   0.97862   0.53759   0.00000  Uiso   1.00
C1033  C     0.51604   0.97884   0.46270   0.00000  Uiso   1.00
C1034  C     0.48505   0.68787   0.53755   0.00000  Uiso   1.00
C1035  C     0.49737   0.95715   0.49983   0.00000  Uiso   1.00
C1036  C     0.50332   0.70957   0.50028   0.00000  Uiso   1.00
C1037  C     0.46095   0.81448   0.35500   0.00000  Uiso   1.00
C1038  C     0.53922   0.85199   0.64507   0.00000  Uiso   1.00
C1039  C     0.46023   0.81438   0.63906   0.00000  Uiso   1.00
C1040  C     0.53958   0.85250   0.36095   0.00000  Uiso   1.00
Cu1041 Cu    0.50000   0.83334   0.54689   0.00000  Uiso   1.00
Cu1042 Cu    0.50000   0.83333   0.45311   0.00000  Uiso   1.00
H1043  H     0.66034   0.82628   0.44683   0.00000  Uiso   1.00
H1044  H     0.33958   0.84083   0.55301   0.00000  Uiso   1.00
H1045  H     0.52949   0.96262   0.43422   0.00000  Uiso   1.00
H1046  H     0.47218   0.70402   0.56633   0.00000  Uiso   1.00
H1047  H     0.43012   0.79907   0.37128   0.00000  Uiso   1.00
H1048  H     0.57003   0.86745   0.62881   0.00000  Uiso   1.00
N1049  N     0.50001   0.83334   0.61736   0.00000  Uiso   1.00
N1050  N     0.49999   0.83332   0.38264   0.00000  Uiso   1.00
O1051  O     0.50000   0.77322   0.53958   0.00000  Uiso   1.00
O1052  O     0.50000   0.89345   0.46042   0.00000  Uiso   1.00
O1053  O     0.50000   0.77321   0.46039   0.00000  Uiso   1.00
O1054  O     0.50000   0.89346   0.53961   0.00000  Uiso   1.00
O1055  O     0.42495   0.83334   0.53046   0.00000  Uiso   1.00
O1056  O     0.57505   0.83333   0.46954   0.00000  Uiso   1.00
O1057  O     0.42494   0.83333   0.45127   0.00000  Uiso   1.00
O1058  O     0.57506   0.83334   0.54873   0.00000  Uiso   1.00
C1059  C     0.54299   0.70885   0.42352   0.00000  Uiso   1.00
C1060  C     0.51656   0.70805   0.37815   0.00000  Uiso   1.00
C1061  C     0.53805   0.72807   0.34136   0.00000  Uiso   1.00
C1062  C     0.58617   0.74857   0.34947   0.00000  Uiso   1.00
C1063  C     0.61294   0.74910   0.39443   0.00000  Uiso   1.00
C1064  C     0.59141   0.72947   0.43146   0.00000  Uiso   1.00
H1065  H     0.47912   0.69243   0.37147   0.00000  Uiso   1.00
H1066  H     0.51732   0.72782   0.63993   0.00000  Uiso   1.00
H1067  H     0.60271   0.76404   0.65426   0.00000  Uiso   1.00
H1068  H     0.65042   0.76465   0.40050   0.00000  Uiso   1.00
H1069  H     0.61235   0.73030   0.46622   0.00000  Uiso   1.00
C1070  C     0.45869   0.95800   0.57711   0.00000  Uiso   1.00
C1071  C     0.41046   0.93701   0.56988   0.00000  Uiso   1.00
C1072  C     0.38992   0.91720   0.60732   0.00000  Uiso   1.00
C1073  C     0.41745   0.91803   0.65195   0.00000  Uiso   1.00
C1074  C     0.46526   0.93905   0.65937   0.00000  Uiso   1.00
C1075  C     0.48581   0.95915   0.62218   0.00000  Uiso   1.00
H1076  H     0.38901   0.93591   0.53535   0.00000  Uiso   1.00
H1077  H     0.35269   0.90120   0.60180   0.00000  Uiso   1.00
H1078  H     0.40185   0.90231   0.34745   0.00000  Uiso   1.00
H1079  H     0.48653   0.93953   0.36056   0.00000  Uiso   1.00
H1080  H     0.52311   0.97508   0.62831   0.00000  Uiso   1.00
C1081  C     0.41413   0.79367   0.61363   0.00000  Uiso   1.00
O1082  O     0.37150   0.80083   0.62452   0.00000  Uiso   1.00
O1083  O     0.41868   0.76355   0.58066   0.00000  Uiso   1.00
H1084  H     0.38407   0.75126   0.56683   0.00000  Uiso   1.00
C1085  C     0.58439   0.87483   0.38630   0.00000  Uiso   1.00
O1086  O     0.57870   0.90014   0.41586   0.00000  Uiso   1.00
O1087  O     0.63351   0.86948   0.37307   0.00000  Uiso   1.00
H1088  H     0.66104   0.88738   0.39159   0.00000  Uiso   1.00
C1089  C     0.83507   0.75422   0.50025   0.00000  Uiso   1.00
C1090  C     0.83186   0.91247   0.49978   0.00000  Uiso   1.00
C1091  C     0.73479   0.83292   0.48822   0.00000  Uiso   1.00
C1092  C     0.93187   0.83384   0.51176   0.00000  Uiso   1.00
C1093  C     0.67966   0.83138   0.48177   0.00000  Uiso   1.00
C1094  C     0.98697   0.83556   0.51814   0.00000  Uiso   1.00
C1095  C     0.85319   0.68813   0.46262   0.00000  Uiso   1.00
C1096  C     0.81444   0.97862   0.53759   0.00000  Uiso   1.00
C1097  C     0.84938   0.97884   0.46270   0.00000  Uiso   1.00
C1098  C     0.81838   0.68787   0.53755   0.00000  Uiso   1.00
C1099  C     0.83071   0.95715   0.49983   0.00000  Uiso   1.00
C1100  C     0.83665   0.70957   0.50028   0.00000  Uiso   1.00
C1101  C     0.79429   0.81448   0.35500   0.00000  Uiso   1.00
C1102  C     0.87255   0.85199   0.64507   0.00000  Uiso   1.00
C1103  C     0.79357   0.81438   0.63906   0.00000  Uiso   1.00
C1104  C     0.87291   0.85250   0.36095   0.00000  Uiso   1.00
Cu1105 Cu    0.83333   0.83334   0.54689   0.00000  Uiso   1.00
Cu1106 Cu    0.83333   0.83333   0.45311   0.00000  Uiso   1.00
H1107  H     0.99367   0.82628   0.44683   0.00000  Uiso   1.00
H1108  H     0.67291   0.84083   0.55301   0.00000  Uiso   1.00
H1109  H     0.86282   0.96262   0.43422   0.00000  Uiso   1.00
H1110  H     0.80551   0.70402   0.56633   0.00000  Uiso   1.00
H1111  H     0.76345   0.79907   0.37128   0.00000  Uiso   1.00
H1112  H     0.90337   0.86745   0.62881   0.00000  Uiso   1.00
N1113  N     0.83335   0.83334   0.61736   0.00000  Uiso   1.00
N1114  N     0.83332   0.83332   0.38264   0.00000  Uiso   1.00
O1115  O     0.83333   0.77322   0.53958   0.00000  Uiso   1.00
O1116  O     0.83334   0.89345   0.46042   0.00000  Uiso   1.00
O1117  O     0.83333   0.77321   0.46039   0.00000  Uiso   1.00
O1118  O     0.83334   0.89346   0.53961   0.00000  Uiso   1.00
O1119  O     0.75828   0.83334   0.53046   0.00000  Uiso   1.00
O1120  O     0.90839   0.83333   0.46954   0.00000  Uiso   1.00
O1121  O     0.75828   0.83333   0.45127   0.00000  Uiso   1.00
O1122  O     0.90839   0.83334   0.54873   0.00000  Uiso   1.00
C1123  C     0.87632   0.70885   0.42352   0.00000  Uiso   1.00
C1124  C     0.84989   0.70805   0.37815   0.00000  Uiso   1.00
C1125  C     0.87138   0.72807   0.34136   0.00000  Uiso   1.00
C1126  C     0.91951   0.74857   0.34947   0.00000  Uiso   1.00
C1127  C     0.94628   0.74910   0.39443   0.00000  Uiso   1.00
C1128  C     0.92474   0.72947   0.43146   0.00000  Uiso   1.00
H1129  H     0.81245   0.69243   0.37147   0.00000  Uiso   1.00
H1130  H     0.85066   0.72782   0.63993   0.00000  Uiso   1.00
H1131  H     0.93604   0.76404   0.65426   0.00000  Uiso   1.00
H1132  H     0.98376   0.76465   0.40050   0.00000  Uiso   1.00
H1133  H     0.94568   0.73030   0.46622   0.00000  Uiso   1.00
C1134  C     0.79203   0.95800   0.57711   0.00000  Uiso   1.00
C1135  C     0.74380   0.93701   0.56988   0.00000  Uiso   1.00
C1136  C     0.72325   0.91720   0.60732   0.00000  Uiso   1.00
C1137  C     0.75078   0.91803   0.65195   0.00000  Uiso   1.00
C1138  C     0.79860   0.93905   0.65937   0.00000  Uiso   1.00
C1139  C     0.81915   0.95915   0.62218   0.00000  Uiso   1.00
H1140  H     0.72234   0.93591   0.53535   0.00000  Uiso   1.00
H1141  H     0.68602   0.90120   0.60180   0.00000  Uiso   1.00
H1142  H     0.73519   0.90231   0.34745   0.00000  Uiso   1.00
H1143  H     0.81987   0.93953   0.36056   0.00000  Uiso   1.00
H1144  H     0.85644   0.97508   0.62831   0.00000  Uiso   1.00
C1145  C     0.74747   0.79367   0.61363   0.00000  Uiso   1.00
O1146  O     0.70483   0.80083   0.62452   0.00000  Uiso   1.00
O1147  O     0.75201   0.76355   0.58066   0.00000  Uiso   1.00
H1148  H     0.71740   0.75126   0.56683   0.00000  Uiso   1.00
C1149  C     0.91773   0.87483   0.38630   0.00000  Uiso   1.00
O1150  O     0.91203   0.90014   0.41586   0.00000  Uiso   1.00
O1151  O     0.96684   0.86948   0.37307   0.00000  Uiso   1.00
H1152  H     0.99437   0.88738   0.39159   0.00000  Uiso   1.00
C1153  C     0.16840   0.08755   0.83358   0.00000  Uiso   1.00
C1154  C     0.16519   0.24581   0.83311   0.00000  Uiso   1.00
C1155  C     0.06812   0.16625   0.82156   0.00000  Uiso   1.00
C1156  C     0.26520   0.16718   0.84509   0.00000  Uiso   1.00
C1157  C     0.01300   0.16471   0.81510   0.00000  Uiso   1.00
C1158  C     0.32030   0.16890   0.85147   0.00000  Uiso   1.00
C1159  C     0.18652   0.02147   0.79595   0.00000  Uiso   1.00
C1160  C     0.14777   0.31195   0.87092   0.00000  Uiso   1.00
C1161  C     0.18271   0.31217   0.79604   0.00000  Uiso   1.00
C1162  C     0.15171   0.02120   0.87088   0.00000  Uiso   1.00
C1163  C     0.16404   0.29048   0.83316   0.00000  Uiso   1.00
C1164  C     0.16999   0.04290   0.83361   0.00000  Uiso   1.00
C1165  C     0.12762   0.14782   0.68833   0.00000  Uiso   1.00
C1166  C     0.20589   0.18532   0.97840   0.00000  Uiso   1.00
C1167  C     0.12690   0.14772   0.97239   0.00000  Uiso   1.00
C1168  C     0.20624   0.18584   0.69428   0.00000  Uiso   1.00
Cu1169 Cu    0.16667   0.16667   0.88022   0.00000  Uiso   1.00
Cu1170 Cu    0.16667   0.16666   0.78645   0.00000  Uiso   1.00
H1171  H     0.32701   0.15961   0.78017   0.00000  Uiso   1.00
H1172  H     0.00624   0.17416   0.88634   0.00000  Uiso   1.00
H1173  H     0.19615   0.29596   0.76755   0.00000  Uiso   1.00
H1174  H     0.13885   0.03736   0.89967   0.00000  Uiso   1.00
H1175  H     0.09678   0.13241   0.70462   0.00000  Uiso   1.00
H1176  H     0.23670   0.20079   0.96215   0.00000  Uiso   1.00
N1177  N     0.16668   0.16668   0.95069   0.00000  Uiso   1.00
N1178  N     0.16665   0.16666   0.71597   0.00000  Uiso   1.00
O1179  O     0.16666   0.10655   0.87291   0.00000  Uiso   1.00
O1180  O     0.16667   0.22678   0.79375   0.00000  Uiso   1.00
O1181  O     0.16666   0.10654   0.79372   0.00000  Uiso   1.00
O1182  O     0.16667   0.22679   0.87294   0.00000  Uiso   1.00
O1183  O     0.09161   0.16667   0.86379   0.00000  Uiso   1.00
O1184  O     0.24172   0.16666   0.80288   0.00000  Uiso   1.00
O1185  O     0.09161   0.16666   0.78460   0.00000  Uiso   1.00
O1186  O     0.24172   0.16667   0.88207   0.00000  Uiso   1.00
C1187  C     0.20966   0.04218   0.75685   0.00000  Uiso   1.00
C1188  C     0.18323   0.04139   0.71149   0.00000  Uiso   1.00
C1189  C     0.20471   0.06140   0.67470   0.00000  Uiso   1.00
C1190  C     0.25284   0.08190   0.68281   0.00000  Uiso   1.00
C1191  C     0.27961   0.08243   0.72776   0.00000  Uiso   1.00
C1192  C     0.25807   0.06280   0.76480   0.00000  Uiso   1.00
H1193  H     0.14579   0.02576   0.70481   0.00000  Uiso   1.00
H1194  H     0.18399   0.06115   0.97326   0.00000  Uiso   1.00
H1195  H     0.26938   0.09737   0.98760   0.00000  Uiso   1.00
H1196  H     0.31709   0.09799   0.73383   0.00000  Uiso   1.00
H1197  H     0.27901   0.06363   0.79956   0.00000  Uiso   1.00
C1198  C     0.12536   0.29134   0.91045   0.00000  Uiso   1.00
C1199  C     0.07713   0.27034   0.90322   0.00000  Uiso   1.00
C1200  C     0.05659   0.25053   0.94065   0.00000  Uiso   1.00
C1201  C     0.08411   0.25136   0.98528   0.00000  Uiso   1.00
C1202  C     0.13193   0.27238   0.99271   0.00000  Uiso   1.00
C1203  C     0.15248   0.29249   0.95552   0.00000  Uiso   1.00
H1204  H     0.05567   0.26924   0.86868   0.00000  Uiso   1.00
H1205  H     0.01935   0.23453   0.93513   0.00000  Uiso   1.00
H1206  H     0.06852   0.23564   0.68078   0.00000  Uiso   1.00
H1207  H     0.15320   0.27286   0.69389   0.00000  Uiso   1.00
H1208  H     0.18978   0.30841   0.96165   0.00000  Uiso   1.00
C1209  C     0.08080   0.12701   0.94696   0.00000  Uiso   1.00
O1210  O     0.03817   0.13416   0.95785   0.00000  Uiso   1.00
O1211  O     0.08535   0.09688   0.91400   0.00000  Uiso   1.00
H1212  H     0.05074   0.08459   0.90016   0.00000  Uiso   1.00
C1213  C     0.25106   0.20816   0.71964   0.00000  Uiso   1.00
O1214  O     0.24536   0.23347   0.74920   0.00000  Uiso   1.00
O1215  O     0.30017   0.20281   0.70640   0.00000  Uiso   1.00
H1216  H     0.32771   0.22072   0.72493   0.00000  Uiso   1.00
C1217  C     0.50173   0.08755   0.83358   0.00000  Uiso   1.00
C1218  C     0.49853   0.24581   0.83311   0.00000  Uiso   1.00
C1219  C     0.40145   0.16625   0.82156   0.00000  Uiso   1.00
C1220  C     0.59854   0.16718   0.84509   0.00000  Uiso   1.00
C1221  C     0.34633   0.16471   0.81510   0.00000  Uiso   1.00
C1222  C     0.65364   0.16890   0.85147   0.00000  Uiso   1.00
C1223  C     0.51985   0.02147   0.79595   0.00000  Uiso   1.00
C1224  C     0.48110   0.31195   0.87092   0.00000  Uiso   1.00
C1225  C     0.51604   0.31217   0.79604   0.00000  Uiso   1.00
C1226  C     0.48505   0.02120   0.87088   0.00000  Uiso   1.00
C1227  C     0.49737   0.29048   0.83316   0.00000  Uiso   1.00
C1228  C     0.50332   0.04290   0.83361   0.00000  Uiso   1.00
C1229  C     0.46095   0.14782   0.68833   0.00000  Uiso   1.00
C1230  C     0.53922   0.18532   0.97840   0.00000  Uiso   1.00
C1231  C     0.46023   0.14772   0.97239   0.00000  Uiso   1.00
C1232  C     0.53958   0.18584   0.69428   0.00000  Uiso   1.00
Cu1233 Cu    0.50000   0.16667   0.88022   0.00000  Uiso   1.00
Cu1234 Cu    0.50000   0.16666   0.78645   0.00000  Uiso   1.00
H1235  H     0.66034   0.15961   0.78017   0.00000  Uiso   1.00
H1236  H     0.33958   0.17416   0.88634   0.00000  Uiso   1.00
H1237  H     0.52949   0.29596   0.76755   0.00000  Uiso   1.00
H1238  H     0.47218   0.03736   0.89967   0.00000  Uiso   1.00
H1239  H     0.43012   0.13241   0.70462   0.00000  Uiso   1.00
H1240  H     0.57003   0.20079   0.96215   0.00000  Uiso   1.00
N1241  N     0.50001   0.16668   0.95069   0.00000  Uiso   1.00
N1242  N     0.49999   0.16666   0.71597   0.00000  Uiso   1.00
O1243  O     0.50000   0.10655   0.87291   0.00000  Uiso   1.00
O1244  O     0.50000   0.22678   0.79375   0.00000  Uiso   1.00
O1245  O     0.50000   0.10654   0.79372   0.00000  Uiso   1.00
O1246  O     0.50000   0.22679   0.87294   0.00000  Uiso   1.00
O1247  O     0.42495   0.16667   0.86379   0.00000  Uiso   1.00
O1248  O     0.57505   0.16666   0.80288   0.00000  Uiso   1.00
O1249  O     0.42494   0.16666   0.78460   0.00000  Uiso   1.00
O1250  O     0.57506   0.16667   0.88207   0.00000  Uiso   1.00
C1251  C     0.54299   0.04218   0.75685   0.00000  Uiso   1.00
C1252  C     0.51656   0.04139   0.71149   0.00000  Uiso   1.00
C1253  C     0.53805   0.06140   0.67470   0.00000  Uiso   1.00
C1254  C     0.58617   0.08190   0.68281   0.00000  Uiso   1.00
C1255  C     0.61294   0.08243   0.72776   0.00000  Uiso   1.00
C1256  C     0.59141   0.06280   0.76480   0.00000  Uiso   1.00
H1257  H     0.47912   0.02576   0.70481   0.00000  Uiso   1.00
H1258  H     0.51732   0.06115   0.97326   0.00000  Uiso   1.00
H1259  H     0.60271   0.09737   0.98760   0.00000  Uiso   1.00
H1260  H     0.65042   0.09799   0.73383   0.00000  Uiso   1.00
H1261  H     0.61235   0.06363   0.79956   0.00000  Uiso   1.00
C1262  C     0.45869   0.29134   0.91045   0.00000  Uiso   1.00
C1263  C     0.41046   0.27034   0.90322   0.00000  Uiso   1.00
C1264  C     0.38992   0.25053   0.94065   0.00000  Uiso   1.00
C1265  C     0.41745   0.25136   0.98528   0.00000  Uiso   1.00
C1266  C     0.46526   0.27238   0.99271   0.00000  Uiso   1.00
C1267  C     0.48581   0.29249   0.95552   0.00000  Uiso   1.00
H1268  H     0.38901   0.26924   0.86868   0.00000  Uiso   1.00
H1269  H     0.35269   0.23453   0.93513   0.00000  Uiso   1.00
H1270  H     0.40185   0.23564   0.68078   0.00000  Uiso   1.00
H1271  H     0.48653   0.27286   0.69389   0.00000  Uiso   1.00
H1272  H     0.52311   0.30841   0.96165   0.00000  Uiso   1.00
C1273  C     0.41413   0.12701   0.94696   0.00000  Uiso   1.00
O1274  O     0.37150   0.13416   0.95785   0.00000  Uiso   1.00
O1275  O     0.41868   0.09688   0.91400   0.00000  Uiso   1.00
H1276  H     0.38407   0.08459   0.90016   0.00000  Uiso   1.00
C1277  C     0.58439   0.20816   0.71964   0.00000  Uiso   1.00
O1278  O     0.57870   0.23347   0.74920   0.00000  Uiso   1.00
O1279  O     0.63351   0.20281   0.70640   0.00000  Uiso   1.00
H1280  H     0.66104   0.22072   0.72493   0.00000  Uiso   1.00
C1281  C     0.83507   0.08755   0.83358   0.00000  Uiso   1.00
C1282  C     0.83186   0.24581   0.83311   0.00000  Uiso   1.00
C1283  C     0.73479   0.16625   0.82156   0.00000  Uiso   1.00
C1284  C     0.93187   0.16718   0.84509   0.00000  Uiso   1.00
C1285  C     0.67966   0.16471   0.81510   0.00000  Uiso   1.00
C1286  C     0.98697   0.16890   0.85147   0.00000  Uiso   1.00
C1287  C     0.85319   0.02147   0.79595   0.00000  Uiso   1.00
C1288  C     0.81444   0.31195   0.87092   0.00000  Uiso   1.00
C1289  C     0.84938   0.31217   0.79604   0.00000  Uiso   1.00
C1290  C     0.81838   0.02120   0.87088   0.00000  Uiso   1.00
C1291  C     0.83071   0.29048   0.83316   0.00000  Uiso   1.00
C1292  C     0.83665   0.04290   0.83361   0.00000  Uiso   1.00
C1293  C     0.79429   0.14782   0.68833   0.00000  Uiso   1.00
C1294  C     0.87255   0.18532   0.97840   0.00000  Uiso   1.00
C1295  C     0.79357   0.14772   0.97239   0.00000  Uiso   1.00
C1296  C     0.87291   0.18584   0.69428   0.00000  Uiso   1.00
Cu1297 Cu    0.83333   0.16667   0.88022   0.00000  Uiso   1.00
Cu1298 Cu    0.83333   0.16666   0.78645   0.00000  Uiso   1.00
H1299  H     0.99367   0.15961   0.78017   0.00000  Uiso   1.00
H1300  H     0.67291   0.17416   0.88634   0.00000  Uiso   1.00
H1301  H     0.86282   0.29596   0.76755   0.00000  Uiso   1.00
H1302  H     0.80551   0.03736   0.89967   0.00000  Uiso   1.00
H1303  H     0.76345   0.13241   0.70462   0.00000  Uiso   1.00
H1304  H     0.90337   0.20079   0.96215   0.00000  Uiso   1.00
N1305  N     0.83335   0.16668   0.95069   0.00000  Uiso   1.00
N1306  N     0.83332   0.16666   0.71597   0.00000  Uiso   1.00
O1307  O     0.83333   0.10655   0.87291   0.00000  Uiso   1.00
O1308  O     0.83334   0.22678   0.79375   0.00000  Uiso   1.00
O1309  O     0.83333   0.10654   0.79372   0.00000  Uiso   1.00
O1310  O     0.83334   0.22679   0.87294   0.00000  Uiso   1.00
O1311  O     0.75828   0.16667   0.86379   0.00000  Uiso   1.00
O1312  O     0.90839   0.16666   0.80288   0.00000  Uiso   1.00
O1313  O     0.75828   0.16666   0.78460   0.00000  Uiso   1.00
O1314  O     0.90839   0.16667   0.88207   0.00000  Uiso   1.00
C1315  C     0.87632   0.04218   0.75685   0.00000  Uiso   1.00
C1316  C     0.84989   0.04139   0.71149   0.00000  Uiso   1.00
C1317  C     0.87138   0.06140   0.67470   0.00000  Uiso   1.00
C1318  C     0.91951   0.08190   0.68281   0.00000  Uiso   1.00
C1319  C     0.94628   0.08243   0.72776   0.00000  Uiso   1.00
C1320  C     0.92474   0.06280   0.76480   0.00000  Uiso   1.00
H1321  H     0.81245   0.02576   0.70481   0.00000  Uiso   1.00
H1322  H     0.85066   0.06115   0.97326   0.00000  Uiso   1.00
H1323  H     0.93604   0.09737   0.98760   0.00000  Uiso   1.00
H1324  H     0.98376   0.09799   0.73383   0.00000  Uiso   1.00
H1325  H     0.94568   0.06363   0.79956   0.00000  Uiso   1.00
C1326  C     0.79203   0.29134   0.91045   0.00000  Uiso   1.00
C1327  C     0.74380   0.27034   0.90322   0.00000  Uiso   1.00
C1328  C     0.72325   0.25053   0.94065   0.00000  Uiso   1.00
C1329  C     0.75078   0.25136   0.98528   0.00000  Uiso   1.00
C1330  C     0.79860   0.27238   0.99271   0.00000  Uiso   1.00
C1331  C     0.81915   0.29249   0.95552   0.00000  Uiso   1.00
H1332  H     0.72234   0.26924   0.86868   0.00000  Uiso   1.00
H1333  H     0.68602   0.23453   0.93513   0.00000  Uiso   1.00
H1334  H     0.73519   0.23564   0.68078   0.00000  Uiso   1.00
H1335  H     0.81987   0.27286   0.69389   0.00000  Uiso   1.00
H1336  H     0.85644   0.30841   0.96165   0.00000  Uiso   1.00
C1337  C     0.74747   0.12701   0.94696   0.00000  Uiso   1.00
O1338  O     0.70483   0.13416   0.95785   0.00000  Uiso   1.00
O1339  O     0.75201   0.09688   0.91400   0.00000  Uiso   1.00
H1340  H     0.71740   0.08459   0.90016   0.00000  Uiso   1.00
C1341  C     0.91773   0.20816   0.71964   0.00000  Uiso   1.00
O1342  O     0.91203   0.23347   0.74920   0.00000  Uiso   1.00
O1343  O     0.96684   0.20281   0.70640   0.00000  Uiso   1.00
H1344  H     0.99437   0.22072   0.72493   0.00000  Uiso   1.00
C1345  C     0.16840   0.42088   0.83358   0.00000  Uiso   1.00
C1346  C     0.16519   0.57914   0.83311   0.00000  Uiso   1.00
C1347  C     0.06812   0.49959   0.82156   0.00000  Uiso   1.00
C1348  C     0.26520   0.50051   0.84509   0.00000  Uiso   1.00
C1349  C     0.01300   0.49804   0.81510   0.00000  Uiso   1.00
C1350  C     0.32030   0.50223   0.85147   0.00000  Uiso   1.00
C1351  C     0.18652   0.35480   0.79595   0.00000  Uiso   1.00
C1352  C     0.14777   0.64528   0.87092   0.00000  Uiso   1.00
C1353  C     0.18271   0.64550   0.79604   0.00000  Uiso   1.00
C1354  C     0.15171   0.35454   0.87088   0.00000  Uiso   1.00
C1355  C     0.16404   0.62382   0.83316   0.00000  Uiso   1.00
C1356  C     0.16999   0.37624   0.83361   0.00000  Uiso   1.00
C1357  C     0.12762   0.48115   0.68833   0.00000  Uiso   1.00
C1358  C     0.20589   0.51865   0.97840   0.00000  Uiso   1.00
C1359  C     0.12690   0.48105   0.97239   0.00000  Uiso   1.00
C1360  C     0.20624   0.51917   0.69428   0.00000  Uiso   1.00
Cu1361 Cu    0.16667   0.50001   0.88022   0.00000  Uiso   1.00
Cu1362 Cu    0.16667   0.49999   0.78645   0.00000  Uiso   1.00
H1363  H     0.32701   0.49295   0.78017   0.00000  Uiso   1.00
H1364  H     0.00624   0.50749   0.88634   0.00000  Uiso   1.00
H1365  H     0.19615   0.62929   0.76755   0.00000  Uiso   1.00
H1366  H     0.13885   0.37069   0.89967   0.00000  Uiso   1.00
H1367  H     0.09678   0.46574   0.70462   0.00000  Uiso   1.00
H1368  H     0.23670   0.53412   0.96215   0.00000  Uiso   1.00
N1369  N     0.16668   0.50001   0.95069   0.00000  Uiso   1.00
N1370  N     0.16665   0.49999   0.71597   0.00000  Uiso   1.00
O1371  O     0.16666   0.43989   0.87291   0.00000  Uiso   1.00
O1372  O     0.16667   0.56011   0.79375   0.00000  Uiso   1.00
O1373  O     0.16666   0.43988   0.79372   0.00000  Uiso   1.00
O1374  O     0.16667   0.56012   0.87294   0.00000  Uiso   1.00
O1375  O     0.09161   0.50000   0.86379   0.00000  Uiso   1.00
O1376  O     0.24172   0.50000   0.80288   0.00000  Uiso   1.00
O1377  O     0.09161   0.49999   0.78460   0.00000  Uiso   1.00
O1378  O     0.24172   0.50001   0.88207   0.00000  Uiso   1.00
C1379  C     0.20966   0.37551   0.75685   0.00000  Uiso   1.00
C1380  C     0.18323   0.37472   0.71149   0.00000  Uiso   1.00
C1381  C     0.20471   0.39473   0.67470   0.00000  Uiso   1.00
C1382  C     0.25284   0.41523   0.68281   0.00000  Uiso   1.00
C1383  C     0.27961   0.41576   0.72776   0.00000  Uiso   1.00
C1384  C     0.25807   0.39614   0.76480   0.00000  Uiso   1.00
H1385  H     0.14579   0.35909   0.70481   0.00000  Uiso   1.00
H1386  H     0.18399   0.39449   0.97326   0.00000  Uiso   1.00
H1387  H     0.26938   0.43071   0.98760   0.00000  Uiso   1.00
H1388  H     0.31709   0.43132   0.73383   0.00000  Uiso   1.00
H1389  H     0.27901   0.39696   0.79956   0.00000  Uiso   1.00
C1390  C     0.12536   0.62467   0.91045   0.00000  Uiso   1.00
C1391  C     0.07713   0.60368   0.90322   0.00000  Uiso   1.00
C1392  C     0.05659   0.58386   0.94065   0.00000  Uiso   1.00
C1393  C     0.08411   0.58469   0.98528   0.00000  Uiso   1.00
C1394  C     0.13193   0.60572   0.99271   0.00000  Uiso   1.00
C1395  C     0.15248   0.62582   0.95552   0.00000  Uiso   1.00
H1396  H     0.05567   0.60258   0.86868   0.00000  Uiso   1.00
H1397  H     0.01935   0.56786   0.93513   0.00000  Uiso   1.00
H1398  H     0.06852   0.56897   0.68078   0.00000  Uiso   1.00
H1399  H     0.15320   0.60619   0.69389   0.00000  Uiso   1.00
H1400  H     0.18978   0.64175   0.96165   0.00000  Uiso   1.00
C1401  C     0.08080   0.46034   0.94696   0.00000  Uiso   1.00
O1402  O     0.03817   0.46749   0.95785   0.00000  Uiso   1.00
O1403  O     0.08535   0.43021   0.91400   0.00000  Uiso   1.00
H1404  H     0.05074   0.41793   0.90016   0.00000  Uiso   1.00
C1405  C     0.25106   0.54150   0.71964   0.00000  Uiso   1.00
O1406  O     0.24536   0.56681   0.74920   0.00000  Uiso   1.00
O1407  O     0.30017   0.53615   0.70640   0.00000  Uiso   1.00
H1408  H     0.32771   0.55405   0.72493   0.00000  Uiso   1.00
C1409  C     0.50173   0.42088   0.83358   0.00000  Uiso   1.00
C1410  C     0.49853   0.57914   0.83311   0.00000  Uiso   1.00
C1411  C     0.40145   0.49959   0.82156   0.00000  Uiso   1.00
C1412  C     0.59854   0.50051   0.84509   0.00000  Uiso   1.00
C1413  C     0.34633   0.49804   0.81510   0.00000  Uiso   1.00
C1414  C     0.65364   0.50223   0.85147   0.00000  Uiso   1.00
C1415  C     0.51985   0.35480   0.79595   0.00000  Uiso   1.00
C1416  C     0.48110   0.64528   0.87092   0.00000  Uiso   1.00
C1417  C     0.51604   0.64550   0.79604   0.00000  Uiso   1.00
C1418  C     0.48505   0.35454   0.87088   0.00000  Uiso   1.00
C1419  C     0.49737   0.62382   0.83316   0.00000  Uiso   1.00
C1420  C     0.50332   0.37624   0.83361   0.00000  Uiso   1.00
C1421  C     0.46095   0.48115   0.68833   0.00000  Uiso   1.00
C1422  C     0.53922   0.51865   0.97840   0.00000  Uiso   1.00
C1423  C     0.46023   0.48105   0.97239   0.00000  Uiso   1.00
C1424  C     0.53958   0.51917   0.69428   0.00000  Uiso   1.00
Cu1425 Cu    0.50000   0.50001   0.88022   0.00000  Uiso   1.00
Cu1426 Cu    0.50000   0.49999   0.78645   0.00000  Uiso   1.00
H1427  H     0.66034   0.49295   0.78017   0.00000  Uiso   1.00
H1428  H     0.33958   0.50749   0.88634   0.00000  Uiso   1.00
H1429  H     0.52949   0.62929   0.76755   0.00000  Uiso   1.00
H1430  H     0.47218   0.37069   0.89967   0.00000  Uiso   1.00
H1431  H     0.43012   0.46574   0.70462   0.00000  Uiso   1.00
H1432  H     0.57003   0.53412   0.96215   0.00000  Uiso   1.00
N1433  N     0.50001   0.50001   0.95069   0.00000  Uiso   1.00
N1434  N     0.49999   0.49999   0.71597   0.00000  Uiso   1.00
O1435  O     0.50000   0.43989   0.87291   0.00000  Uiso   1.00
O1436  O     0.50000   0.56011   0.79375   0.00000  Uiso   1.00
O1437  O     0.50000   0.43988   0.79372   0.00000  Uiso   1.00
O1438  O     0.50000   0.56012   0.87294   0.00000  Uiso   1.00
O1439  O     0.42495   0.50000   0.86379   0.00000  Uiso   1.00
O1440  O     0.57505   0.50000   0.80288   0.00000  Uiso   1.00
O1441  O     0.42494   0.49999   0.78460   0.00000  Uiso   1.00
O1442  O     0.57506   0.50001   0.88207   0.00000  Uiso   1.00
C1443  C     0.54299   0.37551   0.75685   0.00000  Uiso   1.00
C1444  C     0.51656   0.37472   0.71149   0.00000  Uiso   1.00
C1445  C     0.53805   0.39473   0.67470   0.00000  Uiso   1.00
C1446  C     0.58617   0.41523   0.68281   0.00000  Uiso   1.00
C1447  C     0.61294   0.41576   0.72776   0.00000  Uiso   1.00
C1448  C     0.59141   0.39614   0.76480   0.00000  Uiso   1.00
H1449  H     0.47912   0.35909   0.70481   0.00000  Uiso   1.00
H1450  H     0.51732   0.39449   0.97326   0.00000  Uiso   1.00
H1451  H     0.60271   0.43071   0.98760   0.00000  Uiso   1.00
H1452  H     0.65042   0.43132   0.73383   0.00000  Uiso   1.00
H1453  H     0.61235   0.39696   0.79956   0.00000  Uiso   1.00
C1454  C     0.45869   0.62467   0.91045   0.00000  Uiso   1.00
C1455  C     0.41046   0.60368   0.90322   0.00000  Uiso   1.00
C1456  C     0.38992   0.58386   0.94065   0.00000  Uiso   1.00
C1457  C     0.41745   0.58469   0.98528   0.00000  Uiso   1.00
C1458  C     0.46526   0.60572   0.99271   0.00000  Uiso   1.00
C1459  C     0.48581   0.62582   0.95552   0.00000  Uiso   1.00
H1460  H     0.38901   0.60258   0.86868   0.00000  Uiso   1.00
H1461  H     0.35269   0.56786   0.93513   0.00000  Uiso   1.00
H1462  H     0.40185   0.56897   0.68078   0.00000  Uiso   1.00
H1463  H     0.48653   0.60619   0.69389   0.00000  Uiso   1.00
H1464  H     0.52311   0.64175   0.96165   0.00000  Uiso   1.00
C1465  C     0.41413   0.46034   0.94696   0.00000  Uiso   1.00
O1466  O     0.37150   0.46749   0.95785   0.00000  Uiso   1.00
O1467  O     0.41868   0.43021   0.91400   0.00000  Uiso   1.00
H1468  H     0.38407   0.41793   0.90016   0.00000  Uiso   1.00
C1469  C     0.58439   0.54150   0.71964   0.00000  Uiso   1.00
O1470  O     0.57870   0.56681   0.74920   0.00000  Uiso   1.00
O1471  O     0.63351   0.53615   0.70640   0.00000  Uiso   1.00
H1472  H     0.66104   0.55405   0.72493   0.00000  Uiso   1.00
C1473  C     0.83507   0.42088   0.83358   0.00000  Uiso   1.00
C1474  C     0.83186   0.57914   0.83311   0.00000  Uiso   1.00
C1475  C     0.73479   0.49959   0.82156   0.00000  Uiso   1.00
C1476  C     0.93187   0.50051   0.84509   0.00000  Uiso   1.00
C1477  C     0.67966   0.49804   0.81510   0.00000  Uiso   1.00
C1478  C     0.98697   0.50223   0.85147   0.00000  Uiso   1.00
C1479  C     0.85319   0.35480   0.79595   0.00000  Uiso   1.00
C1480  C     0.81444   0.64528   0.87092   0.00000  Uiso   1.00
C1481  C     0.84938   0.64550   0.79604   0.00000  Uiso   1.00
C1482  C     0.81838   0.35454   0.87088   0.00000  Uiso   1.00
C1483  C     0.83071   0.62382   0.83316   0.00000  Uiso   1.00
C1484  C     0.83665   0.37624   0.83361   0.00000  Uiso   1.00
C1485  C     0.79429   0.48115   0.68833   0.00000  Uiso   1.00
C1486  C     0.87255   0.51865   0.97840   0.00000  Uiso   1.00
C1487  C     0.79357   0.48105   0.97239   0.00000  Uiso   1.00
C1488  C     0.87291   0.51917   0.69428   0.00000  Uiso   1.00
Cu1489 Cu    0.83333   0.50001   0.88022   0.00000  Uiso   1.00
Cu1490 Cu    0.83333   0.49999   0.78645   0.00000  Uiso   1.00
H1491  H     0.99367   0.49295   0.78017   0.00000  Uiso   1.00
H1492  H     0.67291   0.50749   0.88634   0.00000  Uiso   1.00
H1493  H     0.86282   0.62929   0.76755   0.00000  Uiso   1.00
H1494  H     0.80551   0.37069   0.89967   0.00000  Uiso   1.00
H1495  H     0.76345   0.46574   0.70462   0.00000  Uiso   1.00
H1496  H     0.90337   0.53412   0.96215   0.00000  Uiso   1.00
N1497  N     0.83335   0.50001   0.95069   0.00000  Uiso   1.00
N1498  N     0.83332   0.49999   0.71597   0.00000  Uiso   1.00
O1499  O     0.83333   0.43989   0.87291   0.00000  Uiso   1.00
O1500  O     0.83334   0.56011   0.79375   0.00000  Uiso   1.00
O1501  O     0.83333   0.43988   0.79372   0.00000  Uiso   1.00
O1502  O     0.83334   0.56012   0.87294   0.00000  Uiso   1.00
O1503  O     0.75828   0.50000   0.86379   0.00000  Uiso   1.00
O1504  O     0.90839   0.50000   0.80288   0.00000  Uiso   1.00
O1505  O     0.75828   0.49999   0.78460   0.00000  Uiso   1.00
O1506  O     0.90839   0.50001   0.88207   0.00000  Uiso   1.00
C1507  C     0.87632   0.37551   0.75685   0.00000  Uiso   1.00
C1508  C     0.84989   0.37472   0.71149   0.00000  Uiso   1.00
C1509  C     0.87138   0.39473   0.67470   0.00000  Uiso   1.00
C1510  C     0.91951   0.41523   0.68281   0.00000  Uiso   1.00
C1511  C     0.94628   0.41576   0.72776   0.00000  Uiso   1.00
C1512  C     0.92474   0.39614   0.76480   0.00000  Uiso   1.00
H1513  H     0.81245   0.35909   0.70481   0.00000  Uiso   1.00
H1514  H     0.85066   0.39449   0.97326   0.00000  Uiso   1.00
H1515  H     0.93604   0.43071   0.98760   0.00000  Uiso   1.00
H1516  H     0.98376   0.43132   0.73383   0.00000  Uiso   1.00
H1517  H     0.94568   0.39696   0.79956   0.00000  Uiso   1.00
C1518  C     0.79203   0.62467   0.91045   0.00000  Uiso   1.00
C1519  C     0.74380   0.60368   0.90322   0.00000  Uiso   1.00
C1520  C     0.72325   0.58386   0.94065   0.00000  Uiso   1.00
C1521  C     0.75078   0.58469   0.98528   0.00000  Uiso   1.00
C1522  C     0.79860   0.60572   0.99271   0.00000  Uiso   1.00
C1523  C     0.81915   0.62582   0.95552   0.00000  Uiso   1.00
H1524  H     0.72234   0.60258   0.86868   0.00000  Uiso   1.00
H1525  H     0.68602   0.56786   0.93513   0.00000  Uiso   1.00
H1526  H     0.73519   0.56897   0.68078   0.00000  Uiso   1.00
H1527  H     0.81987   0.60619   0.69389   0.00000  Uiso   1.00
H1528  H     0.85644   0.64175   0.96165   0.00000  Uiso   1.00
C1529  C     0.74747   0.46034   0.94696   0.00000  Uiso   1.00
O1530  O     0.70483   0.46749   0.95785   0.00000  Uiso   1.00
O1531  O     0.75201   0.43021   0.91400   0.00000  Uiso   1.00
H1532  H     0.71740   0.41793   0.90016   0.00000  Uiso   1.00
C1533  C     0.91773   0.54150   0.71964   0.00000  Uiso   1.00
O1534  O     0.91203   0.56681   0.74920   0.00000  Uiso   1.00
O1535  O     0.96684   0.53615   0.70640   0.00000  Uiso   1.00
H1536  H     0.99437   0.55405   0.72493   0.00000  Uiso   1.00
C1537  C     0.16840   0.75422   0.83358   0.00000  Uiso   1.00
C1538  C     0.16519   0.91247   0.83311   0.00000  Uiso   1.00
C1539  C     0.06812   0.83292   0.82156   0.00000  Uiso   1.00
C1540  C     0.26520   0.83384   0.84509   0.00000  Uiso   1.00
C1541  C     0.01300   0.83138   0.81510   0.00000  Uiso   1.00
C1542  C     0.32030   0.83556   0.85147   0.00000  Uiso   1.00
C1543  C     0.18652   0.68813   0.79595   0.00000  Uiso   1.00
C1544  C     0.14777   0.97862   0.87092   0.00000  Uiso   1.00
C1545  C     0.18271   0.97884   0.79604   0.00000  Uiso   1.00
C1546  C     0.15171   0.68787   0.87088   0.00000  Uiso   1.00
C1547  C     0.16404   0.95715   0.83316   0.00000  Uiso   1.00
C1548  C     0.16999   0.70957   0.83361   0.00000  Uiso   1.00
C1549  C     0.12762   0.81448   0.68833   0.00000  Uiso   1.00
C1550  C     0.20589   0.85199   0.97840   0.00000  Uiso   1.00
C1551  C     0.12690   0.81438   0.97239   0.00000  Uiso   1.00
C1552  C     0.20624   0.85250   0.69428   0.00000  Uiso   1.00
Cu1553 Cu    0.16667   0.83334   0.88022   0.00000  Uiso   1.00
Cu1554 Cu    0.16667   0.83333   0.78645   0.00000  Uiso   1.00
H1555  H     0.32701   0.82628   0.78017   0.00000  Uiso   1.00
H1556  H     0.00624   0.84083   0.88634   0.00000  Uiso   1.00
H1557  H     0.19615   0.96262   0.76755   0.00000  Uiso   1.00
H1558  H     0.13885   0.70402   0.89967   0.00000  Uiso   1.00
H1559  H     0.09678   0.79907   0.70462   0.00000  Uiso   1.00
H1560  H     0.23670   0.86745   0.96215   0.00000  Uiso   1.00
N1561  N     0.16668   0.83334   0.95069   0.00000  Uiso   1.00
N1562  N     0.16665   0.83332   0.71597   0.00000  Uiso   1.00
O1563  O     0.16666   0.77322   0.87291   0.00000  Uiso   1.00
O1564  O     0.16667   0.89345   0.79375   0.00000  Uiso   1.00
O1565  O     0.16666   0.77321   0.79372   0.00000  Uiso   1.00
O1566  O     0.16667   0.89346   0.87294   0.00000  Uiso   1.00
O1567  O     0.09161   0.83334   0.86379   0.00000  Uiso   1.00
O1568  O     0.24172   0.83333   0.80288   0.00000  Uiso   1.00
O1569  O     0.09161   0.83333   0.78460   0.00000  Uiso   1.00
O1570  O     0.24172   0.83334   0.88207   0.00000  Uiso   1.00
C1571  C     0.20966   0.70885   0.75685   0.00000  Uiso   1.00
C1572  C     0.18323   0.70805   0.71149   0.00000  Uiso   1.00
C1573  C     0.20471   0.72807   0.67470   0.00000  Uiso   1.00
C1574  C     0.25284   0.74857   0.68281   0.00000  Uiso   1.00
C1575  C     0.27961   0.74910   0.72776   0.00000  Uiso   1.00
C1576  C     0.25807   0.72947   0.76480   0.00000  Uiso   1.00
H1577  H     0.14579   0.69243   0.70481   0.00000  Uiso   1.00
H1578  H     0.18399   0.72782   0.97326   0.00000  Uiso   1.00
H1579  H     0.26938   0.76404   0.98760   0.00000  Uiso   1.00
H1580  H     0.31709   0.76465   0.73383   0.00000  Uiso   1.00
H1581  H     0.27901   0.73030   0.79956   0.00000  Uiso   1.00
C1582  C     0.12536   0.95800   0.91045   0.00000  Uiso   1.00
C1583  C     0.07713   0.93701   0.90322   0.00000  Uiso   1.00
C1584  C     0.05659   0.91720   0.94065   0.00000  Uiso   1.00
C1585  C     0.08411   0.91803   0.98528   0.00000  Uiso   1.00
C1586  C     0.13193   0.93905   0.99271   0.00000  Uiso   1.00
C1587  C     0.15248   0.95915   0.95552   0.00000  Uiso   1.00
H1588  H     0.05567   0.93591   0.86868   0.00000  Uiso   1.00
H1589  H     0.01935   0.90120   0.93513   0.00000  Uiso   1.00
H1590  H     0.06852   0.90231   0.68078   0.00000  Uiso   1.00
H1591  H     0.15320   0.93953   0.69389   0.00000  Uiso   1.00
H1592  H     0.18978   0.97508   0.96165   0.00000  Uiso   1.00
C1593  C     0.08080   0.79367   0.94696   0.00000  Uiso   1.00
O1594  O     0.03817   0.80083   0.95785   0.00000  Uiso   1.00
O1595  O     0.08535   0.76355   0.91400   0.00000  Uiso   1.00
H1596  H     0.05074   0.75126   0.90016   0.00000  Uiso   1.00
C1597  C     0.25106   0.87483   0.71964   0.00000  Uiso   1.00
O1598  O     0.24536   0.90014   0.74920   0.00000  Uiso   1.00
O1599  O     0.30017   0.86948   0.70640   0.00000  Uiso   1.00
H1600  H     0.32771   0.88738   0.72493   0.00000  Uiso   1.00
C1601  C     0.50173   0.75422   0.83358   0.00000  Uiso   1.00
C1602  C     0.49853   0.91247   0.83311   0.00000  Uiso   1.00
C1603  C     0.40145   0.83292   0.82156   0.00000  Uiso   1.00
C1604  C     0.59854   0.83384   0.84509   0.00000  Uiso   1.00
C1605  C     0.34633   0.83138   0.81510   0.00000  Uiso   1.00
C1606  C     0.65364   0.83556   0.85147   0.00000  Uiso   1.00
C1607  C     0.51985   0.68813   0.79595   0.00000  Uiso   1.00
C1608  C     0.48110   0.97862   0.87092   0.00000  Uiso   1.00
C1609  C     0.51604   0.97884   0.79604   0.00000  Uiso   1.00
C1610  C     0.48505   0.68787   0.87088   0.00000  Uiso   1.00
C1611  C     0.49737   0.95715   0.83316   0.00000  Uiso   1.00
C1612  C     0.50332   0.70957   0.83361   0.00000  Uiso   1.00
C1613  C     0.46095   0.81448   0.68833   0.00000  Uiso   1.00
C1614  C     0.53922   0.85199   0.97840   0.00000  Uiso   1.00
C1615  C     0.46023   0.81438   0.97239   0.00000  Uiso   1.00
C1616  C     0.53958   0.85250   0.69428   0.00000  Uiso   1.00
Cu1617 Cu    0.50000   0.83334   0.88022   0.00000  Uiso   1.00
Cu1618 Cu    0.50000   0.83333   0.78645   0.00000  Uiso   1.00
H1619  H     0.66034   0.82628   0.78017   0.00000  Uiso   1.00
H1620  H     0.33958   0.84083   0.88634   0.00000  Uiso   1.00
H1621  H     0.52949   0.96262   0.76755   0.00000  Uiso   1.00
H1622  H     0.47218   0.70402   0.89967   0.00000  Uiso   1.00
H1623  H     0.43012   0.79907   0.70462   0.00000  Uiso   1.00
H1624  H     0.57003   0.86745   0.96215   0.00000  Uiso   1.00
N1625  N     0.50001   0.83334   0.95069   0.00000  Uiso   1.00
N1626  N     0.49999   0.83332   0.71597   0.00000  Uiso   1.00
O1627  O     0.50000   0.77322   0.87291   0.00000  Uiso   1.00
O1628  O     0.50000   0.89345   0.79375   0.00000  Uiso   1.00
O1629  O     0.50000   0.77321   0.79372   0.00000  Uiso   1.00
O1630  O     0.50000   0.89346   0.87294   0.00000  Uiso   1.00
O1631  O     0.42495   0.83334   0.86379   0.00000  Uiso   1.00
O1632  O     0.57505   0.83333   0.80288   0.00000  Uiso   1.00
O1633  O     0.42494   0.83333   0.78460   0.00000  Uiso   1.00
O1634  O     0.57506   0.83334   0.88207   0.00000  Uiso   1.00
C1635  C     0.54299   0.70885   0.75685   0.00000  Uiso   1.00
C1636  C     0.51656   0.70805   0.71149   0.00000  Uiso   1.00
C1637  C     0.53805   0.72807   0.67470   0.00000  Uiso   1.00
C1638  C     0.58617   0.74857   0.68281   0.00000  Uiso   1.00
C1639  C     0.61294   0.74910   0.72776   0.00000  Uiso   1.00
C1640  C     0.59141   0.72947   0.76480   0.00000  Uiso   1.00
H1641  H     0.47912   0.69243   0.70481   0.00000  Uiso   1.00
H1642  H     0.51732   0.72782   0.97326   0.00000  Uiso   1.00
H1643  H     0.60271   0.76404   0.98760   0.00000  Uiso   1.00
H1644  H     0.65042   0.76465   0.73383   0.00000  Uiso   1.00
H1645  H     0.61235   0.73030   0.79956   0.00000  Uiso   1.00
C1646  C     0.45869   0.95800   0.91045   0.00000  Uiso   1.00
C1647  C     0.41046   0.93701   0.90322   0.00000  Uiso   1.00
C1648  C     0.38992   0.91720   0.94065   0.00000  Uiso   1.00
C1649  C     0.41745   0.91803   0.98528   0.00000  Uiso   1.00
C1650  C     0.46526   0.93905   0.99271   0.00000  Uiso   1.00
C1651  C     0.48581   0.95915   0.95552   0.00000  Uiso   1.00
H1652  H     0.38901   0.93591   0.86868   0.00000  Uiso   1.00
H1653  H     0.35269   0.90120   0.93513   0.00000  Uiso   1.00
H1654  H     0.40185   0.90231   0.68078   0.00000  Uiso   1.00
H1655  H     0.48653   0.93953   0.69389   0.00000  Uiso   1.00
H1656  H     0.52311   0.97508   0.96165   0.00000  Uiso   1.00
C1657  C     0.41413   0.79367   0.94696   0.00000  Uiso   1.00
O1658  O     0.37150   0.80083   0.95785   0.00000  Uiso   1.00
O1659  O     0.41868   0.76355   0.91400   0.00000  Uiso   1.00
H1660  H     0.38407   0.75126   0.90016   0.00000  Uiso   1.00
C1661  C     0.58439   0.87483   0.71964   0.00000  Uiso   1.00
O1662  O     0.57870   0.90014   0.74920   0.00000  Uiso   1.00
O1663  O     0.63351   0.86948   0.70640   0.00000  Uiso   1.00
H1664  H     0.66104   0.88738   0.72493   0.00000  Uiso   1.00
C1665  C     0.83507   0.75422   0.83358   0.00000  Uiso   1.00
C1666  C     0.83186   0.91247   0.83311   0.00000  Uiso   1.00
C1667  C     0.73479   0.83292   0.82156   0.00000  Uiso   1.00
C1668  C     0.93187   0.83384   0.84509   0.00000  Uiso   1.00
C1669  C     0.67966   0.83138   0.81510   0.00000  Uiso   1.00
C1670  C     0.98697   0.83556   0.85147   0.00000  Uiso   1.00
C1671  C     0.85319   0.68813   0.79595   0.00000  Uiso   1.00
C1672  C     0.81444   0.97862   0.87092   0.00000  Uiso   1.00
C1673  C     0.84938   0.97884   0.79604   0.00000  Uiso   1.00
C1674  C     0.81838   0.68787   0.87088   0.00000  Uiso   1.00
C1675  C     0.83071   0.95715   0.83316   0.00000  Uiso   1.00
C1676  C     0.83665   0.70957   0.83361   0.00000  Uiso   1.00
C1677  C     0.79429   0.81448   0.68833   0.00000  Uiso   1.00
C1678  C     0.87255   0.85199   0.97840   0.00000  Uiso   1.00
C1679  C     0.79357   0.81438   0.97239   0.00000  Uiso   1.00
C1680  C     0.87291   0.85250   0.69428   0.00000  Uiso   1.00
Cu1681 Cu    0.83333   0.83334   0.88022   0.00000  Uiso   1.00
Cu1682 Cu    0.83333   0.83333   0.78645   0.00000  Uiso   1.00
H1683  H     0.99367   0.82628   0.78017   0.00000  Uiso   1.00
H1684  H     0.67291   0.84083   0.88634   0.00000  Uiso   1.00
H1685  H     0.86282   0.96262   0.76755   0.00000  Uiso   1.00
H1686  H     0.80551   0.70402   0.89967   0.00000  Uiso   1.00
H1687  H     0.76345   0.79907   0.70462   0.00000  Uiso   1.00
H1688  H     0.90337   0.86745   0.96215   0.00000  Uiso   1.00
N1689  N     0.83335   0.83334   0.95069   0.00000  Uiso   1.00
N1690  N     0.83332   0.83332   0.71597   0.00000  Uiso   1.00
O1691  O     0.83333   0.77322   0.87291   0.00000  Uiso   1.00
O1692  O     0.83334   0.89345   0.79375   0.00000  Uiso   1.00
O1693  O     0.83333   0.77321   0.79372   0.00000  Uiso   1.00
O1694  O     0.83334   0.89346   0.87294   0.00000  Uiso   1.00
O1695  O     0.75828   0.83334   0.86379   0.00000  Uiso   1.00
O1696  O     0.90839   0.83333   0.80288   0.00000  Uiso   1.00
O1697  O     0.75828   0.83333   0.78460   0.00000  Uiso   1.00
O1698  O     0.90839   0.83334   0.88207   0.00000  Uiso   1.00
C1699  C     0.87632   0.70885   0.75685   0.00000  Uiso   1.00
C1700  C     0.84989   0.70805   0.71149   0.00000  Uiso   1.00
C1701  C     0.87138   0.72807   0.67470   0.00000  Uiso   1.00
C1702  C     0.91951   0.74857   0.68281   0.00000  Uiso   1.00
C1703  C     0.94628   0.74910   0.72776   0.00000  Uiso   1.00
C1704  C     0.92474   0.72947   0.76480   0.00000  Uiso   1.00
H1705  H     0.81245   0.69243   0.70481   0.00000  Uiso   1.00
H1706  H     0.85066   0.72782   0.97326   0.00000  Uiso   1.00
H1707  H     0.93604   0.76404   0.98760   0.00000  Uiso   1.00
H1708  H     0.98376   0.76465   0.73383   0.00000  Uiso   1.00
H1709  H     0.94568   0.73030   0.79956   0.00000  Uiso   1.00
C1710  C     0.79203   0.95800   0.91045   0.00000  Uiso   1.00
C1711  C     0.74380   0.93701   0.90322   0.00000  Uiso   1.00
C1712  C     0.72325   0.91720   0.94065   0.00000  Uiso   1.00
C1713  C     0.75078   0.91803   0.98528   0.00000  Uiso   1.00
C1714  C     0.79860   0.93905   0.99271   0.00000  Uiso   1.00
C1715  C     0.81915   0.95915   0.95552   0.00000  Uiso   1.00
H1716  H     0.72234   0.93591   0.86868   0.00000  Uiso   1.00
H1717  H     0.68602   0.90120   0.93513   0.00000  Uiso   1.00
H1718  H     0.73519   0.90231   0.68078   0.00000  Uiso   1.00
H1719  H     0.81987   0.93953   0.69389   0.00000  Uiso   1.00
H1720  H     0.85644   0.97508   0.96165   0.00000  Uiso   1.00
C1721  C     0.74747   0.79367   0.94696   0.00000  Uiso   1.00
O1722  O     0.70483   0.80083   0.95785   0.00000  Uiso   1.00
O1723  O     0.75201   0.76355   0.91400   0.00000  Uiso   1.00
H1724  H     0.71740   0.75126   0.90016   0.00000  Uiso   1.00
C1725  C     0.91773   0.87483   0.71964   0.00000  Uiso   1.00
O1726  O     0.91203   0.90014   0.74920   0.00000  Uiso   1.00
O1727  O     0.96684   0.86948   0.70640   0.00000  Uiso   1.00
H1728  H     0.99437   0.88738   0.72493   0.00000  Uiso   1.00
loop_
_geom_bond_atom_site_label_1
_geom_bond_atom_site_label_2
_geom_bond_distance
_geom_bond_site_symmetry_2
_ccdc_geom_bond_type
C1     O29     1.294   .     A
C1     C12     1.455   .     S
C1     O27     1.304   .     A
C2     O28     1.304   .     A
C2     O30     1.294   .     A
C2     C11     1.455   .     S
C3     O31     1.297   .     A
C3     O33     1.289   .     A
C3     C5      1.430   .     S
C4     O32     1.296   .     A
C4     C6      1.429   .     S
C4     O34     1.290   .     A
C5     C134    1.325   1_455 S
C5     H147    1.083   1_455 S
C6     C69     1.325   .     S
C6     H84     1.082   .     S
C7     C12     1.415   .     A
C7     C35     1.482   .     S
C7     C393    1.387   1_545 S
C8     C11     1.415   .     A
C8     C46     1.482   .     S
C8     C202    1.386   .     S
C9     H21     1.081   .     S
C9     C11     1.398   .     A
C9     C199    1.387   .     S
C10    H22     1.080   .     S
C10    C12     1.398   .     A
C10    C392    1.386   1_545 S
C13    N26     1.351   .     A
C13    H23     1.083   .     S
C13    C1167   1.417   1_554 S
C14    N25     1.352   .     A
C14    H24     1.083   .     S
C14    C592    1.417   .     S
C15    C57     1.478   .     S
C15    N25     1.395   .     A
C15    C589    1.417   .     S
C16    N26     1.394   .     A
C16    C61     1.477   .     S
C16    C1166   1.417   1_554 S
Cu17   N25     2.030   .     S
Cu17   O30     1.965   .     S
Cu17   Cu18    2.701   .     S
Cu17   O31     1.963   .     S
Cu17   O27     1.970   .     S
Cu17   O34     1.956   .     S
Cu18   N26     2.030   .     S
Cu18   O29     1.965   .     S
Cu18   O33     1.956   .     S
Cu18   O32     1.963   .     S
Cu18   O28     1.970   .     S
H19    C69     1.083   .     S
H20    C134    1.082   1_455 S
C35    C40     1.405   .     A
C35    C36     1.404   .     A
C36    H41     1.083   .     S
C36    C37     1.398   .     A
C37    C38     1.397   .     A
C37    H1194   1.081   1_554 S
C38    C39     1.398   .     A
C38    H1195   1.083   1_554 S
C39    H44     1.082   .     S
C39    C40     1.399   .     A
C40    H45     1.083   .     S
H42    C613    1.081   .     S
H43    C614    1.083   .     S
C46    C47     1.405   .     A
C46    C51     1.404   .     A
C47    H52     1.083   .     S
C47    C48     1.399   .     A
C48    H53     1.082   .     S
C48    C49     1.397   .     A
C49    C50     1.397   .     A
C49    H630    1.081   .     S
C50    C51     1.398   .     A
C50    H631    1.081   .     S
C51    H56     1.083   .     S
H54    C1201   1.081   1_554 S
H55    C1202   1.081   1_554 S
C57    O58     1.224   .     D
C57    O59     1.392   .     S
O59    H60     1.014   .     S
C61    O62     1.218   .     D
C61    O63     1.399   .     S
O63    H64     1.014   .     S
C65    O93     1.294   .     A
C65    C76     1.455   .     S
C65    O91     1.304   .     A
C66    O92     1.304   .     A
C66    O94     1.294   .     A
C66    C75     1.455   .     S
C67    O95     1.297   .     A
C67    O97     1.289   .     A
C67    C69     1.430   .     S
C68    O96     1.296   .     A
C68    C70     1.429   .     S
C68    O98     1.290   .     A
C70    C133    1.325   .     S
C70    H148    1.082   .     S
C71    C76     1.415   .     A
C71    C99     1.482   .     S
C71    C457    1.387   1_545 S
C72    C75     1.415   .     A
C72    C110    1.482   .     S
C72    C266    1.386   .     S
C73    H85     1.081   .     S
C73    C75     1.398   .     A
C73    C263    1.387   .     S
C74    H86     1.080   .     S
C74    C76     1.398   .     A
C74    C456    1.386   1_545 S
C77    N90     1.351   .     A
C77    H87     1.083   .     S
C77    C1231   1.417   1_554 S
C78    N89     1.352   .     A
C78    H88     1.083   .     S
C78    C656    1.417   .     S
C79    C121    1.478   .     S
C79    N89     1.395   .     A
C79    C653    1.417   .     S
C80    N90     1.394   .     A
C80    C125    1.477   .     S
C80    C1230   1.417   1_554 S
Cu81   N89     2.030   .     S
Cu81   O94     1.965   .     S
Cu81   Cu82    2.701   .     S
Cu81   O95     1.963   .     S
Cu81   O91     1.970   .     S
Cu81   O98     1.956   .     S
Cu82   N90     2.030   .     S
Cu82   O93     1.965   .     S
Cu82   O97     1.956   .     S
Cu82   O96     1.963   .     S
Cu82   O92     1.970   .     S
H83    C133    1.083   .     S
C99    C104    1.405   .     A
C99    C100    1.404   .     A
C100   H105    1.083   .     S
C100   C101    1.398   .     A
C101   C102    1.397   .     A
C101   H1258   1.081   1_554 S
C102   C103    1.398   .     A
C102   H1259   1.083   1_554 S
C103   H108    1.082   .     S
C103   C104    1.399   .     A
C104   H109    1.083   .     S
H106   C677    1.081   .     S
H107   C678    1.083   .     S
C110   C111    1.405   .     A
C110   C115    1.404   .     A
C111   H116    1.083   .     S
C111   C112    1.399   .     A
C112   H117    1.082   .     S
C112   C113    1.397   .     A
C113   C114    1.397   .     A
C113   H694    1.081   .     S
C114   C115    1.398   .     A
C114   H695    1.081   .     S
C115   H120    1.083   .     S
H118   C1265   1.081   1_554 S
H119   C1266   1.081   1_554 S
C121   O122    1.224   .     D
C121   O123    1.392   .     S
O123   H124    1.014   .     S
C125   O126    1.218   .     D
C125   O127    1.399   .     S
O127   H128    1.014   .     S
C129   O157    1.294   .     A
C129   C140    1.455   .     S
C129   O155    1.304   .     A
C130   O156    1.304   .     A
C130   O158    1.294   .     A
C130   C139    1.455   .     S
C131   O159    1.297   .     A
C131   O161    1.289   .     A
C131   C133    1.430   .     S
C132   O160    1.296   .     A
C132   C134    1.429   .     S
C132   O162    1.290   .     A
C134   C5      1.325   1_655 S
C134   H20     1.082   1_655 S
C135   C140    1.415   .     A
C135   C163    1.482   .     S
C135   C521    1.387   1_545 S
C136   C139    1.415   .     A
C136   C174    1.482   .     S
C136   C330    1.386   .     S
C137   H149    1.081   .     S
C137   C139    1.398   .     A
C137   C327    1.387   .     S
C138   H150    1.080   .     S
C138   C140    1.398   .     A
C138   C520    1.386   1_545 S
C141   N154    1.351   .     A
C141   H151    1.083   .     S
C141   C1295   1.417   1_554 S
C142   N153    1.352   .     A
C142   H152    1.083   .     S
C142   C720    1.417   .     S
C143   C185    1.478   .     S
C143   N153    1.395   .     A
C143   C717    1.417   .     S
C144   N154    1.394   .     A
C144   C189    1.477   .     S
C144   C1294   1.417   1_554 S
Cu145  N153    2.030   .     S
Cu145  O158    1.965   .     S
Cu145  Cu146   2.701   .     S
Cu145  O159    1.963   .     S
Cu145  O155    1.970   .     S
Cu145  O162    1.956   .     S
Cu146  N154    2.030   .     S
Cu146  O157    1.965   .     S
Cu146  O161    1.956   .     S
Cu146  O160    1.963   .     S
Cu146  O156    1.970   .     S
H147   C5      1.083   1_655 S
C163   C168    1.405   .     A
C163   C164    1.404   .     A
C164   H169    1.083   .     S
C164   C165    1.398   .     A
C165   C166    1.397   .     A
C165   H1322   1.081   1_554 S
C166   C167    1.398   .     A
C166   H1323   1.083   1_554 S
C167   H172    1.082   .     S
C167   C168    1.399   .     A
C168   H173    1.083   .     S
H170   C741    1.081   .     S
H171   C742    1.083   .     S
C174   C175    1.405   .     A
C174   C179    1.404   .     A
C175   H180    1.083   .     S
C175   C176    1.399   .     A
C176   H181    1.082   .     S
C176   C177    1.397   .     A
C177   C178    1.397   .     A
C177   H758    1.081   .     S
C178   C179    1.398   .     A
C178   H759    1.081   .     S
C179   H184    1.083   .     S
H182   C1329   1.081   1_554 S
H183   C1330   1.081   1_554 S
C185   O186    1.224   .     D
C185   O187    1.392   .     S
O187   H188    1.014   .     S
C189   O190    1.218   .     D
C189   O191    1.399   .     S
O191   H192    1.014   .     S
C193   O221    1.294   .     A
C193   C204    1.455   .     S
C193   O219    1.304   .     A
C194   O220    1.304   .     A
C194   O222    1.294   .     A
C194   C203    1.455   .     S
C195   O223    1.297   .     A
C195   O225    1.289   .     A
C195   C197    1.430   .     S
C196   O224    1.296   .     A
C196   C198    1.429   .     S
C196   O226    1.290   .     A
C197   C326    1.325   1_455 S
C197   H339    1.083   1_455 S
C198   C261    1.325   .     S
C198   H276    1.082   .     S
C199   C204    1.415   .     A
C199   C227    1.482   .     S
C200   C203    1.415   .     A
C200   C238    1.482   .     S
C200   C394    1.386   .     S
C201   H213    1.081   .     S
C201   C203    1.398   .     A
C201   C391    1.387   .     S
C202   H214    1.080   .     S
C202   C204    1.398   .     A
C205   N218    1.351   .     A
C205   H215    1.083   .     S
C205   C1359   1.417   1_554 S
C206   N217    1.352   .     A
C206   H216    1.083   .     S
C206   C784    1.417   .     S
C207   C249    1.478   .     S
C207   N217    1.395   .     A
C207   C781    1.417   .     S
C208   N218    1.394   .     A
C208   C253    1.477   .     S
C208   C1358   1.417   1_554 S
Cu209  N217    2.030   .     S
Cu209  O222    1.965   .     S
Cu209  Cu210   2.701   .     S
Cu209  O223    1.963   .     S
Cu209  O219    1.970   .     S
Cu209  O226    1.956   .     S
Cu210  N218    2.030   .     S
Cu210  O221    1.965   .     S
Cu210  O225    1.956   .     S
Cu210  O224    1.963   .     S
Cu210  O220    1.970   .     S
H211   C261    1.083   .     S
H212   C326    1.082   1_455 S
C227   C232    1.405   .     A
C227   C228    1.404   .     A
C228   H233    1.083   .     S
C228   C229    1.398   .     A
C229   C230    1.397   .     A
C229   H1386   1.081   1_554 S
C230   C231    1.398   .     A
C230   H1387   1.083   1_554 S
C231   H236    1.082   .     S
C231   C232    1.399   .     A
C232   H237    1.083   .     S
H234   C805    1.081   .     S
H235   C806    1.083   .     S
C238   C239    1.405   .     A
C238   C243    1.404   .     A
C239   H244    1.083   .     S
C239   C240    1.399   .     A
C240   H245    1.082   .     S
C240   C241    1.397   .     A
C241   C242    1.397   .     A
C241   H822    1.081   .     S
C242   C243    1.398   .     A
C242   H823    1.081   .     S
C243   H248    1.083   .     S
H246   C1393   1.081   1_554 S
H247   C1394   1.081   1_554 S
C249   O250    1.224   .     D
C249   O251    1.392   .     S
O251   H252    1.014   .     S
C253   O254    1.218   .     D
C253   O255    1.399   .     S
O255   H256    1.014   .     S
C257   O285    1.294   .     A
C257   C268    1.455   .     S
C257   O283    1.304   .     A
C258   O284    1.304   .     A
C258   O286    1.294   .     A
C258   C267    1.455   .     S
C259   O287    1.297   .     A
C259   O289    1.289   .     A
C259   C261    1.430   .     S
C260   O288    1.296   .     A
C260   C262    1.429   .     S
C260   O290    1.290   .     A
C262   C325    1.325   .     S
C262   H340    1.082   .     S
C263   C268    1.415   .     A
C263   C291    1.482   .     S
C264   C267    1.415   .     A
C264   C302    1.482   .     S
C264   C458    1.386   .     S
C265   H277    1.081   .     S
C265   C267    1.398   .     A
C265   C455    1.387   .     S
C266   H278    1.080   .     S
C266   C268    1.398   .     A
C269   N282    1.351   .     A
C269   H279    1.083   .     S
C269   C1423   1.417   1_554 S
C270   N281    1.352   .     A
C270   H280    1.083   .     S
C270   C848    1.417   .     S
C271   C313    1.478   .     S
C271   N281    1.395   .     A
C271   C845    1.417   .     S
C272   N282    1.394   .     A
C272   C317    1.477   .     S
C272   C1422   1.417   1_554 S
Cu273  N281    2.030   .     S
Cu273  O286    1.965   .     S
Cu273  Cu274   2.701   .     S
Cu273  O287    1.963   .     S
Cu273  O283    1.970   .     S
Cu273  O290    1.956   .     S
Cu274  N282    2.030   .     S
Cu274  O285    1.965   .     S
Cu274  O289    1.956   .     S
Cu274  O288    1.963   .     S
Cu274  O284    1.970   .     S
H275   C325    1.083   .     S
C291   C296    1.405   .     A
C291   C292    1.404   .     A
C292   H297    1.083   .     S
C292   C293    1.398   .     A
C293   C294    1.397   .     A
C293   H1450   1.081   1_554 S
C294   C295    1.398   .     A
C294   H1451   1.083   1_554 S
C295   H300    1.082   .     S
C295   C296    1.399   .     A
C296   H301    1.083   .     S
H298   C869    1.081   .     S
H299   C870    1.083   .     S
C302   C303    1.405   .     A
C302   C307    1.404   .     A
C303   H308    1.083   .     S
C303   C304    1.399   .     A
C304   H309    1.082   .     S
C304   C305    1.397   .     A
C305   C306    1.397   .     A
C305   H886    1.081   .     S
C306   C307    1.398   .     A
C306   H887    1.081   .     S
C307   H312    1.083   .     S
H310   C1457   1.081   1_554 S
H311   C1458   1.081   1_554 S
C313   O314    1.224   .     D
C313   O315    1.392   .     S
O315   H316    1.014   .     S
C317   O318    1.218   .     D
C317   O319    1.399   .     S
O319   H320    1.014   .     S
C321   O349    1.294   .     A
C321   C332    1.455   .     S
C321   O347    1.304   .     A
C322   O348    1.304   .     A
C322   O350    1.294   .     A
C322   C331    1.455   .     S
C323   O351    1.297   .     A
C323   O353    1.289   .     A
C323   C325    1.430   .     S
C324   O352    1.296   .     A
C324   C326    1.429   .     S
C324   O354    1.290   .     A
C326   C197    1.325   1_655 S
C326   H212    1.082   1_655 S
C327   C332    1.415   .     A
C327   C355    1.482   .     S
C328   C331    1.415   .     A
C328   C366    1.482   .     S
C328   C522    1.386   .     S
C329   H341    1.081   .     S
C329   C331    1.398   .     A
C329   C519    1.387   .     S
C330   H342    1.080   .     S
C330   C332    1.398   .     A
C333   N346    1.351   .     A
C333   H343    1.083   .     S
C333   C1487   1.417   1_554 S
C334   N345    1.352   .     A
C334   H344    1.083   .     S
C334   C912    1.417   .     S
C335   C377    1.478   .     S
C335   N345    1.395   .     A
C335   C909    1.417   .     S
C336   N346    1.394   .     A
C336   C381    1.477   .     S
C336   C1486   1.417   1_554 S
Cu337  N345    2.030   .     S
Cu337  O350    1.965   .     S
Cu337  Cu338   2.701   .     S
Cu337  O351    1.963   .     S
Cu337  O347    1.970   .     S
Cu337  O354    1.956   .     S
Cu338  N346    2.030   .     S
Cu338  O349    1.965   .     S
Cu338  O353    1.956   .     S
Cu338  O352    1.963   .     S
Cu338  O348    1.970   .     S
H339   C197    1.083   1_655 S
C355   C360    1.405   .     A
C355   C356    1.404   .     A
C356   H361    1.083   .     S
C356   C357    1.398   .     A
C357   C358    1.397   .     A
C357   H1514   1.081   1_554 S
C358   C359    1.398   .     A
C358   H1515   1.083   1_554 S
C359   H364    1.082   .     S
C359   C360    1.399   .     A
C360   H365    1.083   .     S
H362   C933    1.081   .     S
H363   C934    1.083   .     S
C366   C367    1.405   .     A
C366   C371    1.404   .     A
C367   H372    1.083   .     S
C367   C368    1.399   .     A
C368   H373    1.082   .     S
C368   C369    1.397   .     A
C369   C370    1.397   .     A
C369   H950    1.081   .     S
C370   C371    1.398   .     A
C370   H951    1.081   .     S
C371   H376    1.083   .     S
H374   C1521   1.081   1_554 S
H375   C1522   1.081   1_554 S
C377   O378    1.224   .     D
C377   O379    1.392   .     S
O379   H380    1.014   .     S
C381   O382    1.218   .     D
C381   O383    1.399   .     S
O383   H384    1.014   .     S
C385   O413    1.294   .     A
C385   C396    1.455   .     S
C385   O411    1.304   .     A
C386   O412    1.304   .     A
C386   O414    1.294   .     A
C386   C395    1.455   .     S
C387   O415    1.297   .     A
C387   O417    1.289   .     A
C387   C389    1.430   .     S
C388   O416    1.296   .     A
C388   C390    1.429   .     S
C388   O418    1.290   .     A
C389   C518    1.325   1_455 S
C389   H531    1.083   1_455 S
C390   C453    1.325   .     S
C390   H468    1.082   .     S
C391   C396    1.415   .     A
C391   C419    1.482   .     S
C392   C395    1.415   .     A
C392   C430    1.482   .     S
C392   C10     1.386   1_565 S
C393   H405    1.081   .     S
C393   C395    1.398   .     A
C393   C7      1.387   1_565 S
C394   H406    1.080   .     S
C394   C396    1.398   .     A
C397   N410    1.351   .     A
C397   H407    1.083   .     S
C397   C1551   1.417   1_554 S
C398   N409    1.352   .     A
C398   H408    1.083   .     S
C398   C976    1.417   .     S
C399   C441    1.478   .     S
C399   N409    1.395   .     A
C399   C973    1.417   .     S
C400   N410    1.394   .     A
C400   C445    1.477   .     S
C400   C1550   1.417   1_554 S
Cu401  N409    2.030   .     S
Cu401  O414    1.965   .     S
Cu401  Cu402   2.701   .     S
Cu401  O415    1.963   .     S
Cu401  O411    1.970   .     S
Cu401  O418    1.956   .     S
Cu402  N410    2.030   .     S
Cu402  O413    1.965   .     S
Cu402  O417    1.956   .     S
Cu402  O416    1.963   .     S
Cu402  O412    1.970   .     S
H403   C453    1.083   .     S
H404   C518    1.082   1_455 S
C419   C424    1.405   .     A
C419   C420    1.404   .     A
C420   H425    1.083   .     S
C420   C421    1.398   .     A
C421   C422    1.397   .     A
C421   H1578   1.081   1_554 S
C422   C423    1.398   .     A
C422   H1579   1.083   1_554 S
C423   H428    1.082   .     S
C423   C424    1.399   .     A
C424   H429    1.083   .     S
H426   C997    1.081   .     S
H427   C998    1.083   .     S
C430   C431    1.405   .     A
C430   C435    1.404   .     A
C431   H436    1.083   .     S
C431   C432    1.399   .     A
C432   H437    1.082   .     S
C432   C433    1.397   .     A
C433   C434    1.397   .     A
C433   H1014   1.081   .     S
C434   C435    1.398   .     A
C434   H1015   1.081   .     S
C435   H440    1.083   .     S
H438   C1585   1.081   1_554 S
H439   C1586   1.081   1_554 S
C441   O442    1.224   .     D
C441   O443    1.392   .     S
O443   H444    1.014   .     S
C445   O446    1.218   .     D
C445   O447    1.399   .     S
O447   H448    1.014   .     S
C449   O477    1.294   .     A
C449   C460    1.455   .     S
C449   O475    1.304   .     A
C450   O476    1.304   .     A
C450   O478    1.294   .     A
C450   C459    1.455   .     S
C451   O479    1.297   .     A
C451   O481    1.289   .     A
C451   C453    1.430   .     S
C452   O480    1.296   .     A
C452   C454    1.429   .     S
C452   O482    1.290   .     A
C454   C517    1.325   .     S
C454   H532    1.082   .     S
C455   C460    1.415   .     A
C455   C483    1.482   .     S
C456   C459    1.415   .     A
C456   C494    1.482   .     S
C456   C74     1.386   1_565 S
C457   H469    1.081   .     S
C457   C459    1.398   .     A
C457   C71     1.387   1_565 S
C458   H470    1.080   .     S
C458   C460    1.398   .     A
C461   N474    1.351   .     A
C461   H471    1.083   .     S
C461   C1615   1.417   1_554 S
C462   N473    1.352   .     A
C462   H472    1.083   .     S
C462   C1040   1.417   .     S
C463   C505    1.478   .     S
C463   N473    1.395   .     A
C463   C1037   1.417   .     S
C464   N474    1.394   .     A
C464   C509    1.477   .     S
C464   C1614   1.417   1_554 S
Cu465  N473    2.030   .     S
Cu465  O478    1.965   .     S
Cu465  Cu466   2.701   .     S
Cu465  O479    1.963   .     S
Cu465  O475    1.970   .     S
Cu465  O482    1.956   .     S
Cu466  N474    2.030   .     S
Cu466  O477    1.965   .     S
Cu466  O481    1.956   .     S
Cu466  O480    1.963   .     S
Cu466  O476    1.970   .     S
H467   C517    1.083   .     S
C483   C488    1.405   .     A
C483   C484    1.404   .     A
C484   H489    1.083   .     S
C484   C485    1.398   .     A
C485   C486    1.397   .     A
C485   H1642   1.081   1_554 S
C486   C487    1.398   .     A
C486   H1643   1.083   1_554 S
C487   H492    1.082   .     S
C487   C488    1.399   .     A
C488   H493    1.083   .     S
H490   C1061   1.081   .     S
H491   C1062   1.083   .     S
C494   C495    1.405   .     A
C494   C499    1.404   .     A
C495   H500    1.083   .     S
C495   C496    1.399   .     A
C496   H501    1.082   .     S
C496   C497    1.397   .     A
C497   C498    1.397   .     A
C497   H1078   1.081   .     S
C498   C499    1.398   .     A
C498   H1079   1.081   .     S
C499   H504    1.083   .     S
H502   C1649   1.081   1_554 S
H503   C1650   1.081   1_554 S
C505   O506    1.224   .     D
C505   O507    1.392   .     S
O507   H508    1.014   .     S
C509   O510    1.218   .     D
C509   O511    1.399   .     S
O511   H512    1.014   .     S
C513   O541    1.294   .     A
C513   C524    1.455   .     S
C513   O539    1.304   .     A
C514   O540    1.304   .     A
C514   O542    1.294   .     A
C514   C523    1.455   .     S
C515   O543    1.297   .     A
C515   O545    1.289   .     A
C515   C517    1.430   .     S
C516   O544    1.296   .     A
C516   C518    1.429   .     S
C516   O546    1.290   .     A
C518   C389    1.325   1_655 S
C518   H404    1.082   1_655 S
C519   C524    1.415   .     A
C519   C547    1.482   .     S
C520   C523    1.415   .     A
C520   C558    1.482   .     S
C520   C138    1.386   1_565 S
C521   H533    1.081   .     S
C521   C523    1.398   .     A
C521   C135    1.387   1_565 S
C522   H534    1.080   .     S
C522   C524    1.398   .     A
C525   N538    1.351   .     A
C525   H535    1.083   .     S
C525   C1679   1.417   1_554 S
C526   N537    1.352   .     A
C526   H536    1.083   .     S
C526   C1104   1.417   .     S
C527   C569    1.478   .     S
C527   N537    1.395   .     A
C527   C1101   1.417   .     S
C528   N538    1.394   .     A
C528   C573    1.477   .     S
C528   C1678   1.417   1_554 S
Cu529  N537    2.030   .     S
Cu529  O542    1.965   .     S
Cu529  Cu530   2.701   .     S
Cu529  O543    1.963   .     S
Cu529  O539    1.970   .     S
Cu529  O546    1.956   .     S
Cu530  N538    2.030   .     S
Cu530  O541    1.965   .     S
Cu530  O545    1.956   .     S
Cu530  O544    1.963   .     S
Cu530  O540    1.970   .     S
H531   C389    1.083   1_655 S
C547   C552    1.405   .     A
C547   C548    1.404   .     A
C548   H553    1.083   .     S
C548   C549    1.398   .     A
C549   C550    1.397   .     A
C549   H1706   1.081   1_554 S
C550   C551    1.398   .     A
C550   H1707   1.083   1_554 S
C551   H556    1.082   .     S
C551   C552    1.399   .     A
C552   H557    1.083   .     S
H554   C1125   1.081   .     S
H555   C1126   1.083   .     S
C558   C559    1.405   .     A
C558   C563    1.404   .     A
C559   H564    1.083   .     S
C559   C560    1.399   .     A
C560   H565    1.082   .     S
C560   C561    1.397   .     A
C561   C562    1.397   .     A
C561   H1142   1.081   .     S
C562   C563    1.398   .     A
C562   H1143   1.081   .     S
C563   H568    1.083   .     S
H566   C1713   1.081   1_554 S
H567   C1714   1.081   1_554 S
C569   O570    1.224   .     D
C569   O571    1.392   .     S
O571   H572    1.014   .     S
C573   O574    1.218   .     D
C573   O575    1.399   .     S
O575   H576    1.014   .     S
C577   O605    1.294   .     A
C577   C588    1.455   .     S
C577   O603    1.304   .     A
C578   O604    1.304   .     A
C578   O606    1.294   .     A
C578   C587    1.455   .     S
C579   O607    1.297   .     A
C579   O609    1.289   .     A
C579   C581    1.430   .     S
C580   O608    1.296   .     A
C580   C582    1.429   .     S
C580   O610    1.290   .     A
C581   C710    1.325   1_455 S
C581   H723    1.083   1_455 S
C582   C645    1.325   .     S
C582   H660    1.082   .     S
C583   C588    1.415   .     A
C583   C611    1.482   .     S
C583   C969    1.387   1_545 S
C584   C587    1.415   .     A
C584   C622    1.482   .     S
C584   C778    1.386   .     S
C585   H597    1.081   .     S
C585   C587    1.398   .     A
C585   C775    1.387   .     S
C586   H598    1.080   .     S
C586   C588    1.398   .     A
C586   C968    1.386   1_545 S
C589   N602    1.351   .     A
C589   H599    1.083   .     S
C590   N601    1.352   .     A
C590   H600    1.083   .     S
C590   C1168   1.417   .     S
C591   C633    1.478   .     S
C591   N601    1.395   .     A
C591   C1165   1.417   .     S
C592   N602    1.394   .     A
C592   C637    1.477   .     S
Cu593  N601    2.030   .     S
Cu593  O606    1.965   .     S
Cu593  Cu594   2.701   .     S
Cu593  O607    1.963   .     S
Cu593  O603    1.970   .     S
Cu593  O610    1.956   .     S
Cu594  N602    2.030   .     S
Cu594  O605    1.965   .     S
Cu594  O609    1.956   .     S
Cu594  O608    1.963   .     S
Cu594  O604    1.970   .     S
H595   C645    1.083   .     S
H596   C710    1.082   1_455 S
C611   C616    1.405   .     A
C611   C612    1.404   .     A
C612   H617    1.083   .     S
C612   C613    1.398   .     A
C613   C614    1.397   .     A
C614   C615    1.398   .     A
C615   H620    1.082   .     S
C615   C616    1.399   .     A
C616   H621    1.083   .     S
H618   C1189   1.081   .     S
H619   C1190   1.083   .     S
C622   C623    1.405   .     A
C622   C627    1.404   .     A
C623   H628    1.083   .     S
C623   C624    1.399   .     A
C624   H629    1.082   .     S
C624   C625    1.397   .     A
C625   C626    1.397   .     A
C625   H1206   1.081   .     S
C626   C627    1.398   .     A
C626   H1207   1.081   .     S
C627   H632    1.083   .     S
C633   O634    1.224   .     D
C633   O635    1.392   .     S
O635   H636    1.014   .     S
C637   O638    1.218   .     D
C637   O639    1.399   .     S
O639   H640    1.014   .     S
C641   O669    1.294   .     A
C641   C652    1.455   .     S
C641   O667    1.304   .     A
C642   O668    1.304   .     A
C642   O670    1.294   .     A
C642   C651    1.455   .     S
C643   O671    1.297   .     A
C643   O673    1.289   .     A
C643   C645    1.430   .     S
C644   O672    1.296   .     A
C644   C646    1.429   .     S
C644   O674    1.290   .     A
C646   C709    1.325   .     S
C646   H724    1.082   .     S
C647   C652    1.415   .     A
C647   C675    1.482   .     S
C647   C1033   1.387   1_545 S
C648   C651    1.415   .     A
C648   C686    1.482   .     S
C648   C842    1.386   .     S
C649   H661    1.081   .     S
C649   C651    1.398   .     A
C649   C839    1.387   .     S
C650   H662    1.080   .     S
C650   C652    1.398   .     A
C650   C1032   1.386   1_545 S
C653   N666    1.351   .     A
C653   H663    1.083   .     S
C654   N665    1.352   .     A
C654   H664    1.083   .     S
C654   C1232   1.417   .     S
C655   C697    1.478   .     S
C655   N665    1.395   .     A
C655   C1229   1.417   .     S
C656   N666    1.394   .     A
C656   C701    1.477   .     S
Cu657  N665    2.030   .     S
Cu657  O670    1.965   .     S
Cu657  Cu658   2.701   .     S
Cu657  O671    1.963   .     S
Cu657  O667    1.970   .     S
Cu657  O674    1.956   .     S
Cu658  N666    2.030   .     S
Cu658  O669    1.965   .     S
Cu658  O673    1.956   .     S
Cu658  O672    1.963   .     S
Cu658  O668    1.970   .     S
H659   C709    1.083   .     S
C675   C680    1.405   .     A
C675   C676    1.404   .     A
C676   H681    1.083   .     S
C676   C677    1.398   .     A
C677   C678    1.397   .     A
C678   C679    1.398   .     A
C679   H684    1.082   .     S
C679   C680    1.399   .     A
C680   H685    1.083   .     S
H682   C1253   1.081   .     S
H683   C1254   1.083   .     S
C686   C687    1.405   .     A
C686   C691    1.404   .     A
C687   H692    1.083   .     S
C687   C688    1.399   .     A
C688   H693    1.082   .     S
C688   C689    1.397   .     A
C689   C690    1.397   .     A
C689   H1270   1.081   .     S
C690   C691    1.398   .     A
C690   H1271   1.081   .     S
C691   H696    1.083   .     S
C697   O698    1.224   .     D
C697   O699    1.392   .     S
O699   H700    1.014   .     S
C701   O702    1.218   .     D
C701   O703    1.399   .     S
O703   H704    1.014   .     S
C705   O733    1.294   .     A
C705   C716    1.455   .     S
C705   O731    1.304   .     A
C706   O732    1.304   .     A
C706   O734    1.294   .     A
C706   C715    1.455   .     S
C707   O735    1.297   .     A
C707   O737    1.289   .     A
C707   C709    1.430   .     S
C708   O736    1.296   .     A
C708   C710    1.429   .     S
C708   O738    1.290   .     A
C710   C581    1.325   1_655 S
C710   H596    1.082   1_655 S
C711   C716    1.415   .     A
C711   C739    1.482   .     S
C711   C1097   1.387   1_545 S
C712   C715    1.415   .     A
C712   C750    1.482   .     S
C712   C906    1.386   .     S
C713   H725    1.081   .     S
C713   C715    1.398   .     A
C713   C903    1.387   .     S
C714   H726    1.080   .     S
C714   C716    1.398   .     A
C714   C1096   1.386   1_545 S
C717   N730    1.351   .     A
C717   H727    1.083   .     S
C718   N729    1.352   .     A
C718   H728    1.083   .     S
C718   C1296   1.417   .     S
C719   C761    1.478   .     S
C719   N729    1.395   .     A
C719   C1293   1.417   .     S
C720   N730    1.394   .     A
C720   C765    1.477   .     S
Cu721  N729    2.030   .     S
Cu721  O734    1.965   .     S
Cu721  Cu722   2.701   .     S
Cu721  O735    1.963   .     S
Cu721  O731    1.970   .     S
Cu721  O738    1.956   .     S
Cu722  N730    2.030   .     S
Cu722  O733    1.965   .     S
Cu722  O737    1.956   .     S
Cu722  O736    1.963   .     S
Cu722  O732    1.970   .     S
H723   C581    1.083   1_655 S
C739   C744    1.405   .     A
C739   C740    1.404   .     A
C740   H745    1.083   .     S
C740   C741    1.398   .     A
C741   C742    1.397   .     A
C742   C743    1.398   .     A
C743   H748    1.082   .     S
C743   C744    1.399   .     A
C744   H749    1.083   .     S
H746   C1317   1.081   .     S
H747   C1318   1.083   .     S
C750   C751    1.405   .     A
C750   C755    1.404   .     A
C751   H756    1.083   .     S
C751   C752    1.399   .     A
C752   H757    1.082   .     S
C752   C753    1.397   .     A
C753   C754    1.397   .     A
C753   H1334   1.081   .     S
C754   C755    1.398   .     A
C754   H1335   1.081   .     S
C755   H760    1.083   .     S
C761   O762    1.224   .     D
C761   O763    1.392   .     S
O763   H764    1.014   .     S
C765   O766    1.218   .     D
C765   O767    1.399   .     S
O767   H768    1.014   .     S
C769   O797    1.294   .     A
C769   C780    1.455   .     S
C769   O795    1.304   .     A
C770   O796    1.304   .     A
C770   O798    1.294   .     A
C770   C779    1.455   .     S
C771   O799    1.297   .     A
C771   O801    1.289   .     A
C771   C773    1.430   .     S
C772   O800    1.296   .     A
C772   C774    1.429   .     S
C772   O802    1.290   .     A
C773   C902    1.325   1_455 S
C773   H915    1.083   1_455 S
C774   C837    1.325   .     S
C774   H852    1.082   .     S
C775   C780    1.415   .     A
C775   C803    1.482   .     S
C776   C779    1.415   .     A
C776   C814    1.482   .     S
C776   C970    1.386   .     S
C777   H789    1.081   .     S
C777   C779    1.398   .     A
C777   C967    1.387   .     S
C778   H790    1.080   .     S
C778   C780    1.398   .     A
C781   N794    1.351   .     A
C781   H791    1.083   .     S
C782   N793    1.352   .     A
C782   H792    1.083   .     S
C782   C1360   1.417   .     S
C783   C825    1.478   .     S
C783   N793    1.395   .     A
C783   C1357   1.417   .     S
C784   N794    1.394   .     A
C784   C829    1.477   .     S
Cu785  N793    2.030   .     S
Cu785  O798    1.965   .     S
Cu785  Cu786   2.701   .     S
Cu785  O799    1.963   .     S
Cu785  O795    1.970   .     S
Cu785  O802    1.956   .     S
Cu786  N794    2.030   .     S
Cu786  O797    1.965   .     S
Cu786  O801    1.956   .     S
Cu786  O800    1.963   .     S
Cu786  O796    1.970   .     S
H787   C837    1.083   .     S
H788   C902    1.082   1_455 S
C803   C808    1.405   .     A
C803   C804    1.404   .     A
C804   H809    1.083   .     S
C804   C805    1.398   .     A
C805   C806    1.397   .     A
C806   C807    1.398   .     A
C807   H812    1.082   .     S
C807   C808    1.399   .     A
C808   H813    1.083   .     S
H810   C1381   1.081   .     S
H811   C1382   1.083   .     S
C814   C815    1.405   .     A
C814   C819    1.404   .     A
C815   H820    1.083   .     S
C815   C816    1.399   .     A
C816   H821    1.082   .     S
C816   C817    1.397   .     A
C817   C818    1.397   .     A
C817   H1398   1.081   .     S
C818   C819    1.398   .     A
C818   H1399   1.081   .     S
C819   H824    1.083   .     S
C825   O826    1.224   .     D
C825   O827    1.392   .     S
O827   H828    1.014   .     S
C829   O830    1.218   .     D
C829   O831    1.399   .     S
O831   H832    1.014   .     S
C833   O861    1.294   .     A
C833   C844    1.455   .     S
C833   O859    1.304   .     A
C834   O860    1.304   .     A
C834   O862    1.294   .     A
C834   C843    1.455   .     S
C835   O863    1.297   .     A
C835   O865    1.289   .     A
C835   C837    1.430   .     S
C836   O864    1.296   .     A
C836   C838    1.429   .     S
C836   O866    1.290   .     A
C838   C901    1.325   .     S
C838   H916    1.082   .     S
C839   C844    1.415   .     A
C839   C867    1.482   .     S
C840   C843    1.415   .     A
C840   C878    1.482   .     S
C840   C1034   1.386   .     S
C841   H853    1.081   .     S
C841   C843    1.398   .     A
C841   C1031   1.387   .     S
C842   H854    1.080   .     S
C842   C844    1.398   .     A
C845   N858    1.351   .     A
C845   H855    1.083   .     S
C846   N857    1.352   .     A
C846   H856    1.083   .     S
C846   C1424   1.417   .     S
C847   C889    1.478   .     S
C847   N857    1.395   .     A
C847   C1421   1.417   .     S
C848   N858    1.394   .     A
C848   C893    1.477   .     S
Cu849  N857    2.030   .     S
Cu849  O862    1.965   .     S
Cu849  Cu850   2.701   .     S
Cu849  O863    1.963   .     S
Cu849  O859    1.970   .     S
Cu849  O866    1.956   .     S
Cu850  N858    2.030   .     S
Cu850  O861    1.965   .     S
Cu850  O865    1.956   .     S
Cu850  O864    1.963   .     S
Cu850  O860    1.970   .     S
H851   C901    1.083   .     S
C867   C872    1.405   .     A
C867   C868    1.404   .     A
C868   H873    1.083   .     S
C868   C869    1.398   .     A
C869   C870    1.397   .     A
C870   C871    1.398   .     A
C871   H876    1.082   .     S
C871   C872    1.399   .     A
C872   H877    1.083   .     S
H874   C1445   1.081   .     S
H875   C1446   1.083   .     S
C878   C879    1.405   .     A
C878   C883    1.404   .     A
C879   H884    1.083   .     S
C879   C880    1.399   .     A
C880   H885    1.082   .     S
C880   C881    1.397   .     A
C881   C882    1.397   .     A
C881   H1462   1.081   .     S
C882   C883    1.398   .     A
C882   H1463   1.081   .     S
C883   H888    1.083   .     S
C889   O890    1.224   .     D
C889   O891    1.392   .     S
O891   H892    1.014   .     S
C893   O894    1.218   .     D
C893   O895    1.399   .     S
O895   H896    1.014   .     S
C897   O925    1.294   .     A
C897   C908    1.455   .     S
C897   O923    1.304   .     A
C898   O924    1.304   .     A
C898   O926    1.294   .     A
C898   C907    1.455   .     S
C899   O927    1.297   .     A
C899   O929    1.289   .     A
C899   C901    1.430   .     S
C900   O928    1.296   .     A
C900   C902    1.429   .     S
C900   O930    1.290   .     A
C902   C773    1.325   1_655 S
C902   H788    1.082   1_655 S
C903   C908    1.415   .     A
C903   C931    1.482   .     S
C904   C907    1.415   .     A
C904   C942    1.482   .     S
C904   C1098   1.386   .     S
C905   H917    1.081   .     S
C905   C907    1.398   .     A
C905   C1095   1.387   .     S
C906   H918    1.080   .     S
C906   C908    1.398   .     A
C909   N922    1.351   .     A
C909   H919    1.083   .     S
C910   N921    1.352   .     A
C910   H920    1.083   .     S
C910   C1488   1.417   .     S
C911   C953    1.478   .     S
C911   N921    1.395   .     A
C911   C1485   1.417   .     S
C912   N922    1.394   .     A
C912   C957    1.477   .     S
Cu913  N921    2.030   .     S
Cu913  O926    1.965   .     S
Cu913  Cu914   2.701   .     S
Cu913  O927    1.963   .     S
Cu913  O923    1.970   .     S
Cu913  O930    1.956   .     S
Cu914  N922    2.030   .     S
Cu914  O925    1.965   .     S
Cu914  O929    1.956   .     S
Cu914  O928    1.963   .     S
Cu914  O924    1.970   .     S
H915   C773    1.083   1_655 S
C931   C936    1.405   .     A
C931   C932    1.404   .     A
C932   H937    1.083   .     S
C932   C933    1.398   .     A
C933   C934    1.397   .     A
C934   C935    1.398   .     A
C935   H940    1.082   .     S
C935   C936    1.399   .     A
C936   H941    1.083   .     S
H938   C1509   1.081   .     S
H939   C1510   1.083   .     S
C942   C943    1.405   .     A
C942   C947    1.404   .     A
C943   H948    1.083   .     S
C943   C944    1.399   .     A
C944   H949    1.082   .     S
C944   C945    1.397   .     A
C945   C946    1.397   .     A
C945   H1526   1.081   .     S
C946   C947    1.398   .     A
C946   H1527   1.081   .     S
C947   H952    1.083   .     S
C953   O954    1.224   .     D
C953   O955    1.392   .     S
O955   H956    1.014   .     S
C957   O958    1.218   .     D
C957   O959    1.399   .     S
O959   H960    1.014   .     S
C961   O989    1.294   .     A
C961   C972    1.455   .     S
C961   O987    1.304   .     A
C962   O988    1.304   .     A
C962   O990    1.294   .     A
C962   C971    1.455   .     S
C963   O991    1.297   .     A
C963   O993    1.289   .     A
C963   C965    1.430   .     S
C964   O992    1.296   .     A
C964   C966    1.429   .     S
C964   O994    1.290   .     A
C965   C1094   1.325   1_455 S
C965   H1107   1.083   1_455 S
C966   C1029   1.325   .     S
C966   H1044   1.082   .     S
C967   C972    1.415   .     A
C967   C995    1.482   .     S
C968   C971    1.415   .     A
C968   C1006   1.482   .     S
C968   C586    1.386   1_565 S
C969   H981    1.081   .     S
C969   C971    1.398   .     A
C969   C583    1.387   1_565 S
C970   H982    1.080   .     S
C970   C972    1.398   .     A
C973   N986    1.351   .     A
C973   H983    1.083   .     S
C974   N985    1.352   .     A
C974   H984    1.083   .     S
C974   C1552   1.417   .     S
C975   C1017   1.478   .     S
C975   N985    1.395   .     A
C975   C1549   1.417   .     S
C976   N986    1.394   .     A
C976   C1021   1.477   .     S
Cu977  N985    2.030   .     S
Cu977  O990    1.965   .     S
Cu977  Cu978   2.701   .     S
Cu977  O991    1.963   .     S
Cu977  O987    1.970   .     S
Cu977  O994    1.956   .     S
Cu978  N986    2.030   .     S
Cu978  O989    1.965   .     S
Cu978  O993    1.956   .     S
Cu978  O992    1.963   .     S
Cu978  O988    1.970   .     S
H979   C1029   1.083   .     S
H980   C1094   1.082   1_455 S
C995   C1000   1.405   .     A
C995   C996    1.404   .     A
C996   H1001   1.083   .     S
C996   C997    1.398   .     A
C997   C998    1.397   .     A
C998   C999    1.398   .     A
C999   H1004   1.082   .     S
C999   C1000   1.399   .     A
C1000  H1005   1.083   .     S
H1002  C1573   1.081   .     S
H1003  C1574   1.083   .     S
C1006  C1007   1.405   .     A
C1006  C1011   1.404   .     A
C1007  H1012   1.083   .     S
C1007  C1008   1.399   .     A
C1008  H1013   1.082   .     S
C1008  C1009   1.397   .     A
C1009  C1010   1.397   .     A
C1009  H1590   1.081   .     S
C1010  C1011   1.398   .     A
C1010  H1591   1.081   .     S
C1011  H1016   1.083   .     S
C1017  O1018   1.224   .     D
C1017  O1019   1.392   .     S
O1019  H1020   1.014   .     S
C1021  O1022   1.218   .     D
C1021  O1023   1.399   .     S
O1023  H1024   1.014   .     S
C1025  O1053   1.294   .     A
C1025  C1036   1.455   .     S
C1025  O1051   1.304   .     A
C1026  O1052   1.304   .     A
C1026  O1054   1.294   .     A
C1026  C1035   1.455   .     S
C1027  O1055   1.297   .     A
C1027  O1057   1.289   .     A
C1027  C1029   1.430   .     S
C1028  O1056   1.296   .     A
C1028  C1030   1.429   .     S
C1028  O1058   1.290   .     A
C1030  C1093   1.325   .     S
C1030  H1108   1.082   .     S
C1031  C1036   1.415   .     A
C1031  C1059   1.482   .     S
C1032  C1035   1.415   .     A
C1032  C1070   1.482   .     S
C1032  C650    1.386   1_565 S
C1033  H1045   1.081   .     S
C1033  C1035   1.398   .     A
C1033  C647    1.387   1_565 S
C1034  H1046   1.080   .     S
C1034  C1036   1.398   .     A
C1037  N1050   1.351   .     A
C1037  H1047   1.083   .     S
C1038  N1049   1.352   .     A
C1038  H1048   1.083   .     S
C1038  C1616   1.417   .     S
C1039  C1081   1.478   .     S
C1039  N1049   1.395   .     A
C1039  C1613   1.417   .     S
C1040  N1050   1.394   .     A
C1040  C1085   1.477   .     S
Cu1041 N1049   2.030   .     S
Cu1041 O1054   1.965   .     S
Cu1041 Cu1042  2.701   .     S
Cu1041 O1055   1.963   .     S
Cu1041 O1051   1.970   .     S
Cu1041 O1058   1.956   .     S
Cu1042 N1050   2.030   .     S
Cu1042 O1053   1.965   .     S
Cu1042 O1057   1.956   .     S
Cu1042 O1056   1.963   .     S
Cu1042 O1052   1.970   .     S
H1043  C1093   1.083   .     S
C1059  C1064   1.405   .     A
C1059  C1060   1.404   .     A
C1060  H1065   1.083   .     S
C1060  C1061   1.398   .     A
C1061  C1062   1.397   .     A
C1062  C1063   1.398   .     A
C1063  H1068   1.082   .     S
C1063  C1064   1.399   .     A
C1064  H1069   1.083   .     S
H1066  C1637   1.081   .     S
H1067  C1638   1.083   .     S
C1070  C1071   1.405   .     A
C1070  C1075   1.404   .     A
C1071  H1076   1.083   .     S
C1071  C1072   1.399   .     A
C1072  H1077   1.082   .     S
C1072  C1073   1.397   .     A
C1073  C1074   1.397   .     A
C1073  H1654   1.081   .     S
C1074  C1075   1.398   .     A
C1074  H1655   1.081   .     S
C1075  H1080   1.083   .     S
C1081  O1082   1.224   .     D
C1081  O1083   1.392   .     S
O1083  H1084   1.014   .     S
C1085  O1086   1.218   .     D
C1085  O1087   1.399   .     S
O1087  H1088   1.014   .     S
C1089  O1117   1.294   .     A
C1089  C1100   1.455   .     S
C1089  O1115   1.304   .     A
C1090  O1116   1.304   .     A
C1090  O1118   1.294   .     A
C1090  C1099   1.455   .     S
C1091  O1119   1.297   .     A
C1091  O1121   1.289   .     A
C1091  C1093   1.430   .     S
C1092  O1120   1.296   .     A
C1092  C1094   1.429   .     S
C1092  O1122   1.290   .     A
C1094  C965    1.325   1_655 S
C1094  H980    1.082   1_655 S
C1095  C1100   1.415   .     A
C1095  C1123   1.482   .     S
C1096  C1099   1.415   .     A
C1096  C1134   1.482   .     S
C1096  C714    1.386   1_565 S
C1097  H1109   1.081   .     S
C1097  C1099   1.398   .     A
C1097  C711    1.387   1_565 S
C1098  H1110   1.080   .     S
C1098  C1100   1.398   .     A
C1101  N1114   1.351   .     A
C1101  H1111   1.083   .     S
C1102  N1113   1.352   .     A
C1102  H1112   1.083   .     S
C1102  C1680   1.417   .     S
C1103  C1145   1.478   .     S
C1103  N1113   1.395   .     A
C1103  C1677   1.417   .     S
C1104  N1114   1.394   .     A
C1104  C1149   1.477   .     S
Cu1105 N1113   2.030   .     S
Cu1105 O1118   1.965   .     S
Cu1105 Cu1106  2.701   .     S
Cu1105 O1119   1.963   .     S
Cu1105 O1115   1.970   .     S
Cu1105 O1122   1.956   .     S
Cu1106 N1114   2.030   .     S
Cu1106 O1117   1.965   .     S
Cu1106 O1121   1.956   .     S
Cu1106 O1120   1.963   .     S
Cu1106 O1116   1.970   .     S
H1107  C965    1.083   1_655 S
C1123  C1128   1.405   .     A
C1123  C1124   1.404   .     A
C1124  H1129   1.083   .     S
C1124  C1125   1.398   .     A
C1125  C1126   1.397   .     A
C1126  C1127   1.398   .     A
C1127  H1132   1.082   .     S
C1127  C1128   1.399   .     A
C1128  H1133   1.083   .     S
H1130  C1701   1.081   .     S
H1131  C1702   1.083   .     S
C1134  C1135   1.405   .     A
C1134  C1139   1.404   .     A
C1135  H1140   1.083   .     S
C1135  C1136   1.399   .     A
C1136  H1141   1.082   .     S
C1136  C1137   1.397   .     A
C1137  C1138   1.397   .     A
C1137  H1718   1.081   .     S
C1138  C1139   1.398   .     A
C1138  H1719   1.081   .     S
C1139  H1144   1.083   .     S
C1145  O1146   1.224   .     D
C1145  O1147   1.392   .     S
O1147  H1148   1.014   .     S
C1149  O1150   1.218   .     D
C1149  O1151   1.399   .     S
O1151  H1152   1.014   .     S
C1153  O1181   1.294   .     A
C1153  C1164   1.455   .     S
C1153  O1179   1.304   .     A
C1154  O1180   1.304   .     A
C1154  O1182   1.294   .     A
C1154  C1163   1.455   .     S
C1155  O1183   1.297   .     A
C1155  O1185   1.289   .     A
C1155  C1157   1.430   .     S
C1156  O1184   1.296   .     A
C1156  C1158   1.429   .     S
C1156  O1186   1.290   .     A
C1157  C1286   1.325   1_455 S
C1157  H1299   1.083   1_455 S
C1158  C1221   1.325   .     S
C1158  H1236   1.082   .     S
C1159  C1164   1.415   .     A
C1159  C1187   1.482   .     S
C1159  C1545   1.387   1_545 S
C1160  C1163   1.415   .     A
C1160  C1198   1.482   .     S
C1160  C1354   1.386   .     S
C1161  H1173   1.081   .     S
C1161  C1163   1.398   .     A
C1161  C1351   1.387   .     S
C1162  H1174   1.080   .     S
C1162  C1164   1.398   .     A
C1162  C1544   1.386   1_545 S
C1165  N1178   1.351   .     A
C1165  H1175   1.083   .     S
C1166  N1177   1.352   .     A
C1166  H1176   1.083   .     S
C1166  C16     1.417   1_556 S
C1167  C1209   1.478   .     S
C1167  N1177   1.395   .     A
C1167  C13     1.417   1_556 S
C1168  N1178   1.394   .     A
C1168  C1213   1.477   .     S
Cu1169 N1177   2.030   .     S
Cu1169 O1182   1.965   .     S
Cu1169 Cu1170  2.701   .     S
Cu1169 O1183   1.963   .     S
Cu1169 O1179   1.970   .     S
Cu1169 O1186   1.956   .     S
Cu1170 N1178   2.030   .     S
Cu1170 O1181   1.965   .     S
Cu1170 O1185   1.956   .     S
Cu1170 O1184   1.963   .     S
Cu1170 O1180   1.970   .     S
H1171  C1221   1.083   .     S
H1172  C1286   1.082   1_455 S
C1187  C1192   1.405   .     A
C1187  C1188   1.404   .     A
C1188  H1193   1.083   .     S
C1188  C1189   1.398   .     A
C1189  C1190   1.397   .     A
C1190  C1191   1.398   .     A
C1191  H1196   1.082   .     S
C1191  C1192   1.399   .     A
C1192  H1197   1.083   .     S
H1194  C37     1.081   1_556 S
H1195  C38     1.083   1_556 S
C1198  C1199   1.405   .     A
C1198  C1203   1.404   .     A
C1199  H1204   1.083   .     S
C1199  C1200   1.399   .     A
C1200  H1205   1.082   .     S
C1200  C1201   1.397   .     A
C1201  C1202   1.397   .     A
C1201  H54     1.081   1_556 S
C1202  C1203   1.398   .     A
C1202  H55     1.081   1_556 S
C1203  H1208   1.083   .     S
C1209  O1210   1.224   .     D
C1209  O1211   1.392   .     S
O1211  H1212   1.014   .     S
C1213  O1214   1.218   .     D
C1213  O1215   1.399   .     S
O1215  H1216   1.014   .     S
C1217  O1245   1.294   .     A
C1217  C1228   1.455   .     S
C1217  O1243   1.304   .     A
C1218  O1244   1.304   .     A
C1218  O1246   1.294   .     A
C1218  C1227   1.455   .     S
C1219  O1247   1.297   .     A
C1219  O1249   1.289   .     A
C1219  C1221   1.430   .     S
C1220  O1248   1.296   .     A
C1220  C1222   1.429   .     S
C1220  O1250   1.290   .     A
C1222  C1285   1.325   .     S
C1222  H1300   1.082   .     S
C1223  C1228   1.415   .     A
C1223  C1251   1.482   .     S
C1223  C1609   1.387   1_545 S
C1224  C1227   1.415   .     A
C1224  C1262   1.482   .     S
C1224  C1418   1.386   .     S
C1225  H1237   1.081   .     S
C1225  C1227   1.398   .     A
C1225  C1415   1.387   .     S
C1226  H1238   1.080   .     S
C1226  C1228   1.398   .     A
C1226  C1608   1.386   1_545 S
C1229  N1242   1.351   .     A
C1229  H1239   1.083   .     S
C1230  N1241   1.352   .     A
C1230  H1240   1.083   .     S
C1230  C80     1.417   1_556 S
C1231  C1273   1.478   .     S
C1231  N1241   1.395   .     A
C1231  C77     1.417   1_556 S
C1232  N1242   1.394   .     A
C1232  C1277   1.477   .     S
Cu1233 N1241   2.030   .     S
Cu1233 O1246   1.965   .     S
Cu1233 Cu1234  2.701   .     S
Cu1233 O1247   1.963   .     S
Cu1233 O1243   1.970   .     S
Cu1233 O1250   1.956   .     S
Cu1234 N1242   2.030   .     S
Cu1234 O1245   1.965   .     S
Cu1234 O1249   1.956   .     S
Cu1234 O1248   1.963   .     S
Cu1234 O1244   1.970   .     S
H1235  C1285   1.083   .     S
C1251  C1256   1.405   .     A
C1251  C1252   1.404   .     A
C1252  H1257   1.083   .     S
C1252  C1253   1.398   .     A
C1253  C1254   1.397   .     A
C1254  C1255   1.398   .     A
C1255  H1260   1.082   .     S
C1255  C1256   1.399   .     A
C1256  H1261   1.083   .     S
H1258  C101    1.081   1_556 S
H1259  C102    1.083   1_556 S
C1262  C1263   1.405   .     A
C1262  C1267   1.404   .     A
C1263  H1268   1.083   .     S
C1263  C1264   1.399   .     A
C1264  H1269   1.082   .     S
C1264  C1265   1.397   .     A
C1265  C1266   1.397   .     A
C1265  H118    1.081   1_556 S
C1266  C1267   1.398   .     A
C1266  H119    1.081   1_556 S
C1267  H1272   1.083   .     S
C1273  O1274   1.224   .     D
C1273  O1275   1.392   .     S
O1275  H1276   1.014   .     S
C1277  O1278   1.218   .     D
C1277  O1279   1.399   .     S
O1279  H1280   1.014   .     S
C1281  O1309   1.294   .     A
C1281  C1292   1.455   .     S
C1281  O1307   1.304   .     A
C1282  O1308   1.304   .     A
C1282  O1310   1.294   .     A
C1282  C1291   1.455   .     S
C1283  O1311   1.297   .     A
C1283  O1313   1.289   .     A
C1283  C1285   1.430   .     S
C1284  O1312   1.296   .     A
C1284  C1286   1.429   .     S
C1284  O1314   1.290   .     A
C1286  C1157   1.325   1_655 S
C1286  H1172   1.082   1_655 S
C1287  C1292   1.415   .     A
C1287  C1315   1.482   .     S
C1287  C1673   1.387   1_545 S
C1288  C1291   1.415   .     A
C1288  C1326   1.482   .     S
C1288  C1482   1.386   .     S
C1289  H1301   1.081   .     S
C1289  C1291   1.398   .     A
C1289  C1479   1.387   .     S
C1290  H1302   1.080   .     S
C1290  C1292   1.398   .     A
C1290  C1672   1.386   1_545 S
C1293  N1306   1.351   .     A
C1293  H1303   1.083   .     S
C1294  N1305   1.352   .     A
C1294  H1304   1.083   .     S
C1294  C144    1.417   1_556 S
C1295  C1337   1.478   .     S
C1295  N1305   1.395   .     A
C1295  C141    1.417   1_556 S
C1296  N1306   1.394   .     A
C1296  C1341   1.477   .     S
Cu1297 N1305   2.030   .     S
Cu1297 O1310   1.965   .     S
Cu1297 Cu1298  2.701   .     S
Cu1297 O1311   1.963   .     S
Cu1297 O1307   1.970   .     S
Cu1297 O1314   1.956   .     S
Cu1298 N1306   2.030   .     S
Cu1298 O1309   1.965   .     S
Cu1298 O1313   1.956   .     S
Cu1298 O1312   1.963   .     S
Cu1298 O1308   1.970   .     S
H1299  C1157   1.083   1_655 S
C1315  C1320   1.405   .     A
C1315  C1316   1.404   .     A
C1316  H1321   1.083   .     S
C1316  C1317   1.398   .     A
C1317  C1318   1.397   .     A
C1318  C1319   1.398   .     A
C1319  H1324   1.082   .     S
C1319  C1320   1.399   .     A
C1320  H1325   1.083   .     S
H1322  C165    1.081   1_556 S
H1323  C166    1.083   1_556 S
C1326  C1327   1.405   .     A
C1326  C1331   1.404   .     A
C1327  H1332   1.083   .     S
C1327  C1328   1.399   .     A
C1328  H1333   1.082   .     S
C1328  C1329   1.397   .     A
C1329  C1330   1.397   .     A
C1329  H182    1.081   1_556 S
C1330  C1331   1.398   .     A
C1330  H183    1.081   1_556 S
C1331  H1336   1.083   .     S
C1337  O1338   1.224   .     D
C1337  O1339   1.392   .     S
O1339  H1340   1.014   .     S
C1341  O1342   1.218   .     D
C1341  O1343   1.399   .     S
O1343  H1344   1.014   .     S
C1345  O1373   1.294   .     A
C1345  C1356   1.455   .     S
C1345  O1371   1.304   .     A
C1346  O1372   1.304   .     A
C1346  O1374   1.294   .     A
C1346  C1355   1.455   .     S
C1347  O1375   1.297   .     A
C1347  O1377   1.289   .     A
C1347  C1349   1.430   .     S
C1348  O1376   1.296   .     A
C1348  C1350   1.429   .     S
C1348  O1378   1.290   .     A
C1349  C1478   1.325   1_455 S
C1349  H1491   1.083   1_455 S
C1350  C1413   1.325   .     S
C1350  H1428   1.082   .     S
C1351  C1356   1.415   .     A
C1351  C1379   1.482   .     S
C1352  C1355   1.415   .     A
C1352  C1390   1.482   .     S
C1352  C1546   1.386   .     S
C1353  H1365   1.081   .     S
C1353  C1355   1.398   .     A
C1353  C1543   1.387   .     S
C1354  H1366   1.080   .     S
C1354  C1356   1.398   .     A
C1357  N1370   1.351   .     A
C1357  H1367   1.083   .     S
C1358  N1369   1.352   .     A
C1358  H1368   1.083   .     S
C1358  C208    1.417   1_556 S
C1359  C1401   1.478   .     S
C1359  N1369   1.395   .     A
C1359  C205    1.417   1_556 S
C1360  N1370   1.394   .     A
C1360  C1405   1.477   .     S
Cu1361 N1369   2.030   .     S
Cu1361 O1374   1.965   .     S
Cu1361 Cu1362  2.701   .     S
Cu1361 O1375   1.963   .     S
Cu1361 O1371   1.970   .     S
Cu1361 O1378   1.956   .     S
Cu1362 N1370   2.030   .     S
Cu1362 O1373   1.965   .     S
Cu1362 O1377   1.956   .     S
Cu1362 O1376   1.963   .     S
Cu1362 O1372   1.970   .     S
H1363  C1413   1.083   .     S
H1364  C1478   1.082   1_455 S
C1379  C1384   1.405   .     A
C1379  C1380   1.404   .     A
C1380  H1385   1.083   .     S
C1380  C1381   1.398   .     A
C1381  C1382   1.397   .     A
C1382  C1383   1.398   .     A
C1383  H1388   1.082   .     S
C1383  C1384   1.399   .     A
C1384  H1389   1.083   .     S
H1386  C229    1.081   1_556 S
H1387  C230    1.083   1_556 S
C1390  C1391   1.405   .     A
C1390  C1395   1.404   .     A
C1391  H1396   1.083   .     S
C1391  C1392   1.399   .     A
C1392  H1397   1.082   .     S
C1392  C1393   1.397   .     A
C1393  C1394   1.397   .     A
C1393  H246    1.081   1_556 S
C1394  C1395   1.398   .     A
C1394  H247    1.081   1_556 S
C1395  H1400   1.083   .     S
C1401  O1402   1.224   .     D
C1401  O1403   1.392   .     S
O1403  H1404   1.014   .     S
C1405  O1406   1.218   .     D
C1405  O1407   1.399   .     S
O1407  H1408   1.014   .     S
C1409  O1437   1.294   .     A
C1409  C1420   1.455   .     S
C1409  O1435   1.304   .     A
C1410  O1436   1.304   .     A
C1410  O1438   1.294   .     A
C1410  C1419   1.455   .     S
C1411  O1439   1.297   .     A
C1411  O1441   1.289   .     A
C1411  C1413   1.430   .     S
C1412  O1440   1.296   .     A
C1412  C1414   1.429   .     S
C1412  O1442   1.290   .     A
C1414  C1477   1.325   .     S
C1414  H1492   1.082   .     S
C1415  C1420   1.415   .     A
C1415  C1443   1.482   .     S
C1416  C1419   1.415   .     A
C1416  C1454   1.482   .     S
C1416  C1610   1.386   .     S
C1417  H1429   1.081   .     S
C1417  C1419   1.398   .     A
C1417  C1607   1.387   .     S
C1418  H1430   1.080   .     S
C1418  C1420   1.398   .     A
C1421  N1434   1.351   .     A
C1421  H1431   1.083   .     S
C1422  N1433   1.352   .     A
C1422  H1432   1.083   .     S
C1422  C272    1.417   1_556 S
C1423  C1465   1.478   .     S
C1423  N1433   1.395   .     A
C1423  C269    1.417   1_556 S
C1424  N1434   1.394   .     A
C1424  C1469   1.477   .     S
Cu1425 N1433   2.030   .     S
Cu1425 O1438   1.965   .     S
Cu1425 Cu1426  2.701   .     S
Cu1425 O1439   1.963   .     S
Cu1425 O1435   1.970   .     S
Cu1425 O1442   1.956   .     S
Cu1426 N1434   2.030   .     S
Cu1426 O1437   1.965   .     S
Cu1426 O1441   1.956   .     S
Cu1426 O1440   1.963   .     S
Cu1426 O1436   1.970   .     S
H1427  C1477   1.083   .     S
C1443  C1448   1.405   .     A
C1443  C1444   1.404   .     A
C1444  H1449   1.083   .     S
C1444  C1445   1.398   .     A
C1445  C1446   1.397   .     A
C1446  C1447   1.398   .     A
C1447  H1452   1.082   .     S
C1447  C1448   1.399   .     A
C1448  H1453   1.083   .     S
H1450  C293    1.081   1_556 S
H1451  C294    1.083   1_556 S
C1454  C1455   1.405   .     A
C1454  C1459   1.404   .     A
C1455  H1460   1.083   .     S
C1455  C1456   1.399   .     A
C1456  H1461   1.082   .     S
C1456  C1457   1.397   .     A
C1457  C1458   1.397   .     A
C1457  H310    1.081   1_556 S
C1458  C1459   1.398   .     A
C1458  H311    1.081   1_556 S
C1459  H1464   1.083   .     S
C1465  O1466   1.224   .     D
C1465  O1467   1.392   .     S
O1467  H1468   1.014   .     S
C1469  O1470   1.218   .     D
C1469  O1471   1.399   .     S
O1471  H1472   1.014   .     S
C1473  O1501   1.294   .     A
C1473  C1484   1.455   .     S
C1473  O1499   1.304   .     A
C1474  O1500   1.304   .     A
C1474  O1502   1.294   .     A
C1474  C1483   1.455   .     S
C1475  O1503   1.297   .     A
C1475  O1505   1.289   .     A
C1475  C1477   1.430   .     S
C1476  O1504   1.296   .     A
C1476  C1478   1.429   .     S
C1476  O1506   1.290   .     A
C1478  C1349   1.325   1_655 S
C1478  H1364   1.082   1_655 S
C1479  C1484   1.415   .     A
C1479  C1507   1.482   .     S
C1480  C1483   1.415   .     A
C1480  C1518   1.482   .     S
C1480  C1674   1.386   .     S
C1481  H1493   1.081   .     S
C1481  C1483   1.398   .     A
C1481  C1671   1.387   .     S
C1482  H1494   1.080   .     S
C1482  C1484   1.398   .     A
C1485  N1498   1.351   .     A
C1485  H1495   1.083   .     S
C1486  N1497   1.352   .     A
C1486  H1496   1.083   .     S
C1486  C336    1.417   1_556 S
C1487  C1529   1.478   .     S
C1487  N1497   1.395   .     A
C1487  C333    1.417   1_556 S
C1488  N1498   1.394   .     A
C1488  C1533   1.477   .     S
Cu1489 N1497   2.030   .     S
Cu1489 O1502   1.965   .     S
Cu1489 Cu1490  2.701   .     S
Cu1489 O1503   1.963   .     S
Cu1489 O1499   1.970   .     S
Cu1489 O1506   1.956   .     S
Cu1490 N1498   2.030   .     S
Cu1490 O1501   1.965   .     S
Cu1490 O1505   1.956   .     S
Cu1490 O1504   1.963   .     S
Cu1490 O1500   1.970   .     S
H1491  C1349   1.083   1_655 S
C1507  C1512   1.405   .     A
C1507  C1508   1.404   .     A
C1508  H1513   1.083   .     S
C1508  C1509   1.398   .     A
C1509  C1510   1.397   .     A
C1510  C1511   1.398   .     A
C1511  H1516   1.082   .     S
C1511  C1512   1.399   .     A
C1512  H1517   1.083   .     S
H1514  C357    1.081   1_556 S
H1515  C358    1.083   1_556 S
C1518  C1519   1.405   .     A
C1518  C1523   1.404   .     A
C1519  H1524   1.083   .     S
C1519  C1520   1.399   .     A
C1520  H1525   1.082   .     S
C1520  C1521   1.397   .     A
C1521  C1522   1.397   .     A
C1521  H374    1.081   1_556 S
C1522  C1523   1.398   .     A
C1522  H375    1.081   1_556 S
C1523  H1528   1.083   .     S
C1529  O1530   1.224   .     D
C1529  O1531   1.392   .     S
O1531  H1532   1.014   .     S
C1533  O1534   1.218   .     D
C1533  O1535   1.399   .     S
O1535  H1536   1.014   .     S
C1537  O1565   1.294   .     A
C1537  C1548   1.455   .     S
C1537  O1563   1.304   .     A
C1538  O1564   1.304   .     A
C1538  O1566   1.294   .     A
C1538  C1547   1.455   .     S
C1539  O1567   1.297   .     A
C1539  O1569   1.289   .     A
C1539  C1541   1.430   .     S
C1540  O1568   1.296   .     A
C1540  C1542   1.429   .     S
C1540  O1570   1.290   .     A
C1541  C1670   1.325   1_455 S
C1541  H1683   1.083   1_455 S
C1542  C1605   1.325   .     S
C1542  H1620   1.082   .     S
C1543  C1548   1.415   .     A
C1543  C1571   1.482   .     S
C1544  C1547   1.415   .     A
C1544  C1582   1.482   .     S
C1544  C1162   1.386   1_565 S
C1545  H1557   1.081   .     S
C1545  C1547   1.398   .     A
C1545  C1159   1.387   1_565 S
C1546  H1558   1.080   .     S
C1546  C1548   1.398   .     A
C1549  N1562   1.351   .     A
C1549  H1559   1.083   .     S
C1550  N1561   1.352   .     A
C1550  H1560   1.083   .     S
C1550  C400    1.417   1_556 S
C1551  C1593   1.478   .     S
C1551  N1561   1.395   .     A
C1551  C397    1.417   1_556 S
C1552  N1562   1.394   .     A
C1552  C1597   1.477   .     S
Cu1553 N1561   2.030   .     S
Cu1553 O1566   1.965   .     S
Cu1553 Cu1554  2.701   .     S
Cu1553 O1567   1.963   .     S
Cu1553 O1563   1.970   .     S
Cu1553 O1570   1.956   .     S
Cu1554 N1562   2.030   .     S
Cu1554 O1565   1.965   .     S
Cu1554 O1569   1.956   .     S
Cu1554 O1568   1.963   .     S
Cu1554 O1564   1.970   .     S
H1555  C1605   1.083   .     S
H1556  C1670   1.082   1_455 S
C1571  C1576   1.405   .     A
C1571  C1572   1.404   .     A
C1572  H1577   1.083   .     S
C1572  C1573   1.398   .     A
C1573  C1574   1.397   .     A
C1574  C1575   1.398   .     A
C1575  H1580   1.082   .     S
C1575  C1576   1.399   .     A
C1576  H1581   1.083   .     S
H1578  C421    1.081   1_556 S
H1579  C422    1.083   1_556 S
C1582  C1583   1.405   .     A
C1582  C1587   1.404   .     A
C1583  H1588   1.083   .     S
C1583  C1584   1.399   .     A
C1584  H1589   1.082   .     S
C1584  C1585   1.397   .     A
C1585  C1586   1.397   .     A
C1585  H438    1.081   1_556 S
C1586  C1587   1.398   .     A
C1586  H439    1.081   1_556 S
C1587  H1592   1.083   .     S
C1593  O1594   1.224   .     D
C1593  O1595   1.392   .     S
O1595  H1596   1.014   .     S
C1597  O1598   1.218   .     D
C1597  O1599   1.399   .     S
O1599  H1600   1.014   .     S
C1601  O1629   1.294   .     A
C1601  C1612   1.455   .     S
C1601  O1627   1.304   .     A
C1602  O1628   1.304   .     A
C1602  O1630   1.294   .     A
C1602  C1611   1.455   .     S
C1603  O1631   1.297   .     A
C1603  O1633   1.289   .     A
C1603  C1605   1.430   .     S
C1604  O1632   1.296   .     A
C1604  C1606   1.429   .     S
C1604  O1634   1.290   .     A
C1606  C1669   1.325   .     S
C1606  H1684   1.082   .     S
C1607  C1612   1.415   .     A
C1607  C1635   1.482   .     S
C1608  C1611   1.415   .     A
C1608  C1646   1.482   .     S
C1608  C1226   1.386   1_565 S
C1609  H1621   1.081   .     S
C1609  C1611   1.398   .     A
C1609  C1223   1.387   1_565 S
C1610  H1622   1.080   .     S
C1610  C1612   1.398   .     A
C1613  N1626   1.351   .     A
C1613  H1623   1.083   .     S
C1614  N1625   1.352   .     A
C1614  H1624   1.083   .     S
C1614  C464    1.417   1_556 S
C1615  C1657   1.478   .     S
C1615  N1625   1.395   .     A
C1615  C461    1.417   1_556 S
C1616  N1626   1.394   .     A
C1616  C1661   1.477   .     S
Cu1617 N1625   2.030   .     S
Cu1617 O1630   1.965   .     S
Cu1617 Cu1618  2.701   .     S
Cu1617 O1631   1.963   .     S
Cu1617 O1627   1.970   .     S
Cu1617 O1634   1.956   .     S
Cu1618 N1626   2.030   .     S
Cu1618 O1629   1.965   .     S
Cu1618 O1633   1.956   .     S
Cu1618 O1632   1.963   .     S
Cu1618 O1628   1.970   .     S
H1619  C1669   1.083   .     S
C1635  C1640   1.405   .     A
C1635  C1636   1.404   .     A
C1636  H1641   1.083   .     S
C1636  C1637   1.398   .     A
C1637  C1638   1.397   .     A
C1638  C1639   1.398   .     A
C1639  H1644   1.082   .     S
C1639  C1640   1.399   .     A
C1640  H1645   1.083   .     S
H1642  C485    1.081   1_556 S
H1643  C486    1.083   1_556 S
C1646  C1647   1.405   .     A
C1646  C1651   1.404   .     A
C1647  H1652   1.083   .     S
C1647  C1648   1.399   .     A
C1648  H1653   1.082   .     S
C1648  C1649   1.397   .     A
C1649  C1650   1.397   .     A
C1649  H502    1.081   1_556 S
C1650  C1651   1.398   .     A
C1650  H503    1.081   1_556 S
C1651  H1656   1.083   .     S
C1657  O1658   1.224   .     D
C1657  O1659   1.392   .     S
O1659  H1660   1.014   .     S
C1661  O1662   1.218   .     D
C1661  O1663   1.399   .     S
O1663  H1664   1.014   .     S
C1665  O1693   1.294   .     A
C1665  C1676   1.455   .     S
C1665  O1691   1.304   .     A
C1666  O1692   1.304   .     A
C1666  O1694   1.294   .     A
C1666  C1675   1.455   .     S
C1667  O1695   1.297   .     A
C1667  O1697   1.289   .     A
C1667  C1669   1.430   .     S
C1668  O1696   1.296   .     A
C1668  C1670   1.429   .     S
C1668  O1698   1.290   .     A
C1670  C1541   1.325   1_655 S
C1670  H1556   1.082   1_655 S
C1671  C1676   1.415   .     A
C1671  C1699   1.482   .     S
C1672  C1675   1.415   .     A
C1672  C1710   1.482   .     S
C1672  C1290   1.386   1_565 S
C1673  H1685   1.081   .     S
C1673  C1675   1.398   .     A
C1673  C1287   1.387   1_565 S
C1674  H1686   1.080   .     S
C1674  C1676   1.398   .     A
C1677  N1690   1.351   .     A
C1677  H1687   1.083   .     S
C1678  N1689   1.352   .     A
C1678  H1688   1.083   .     S
C1678  C528    1.417   1_556 S
C1679  C1721   1.478   .     S
C1679  N1689   1.395   .     A
C1679  C525    1.417   1_556 S
C1680  N1690   1.394   .     A
C1680  C1725   1.477   .     S
Cu1681 N1689   2.030   .     S
Cu1681 O1694   1.965   .     S
Cu1681 Cu1682  2.701   .     S
Cu1681 O1695   1.963   .     S
Cu1681 O1691   1.970   .     S
Cu1681 O1698   1.956   .     S
Cu1682 N1690   2.030   .     S
Cu1682 O1693   1.965   .     S
Cu1682 O1697   1.956   .     S
Cu1682 O1696   1.963   .     S
Cu1682 O1692   1.970   .     S
H1683  C1541   1.083   1_655 S
C1699  C1704   1.405   .     A
C1699  C1700   1.404   .     A
C1700  H1705   1.083   .     S
C1700  C1701   1.398   .     A
C1701  C1702   1.397   .     A
C1702  C1703   1.398   .     A
C1703  H1708   1.082   .     S
C1703  C1704   1.399   .     A
C1704  H1709   1.083   .     S
H1706  C549    1.081   1_556 S
H1707  C550    1.083   1_556 S
C1710  C1711   1.405   .     A
C1710  C1715   1.404   .     A
C1711  H1716   1.083   .     S
C1711  C1712   1.399   .     A
C1712  H1717   1.082   .     S
C1712  C1713   1.397   .     A
C1713  C1714   1.397   .     A
C1713  H566    1.081   1_556 S
C1714  C1715   1.398   .     A
C1714  H567    1.081   1_556 S
C1715  H1720   1.083   .     S
C1721  O1722   1.224   .     D
C1721  O1723   1.392   .     S
O1723  H1724   1.014   .     S
C1725  O1726   1.218   .     D
C1725  O1727   1.399   .     S
O1727  H1728   1.014   .     S
