data_str_m2_o1_o16_pcu_sym.175
_audit_creation_date              2020-01-03
_audit_creation_method            'Materials Studio'
_symmetry_space_group_name_H-M    'P1'
_symmetry_Int_Tables_number       1
_symmetry_cell_setting            triclinic
loop_
_symmetry_equiv_pos_as_xyz
  x,y,z
_cell_length_a                    28.6277
_cell_length_b                    32.4186
_cell_length_c                    26.6990
_cell_angle_alpha                 90.7820
_cell_angle_beta                  72.5557
_cell_angle_gamma                 90.2188
loop_
_atom_site_label
_atom_site_type_symbol
_atom_site_fract_x
_atom_site_fract_y
_atom_site_fract_z
_atom_site_U_iso_or_equiv
_atom_site_adp_type
_atom_site_occupancy
C1     C     0.16707   0.24593   0.24898   0.00000  Uiso   1.00
C2     C     0.14338   0.15464   0.49042   0.00000  Uiso   1.00
C3     C     0.15518   0.14591   0.43603   0.00000  Uiso   1.00
C4     C     0.18007   0.14923   0.01573   0.00000  Uiso   1.00
C5     C     0.22324   0.12618   0.49021   0.00000  Uiso   1.00
C6     C     0.22976   0.11070   0.43880   0.00000  Uiso   1.00
C7     C     0.19605   0.12055   0.41239   0.00000  Uiso   1.00
C8     C     0.17605   0.16788   0.06481   0.00000  Uiso   1.00
C9     C     0.24932   0.13324   0.06890   0.00000  Uiso   1.00
C10    C     0.12411   0.16113   0.40779   0.00000  Uiso   1.00
C11    C     0.20990   0.31214   0.21881   0.00000  Uiso   1.00
C12    C     0.14042   0.16442   0.35014   0.00000  Uiso   1.00
C13    C     0.20953   0.02167   0.21965   0.00000  Uiso   1.00
C14    C     0.16718   0.04296   0.24804   0.00000  Uiso   1.00
C15    C     0.12500   0.02164   0.27530   0.00000  Uiso   1.00
C16    C     0.12522   0.31233   0.27553   0.00000  Uiso   1.00
C17    C     0.16763   0.29063   0.24765   0.00000  Uiso   1.00
C18    C     0.29952   0.19230   0.28302   0.00000  Uiso   1.00
C19    C     0.01568   0.19217   0.28313   0.00000  Uiso   1.00
C20    C     0.03317   0.14071   0.21713   0.00000  Uiso   1.00
C21    C     0.31713   0.14100   0.21729   0.00000  Uiso   1.00
C22    C     0.16681   0.08747   0.24932   0.00000  Uiso   1.00
C23    C     0.19293   0.16551   0.14979   0.00000  Uiso   1.00
C24    C     0.25794   0.11909   0.01744   0.00000  Uiso   1.00
C25    C     0.20786   0.15710   0.09307   0.00000  Uiso   1.00
C26    C     0.07755   0.17630   0.43545   0.00000  Uiso   1.00
C27    C     0.06217   0.17708   0.48991   0.00000  Uiso   1.00
C28    C     0.09444   0.16634   0.01757   0.00000  Uiso   1.00
Cu29   Cu    0.11978   0.16666   0.25000   0.00000  Uiso   1.00
Cu30   Cu    0.21355   0.16667   0.25000   0.00000  Uiso   1.00
H31    H     0.09223   0.03806   0.29742   0.00000  Uiso   1.00
H32    H     0.30524   0.12043   0.19128   0.00000  Uiso   1.00
H33    H     0.05270   0.18723   0.41490   0.00000  Uiso   1.00
N34    N     0.04931   0.16666   0.24999   0.00000  Uiso   1.00
N35    N     0.28402   0.16669   0.25000   0.00000  Uiso   1.00
O36    O     0.12708   0.22678   0.25001   0.00000  Uiso   1.00
O37    O     0.20627   0.22679   0.25001   0.00000  Uiso   1.00
O38    O     0.10775   0.16665   0.32549   0.00000  Uiso   1.00
O39    O     0.18694   0.16666   0.32549   0.00000  Uiso   1.00
O40    O     0.12706   0.10654   0.25000   0.00000  Uiso   1.00
O41    O     0.20625   0.10655   0.25000   0.00000  Uiso   1.00
O42    O     0.14640   0.16667   0.17451   0.00000  Uiso   1.00
O43    O     0.22559   0.16668   0.17451   0.00000  Uiso   1.00
F44    F     0.28116   0.12266   0.09539   0.00000  Uiso   1.00
F45    F     0.24990   0.04255   0.19140   0.00000  Uiso   1.00
F46    F     0.08438   0.29237   0.30422   0.00000  Uiso   1.00
F47    F     0.26724   0.21816   0.31620   0.00000  Uiso   1.00
F48    F     0.02958   0.21753   0.31682   0.00000  Uiso   1.00
Br49   Br    0.07487   0.10183   0.16987   0.00000  Uiso   1.00
Br50   Br    0.28387   0.07612   0.40077   0.00000  Uiso   1.00
F51    F     0.29978   0.09754   0.49582   0.00000  Uiso   1.00
F52    F     0.14394   0.19917   0.08402   0.00000  Uiso   1.00
F53    F     0.07567   0.16305   0.07043   0.00000  Uiso   1.00
F54    F     0.01581   0.18899   0.01614   0.00000  Uiso   1.00
F55    F     0.20070   0.10120   0.36569   0.00000  Uiso   1.00
Br56   Br    0.26782   0.28498   0.17495   0.00000  Uiso   1.00
C57    C     0.50041   0.24593   0.24898   0.00000  Uiso   1.00
C58    C     0.47671   0.15464   0.49042   0.00000  Uiso   1.00
C59    C     0.48851   0.14591   0.43603   0.00000  Uiso   1.00
C60    C     0.51340   0.14923   0.01573   0.00000  Uiso   1.00
C61    C     0.55657   0.12618   0.49021   0.00000  Uiso   1.00
C62    C     0.56309   0.11070   0.43880   0.00000  Uiso   1.00
C63    C     0.52939   0.12055   0.41239   0.00000  Uiso   1.00
C64    C     0.50938   0.16788   0.06481   0.00000  Uiso   1.00
C65    C     0.58265   0.13324   0.06890   0.00000  Uiso   1.00
C66    C     0.45744   0.16113   0.40779   0.00000  Uiso   1.00
C67    C     0.54323   0.31214   0.21881   0.00000  Uiso   1.00
C68    C     0.47376   0.16442   0.35014   0.00000  Uiso   1.00
C69    C     0.54287   0.02167   0.21965   0.00000  Uiso   1.00
C70    C     0.50051   0.04296   0.24804   0.00000  Uiso   1.00
C71    C     0.45833   0.02164   0.27530   0.00000  Uiso   1.00
C72    C     0.45855   0.31233   0.27553   0.00000  Uiso   1.00
C73    C     0.50096   0.29063   0.24765   0.00000  Uiso   1.00
C74    C     0.63285   0.19230   0.28302   0.00000  Uiso   1.00
C75    C     0.34901   0.19217   0.28313   0.00000  Uiso   1.00
C76    C     0.36651   0.14071   0.21713   0.00000  Uiso   1.00
C77    C     0.65046   0.14100   0.21729   0.00000  Uiso   1.00
C78    C     0.50014   0.08747   0.24932   0.00000  Uiso   1.00
C79    C     0.52626   0.16551   0.14979   0.00000  Uiso   1.00
C80    C     0.59127   0.11909   0.01744   0.00000  Uiso   1.00
C81    C     0.54119   0.15710   0.09307   0.00000  Uiso   1.00
C82    C     0.41088   0.17630   0.43545   0.00000  Uiso   1.00
C83    C     0.39550   0.17708   0.48991   0.00000  Uiso   1.00
C84    C     0.42777   0.16634   0.01757   0.00000  Uiso   1.00
Cu85   Cu    0.45311   0.16666   0.25000   0.00000  Uiso   1.00
Cu86   Cu    0.54689   0.16667   0.25000   0.00000  Uiso   1.00
H87    H     0.42557   0.03806   0.29742   0.00000  Uiso   1.00
H88    H     0.63857   0.12043   0.19128   0.00000  Uiso   1.00
H89    H     0.38604   0.18723   0.41490   0.00000  Uiso   1.00
N90    N     0.38265   0.16666   0.24999   0.00000  Uiso   1.00
N91    N     0.61735   0.16669   0.25000   0.00000  Uiso   1.00
O92    O     0.46042   0.22678   0.25001   0.00000  Uiso   1.00
O93    O     0.53961   0.22679   0.25001   0.00000  Uiso   1.00
O94    O     0.44108   0.16665   0.32549   0.00000  Uiso   1.00
O95    O     0.52027   0.16666   0.32549   0.00000  Uiso   1.00
O96    O     0.46039   0.10654   0.25000   0.00000  Uiso   1.00
O97    O     0.53958   0.10655   0.25000   0.00000  Uiso   1.00
O98    O     0.47973   0.16667   0.17451   0.00000  Uiso   1.00
O99    O     0.55892   0.16668   0.17451   0.00000  Uiso   1.00
F100   F     0.61450   0.12266   0.09539   0.00000  Uiso   1.00
F101   F     0.58324   0.04255   0.19140   0.00000  Uiso   1.00
F102   F     0.41771   0.29237   0.30422   0.00000  Uiso   1.00
F103   F     0.60057   0.21816   0.31620   0.00000  Uiso   1.00
F104   F     0.36291   0.21753   0.31682   0.00000  Uiso   1.00
Br105  Br    0.40820   0.10183   0.16987   0.00000  Uiso   1.00
Br106  Br    0.61720   0.07612   0.40077   0.00000  Uiso   1.00
F107   F     0.63311   0.09754   0.49582   0.00000  Uiso   1.00
F108   F     0.47727   0.19917   0.08402   0.00000  Uiso   1.00
F109   F     0.40900   0.16305   0.07043   0.00000  Uiso   1.00
F110   F     0.34914   0.18899   0.01614   0.00000  Uiso   1.00
F111   F     0.53403   0.10120   0.36569   0.00000  Uiso   1.00
Br112  Br    0.60116   0.28498   0.17495   0.00000  Uiso   1.00
C113   C     0.83374   0.24593   0.24898   0.00000  Uiso   1.00
C114   C     0.81004   0.15464   0.49042   0.00000  Uiso   1.00
C115   C     0.82185   0.14591   0.43603   0.00000  Uiso   1.00
C116   C     0.84673   0.14923   0.01573   0.00000  Uiso   1.00
C117   C     0.88990   0.12618   0.49021   0.00000  Uiso   1.00
C118   C     0.89643   0.11070   0.43880   0.00000  Uiso   1.00
C119   C     0.86272   0.12055   0.41239   0.00000  Uiso   1.00
C120   C     0.84271   0.16788   0.06481   0.00000  Uiso   1.00
C121   C     0.91598   0.13324   0.06890   0.00000  Uiso   1.00
C122   C     0.79078   0.16113   0.40779   0.00000  Uiso   1.00
C123   C     0.87656   0.31214   0.21881   0.00000  Uiso   1.00
C124   C     0.80709   0.16442   0.35014   0.00000  Uiso   1.00
C125   C     0.87620   0.02167   0.21965   0.00000  Uiso   1.00
C126   C     0.83385   0.04296   0.24804   0.00000  Uiso   1.00
C127   C     0.79166   0.02164   0.27530   0.00000  Uiso   1.00
C128   C     0.79188   0.31233   0.27553   0.00000  Uiso   1.00
C129   C     0.83430   0.29063   0.24765   0.00000  Uiso   1.00
C130   C     0.96618   0.19230   0.28302   0.00000  Uiso   1.00
C131   C     0.68235   0.19217   0.28313   0.00000  Uiso   1.00
C132   C     0.69984   0.14071   0.21713   0.00000  Uiso   1.00
C133   C     0.98380   0.14100   0.21729   0.00000  Uiso   1.00
C134   C     0.83347   0.08747   0.24932   0.00000  Uiso   1.00
C135   C     0.85959   0.16551   0.14979   0.00000  Uiso   1.00
C136   C     0.92460   0.11909   0.01744   0.00000  Uiso   1.00
C137   C     0.87453   0.15710   0.09307   0.00000  Uiso   1.00
C138   C     0.74422   0.17630   0.43545   0.00000  Uiso   1.00
C139   C     0.72883   0.17708   0.48991   0.00000  Uiso   1.00
C140   C     0.76110   0.16634   0.01757   0.00000  Uiso   1.00
Cu141  Cu    0.78645   0.16666   0.25000   0.00000  Uiso   1.00
Cu142  Cu    0.88022   0.16667   0.25000   0.00000  Uiso   1.00
H143   H     0.75890   0.03806   0.29742   0.00000  Uiso   1.00
H144   H     0.97190   0.12043   0.19128   0.00000  Uiso   1.00
H145   H     0.71937   0.18723   0.41490   0.00000  Uiso   1.00
N146   N     0.71598   0.16666   0.24999   0.00000  Uiso   1.00
N147   N     0.95069   0.16669   0.25000   0.00000  Uiso   1.00
O148   O     0.79375   0.22678   0.25001   0.00000  Uiso   1.00
O149   O     0.87294   0.22679   0.25001   0.00000  Uiso   1.00
O150   O     0.77441   0.16665   0.32549   0.00000  Uiso   1.00
O151   O     0.85360   0.16666   0.32549   0.00000  Uiso   1.00
O152   O     0.79373   0.10654   0.25000   0.00000  Uiso   1.00
O153   O     0.87292   0.10655   0.25000   0.00000  Uiso   1.00
O154   O     0.81306   0.16667   0.17451   0.00000  Uiso   1.00
O155   O     0.89225   0.16668   0.17451   0.00000  Uiso   1.00
F156   F     0.94783   0.12266   0.09539   0.00000  Uiso   1.00
F157   F     0.91657   0.04255   0.19140   0.00000  Uiso   1.00
F158   F     0.75104   0.29237   0.30422   0.00000  Uiso   1.00
F159   F     0.93391   0.21816   0.31620   0.00000  Uiso   1.00
F160   F     0.69624   0.21753   0.31682   0.00000  Uiso   1.00
Br161  Br    0.74153   0.10183   0.16987   0.00000  Uiso   1.00
Br162  Br    0.95053   0.07612   0.40077   0.00000  Uiso   1.00
F163   F     0.96645   0.09754   0.49582   0.00000  Uiso   1.00
F164   F     0.81060   0.19917   0.08402   0.00000  Uiso   1.00
F165   F     0.74234   0.16305   0.07043   0.00000  Uiso   1.00
F166   F     0.68248   0.18899   0.01614   0.00000  Uiso   1.00
F167   F     0.86736   0.10120   0.36569   0.00000  Uiso   1.00
Br168  Br    0.93449   0.28498   0.17495   0.00000  Uiso   1.00
C169   C     0.16707   0.57927   0.24898   0.00000  Uiso   1.00
C170   C     0.14338   0.48797   0.49042   0.00000  Uiso   1.00
C171   C     0.15518   0.47924   0.43603   0.00000  Uiso   1.00
C172   C     0.18007   0.48256   0.01573   0.00000  Uiso   1.00
C173   C     0.22324   0.45951   0.49021   0.00000  Uiso   1.00
C174   C     0.22976   0.44403   0.43880   0.00000  Uiso   1.00
C175   C     0.19605   0.45388   0.41239   0.00000  Uiso   1.00
C176   C     0.17605   0.50121   0.06481   0.00000  Uiso   1.00
C177   C     0.24932   0.46657   0.06890   0.00000  Uiso   1.00
C178   C     0.12411   0.49446   0.40779   0.00000  Uiso   1.00
C179   C     0.20990   0.64548   0.21881   0.00000  Uiso   1.00
C180   C     0.14042   0.49775   0.35014   0.00000  Uiso   1.00
C181   C     0.20953   0.35501   0.21965   0.00000  Uiso   1.00
C182   C     0.16718   0.37629   0.24804   0.00000  Uiso   1.00
C183   C     0.12500   0.35497   0.27530   0.00000  Uiso   1.00
C184   C     0.12522   0.64566   0.27553   0.00000  Uiso   1.00
C185   C     0.16763   0.62396   0.24765   0.00000  Uiso   1.00
C186   C     0.29952   0.52563   0.28302   0.00000  Uiso   1.00
C187   C     0.01568   0.52551   0.28313   0.00000  Uiso   1.00
C188   C     0.03317   0.47404   0.21713   0.00000  Uiso   1.00
C189   C     0.31713   0.47434   0.21729   0.00000  Uiso   1.00
C190   C     0.16681   0.42080   0.24932   0.00000  Uiso   1.00
C191   C     0.19293   0.49884   0.14979   0.00000  Uiso   1.00
C192   C     0.25794   0.45242   0.01744   0.00000  Uiso   1.00
C193   C     0.20786   0.49043   0.09307   0.00000  Uiso   1.00
C194   C     0.07755   0.50964   0.43545   0.00000  Uiso   1.00
C195   C     0.06217   0.51041   0.48991   0.00000  Uiso   1.00
C196   C     0.09444   0.49967   0.01757   0.00000  Uiso   1.00
Cu197  Cu    0.11978   0.49999   0.25000   0.00000  Uiso   1.00
Cu198  Cu    0.21355   0.50001   0.25000   0.00000  Uiso   1.00
H199   H     0.09223   0.37139   0.29742   0.00000  Uiso   1.00
H200   H     0.30524   0.45377   0.19128   0.00000  Uiso   1.00
H201   H     0.05270   0.52056   0.41490   0.00000  Uiso   1.00
N202   N     0.04931   0.49999   0.24999   0.00000  Uiso   1.00
N203   N     0.28402   0.50002   0.25000   0.00000  Uiso   1.00
O204   O     0.12708   0.56011   0.25001   0.00000  Uiso   1.00
O205   O     0.20627   0.56012   0.25001   0.00000  Uiso   1.00
O206   O     0.10775   0.49998   0.32549   0.00000  Uiso   1.00
O207   O     0.18694   0.49999   0.32549   0.00000  Uiso   1.00
O208   O     0.12706   0.43988   0.25000   0.00000  Uiso   1.00
O209   O     0.20625   0.43989   0.25000   0.00000  Uiso   1.00
O210   O     0.14640   0.50001   0.17451   0.00000  Uiso   1.00
O211   O     0.22559   0.50002   0.17451   0.00000  Uiso   1.00
F212   F     0.28116   0.45599   0.09539   0.00000  Uiso   1.00
F213   F     0.24990   0.37588   0.19140   0.00000  Uiso   1.00
F214   F     0.08438   0.62570   0.30422   0.00000  Uiso   1.00
F215   F     0.26724   0.55150   0.31620   0.00000  Uiso   1.00
F216   F     0.02958   0.55086   0.31682   0.00000  Uiso   1.00
Br217  Br    0.07487   0.43516   0.16987   0.00000  Uiso   1.00
Br218  Br    0.28387   0.40946   0.40077   0.00000  Uiso   1.00
F219   F     0.29978   0.43088   0.49582   0.00000  Uiso   1.00
F220   F     0.14394   0.53251   0.08402   0.00000  Uiso   1.00
F221   F     0.07567   0.49639   0.07043   0.00000  Uiso   1.00
F222   F     0.01581   0.52232   0.01614   0.00000  Uiso   1.00
F223   F     0.20070   0.43453   0.36569   0.00000  Uiso   1.00
Br224  Br    0.26782   0.61831   0.17495   0.00000  Uiso   1.00
C225   C     0.50041   0.57927   0.24898   0.00000  Uiso   1.00
C226   C     0.47671   0.48797   0.49042   0.00000  Uiso   1.00
C227   C     0.48851   0.47924   0.43603   0.00000  Uiso   1.00
C228   C     0.51340   0.48256   0.01573   0.00000  Uiso   1.00
C229   C     0.55657   0.45951   0.49021   0.00000  Uiso   1.00
C230   C     0.56309   0.44403   0.43880   0.00000  Uiso   1.00
C231   C     0.52939   0.45388   0.41239   0.00000  Uiso   1.00
C232   C     0.50938   0.50121   0.06481   0.00000  Uiso   1.00
C233   C     0.58265   0.46657   0.06890   0.00000  Uiso   1.00
C234   C     0.45744   0.49446   0.40779   0.00000  Uiso   1.00
C235   C     0.54323   0.64548   0.21881   0.00000  Uiso   1.00
C236   C     0.47376   0.49775   0.35014   0.00000  Uiso   1.00
C237   C     0.54287   0.35501   0.21965   0.00000  Uiso   1.00
C238   C     0.50051   0.37629   0.24804   0.00000  Uiso   1.00
C239   C     0.45833   0.35497   0.27530   0.00000  Uiso   1.00
C240   C     0.45855   0.64566   0.27553   0.00000  Uiso   1.00
C241   C     0.50096   0.62396   0.24765   0.00000  Uiso   1.00
C242   C     0.63285   0.52563   0.28302   0.00000  Uiso   1.00
C243   C     0.34901   0.52551   0.28313   0.00000  Uiso   1.00
C244   C     0.36651   0.47404   0.21713   0.00000  Uiso   1.00
C245   C     0.65046   0.47434   0.21729   0.00000  Uiso   1.00
C246   C     0.50014   0.42080   0.24932   0.00000  Uiso   1.00
C247   C     0.52626   0.49884   0.14979   0.00000  Uiso   1.00
C248   C     0.59127   0.45242   0.01744   0.00000  Uiso   1.00
C249   C     0.54119   0.49043   0.09307   0.00000  Uiso   1.00
C250   C     0.41088   0.50964   0.43545   0.00000  Uiso   1.00
C251   C     0.39550   0.51041   0.48991   0.00000  Uiso   1.00
C252   C     0.42777   0.49967   0.01757   0.00000  Uiso   1.00
Cu253  Cu    0.45311   0.49999   0.25000   0.00000  Uiso   1.00
Cu254  Cu    0.54689   0.50001   0.25000   0.00000  Uiso   1.00
H255   H     0.42557   0.37139   0.29742   0.00000  Uiso   1.00
H256   H     0.63857   0.45377   0.19128   0.00000  Uiso   1.00
H257   H     0.38604   0.52056   0.41490   0.00000  Uiso   1.00
N258   N     0.38265   0.49999   0.24999   0.00000  Uiso   1.00
N259   N     0.61735   0.50002   0.25000   0.00000  Uiso   1.00
O260   O     0.46042   0.56011   0.25001   0.00000  Uiso   1.00
O261   O     0.53961   0.56012   0.25001   0.00000  Uiso   1.00
O262   O     0.44108   0.49998   0.32549   0.00000  Uiso   1.00
O263   O     0.52027   0.49999   0.32549   0.00000  Uiso   1.00
O264   O     0.46039   0.43988   0.25000   0.00000  Uiso   1.00
O265   O     0.53958   0.43989   0.25000   0.00000  Uiso   1.00
O266   O     0.47973   0.50001   0.17451   0.00000  Uiso   1.00
O267   O     0.55892   0.50002   0.17451   0.00000  Uiso   1.00
F268   F     0.61450   0.45599   0.09539   0.00000  Uiso   1.00
F269   F     0.58324   0.37588   0.19140   0.00000  Uiso   1.00
F270   F     0.41771   0.62570   0.30422   0.00000  Uiso   1.00
F271   F     0.60057   0.55150   0.31620   0.00000  Uiso   1.00
F272   F     0.36291   0.55086   0.31682   0.00000  Uiso   1.00
Br273  Br    0.40820   0.43516   0.16987   0.00000  Uiso   1.00
Br274  Br    0.61720   0.40946   0.40077   0.00000  Uiso   1.00
F275   F     0.63311   0.43088   0.49582   0.00000  Uiso   1.00
F276   F     0.47727   0.53251   0.08402   0.00000  Uiso   1.00
F277   F     0.40900   0.49639   0.07043   0.00000  Uiso   1.00
F278   F     0.34914   0.52232   0.01614   0.00000  Uiso   1.00
F279   F     0.53403   0.43453   0.36569   0.00000  Uiso   1.00
Br280  Br    0.60116   0.61831   0.17495   0.00000  Uiso   1.00
C281   C     0.83374   0.57927   0.24898   0.00000  Uiso   1.00
C282   C     0.81004   0.48797   0.49042   0.00000  Uiso   1.00
C283   C     0.82185   0.47924   0.43603   0.00000  Uiso   1.00
C284   C     0.84673   0.48256   0.01573   0.00000  Uiso   1.00
C285   C     0.88990   0.45951   0.49021   0.00000  Uiso   1.00
C286   C     0.89643   0.44403   0.43880   0.00000  Uiso   1.00
C287   C     0.86272   0.45388   0.41239   0.00000  Uiso   1.00
C288   C     0.84271   0.50121   0.06481   0.00000  Uiso   1.00
C289   C     0.91598   0.46657   0.06890   0.00000  Uiso   1.00
C290   C     0.79078   0.49446   0.40779   0.00000  Uiso   1.00
C291   C     0.87656   0.64548   0.21881   0.00000  Uiso   1.00
C292   C     0.80709   0.49775   0.35014   0.00000  Uiso   1.00
C293   C     0.87620   0.35501   0.21965   0.00000  Uiso   1.00
C294   C     0.83385   0.37629   0.24804   0.00000  Uiso   1.00
C295   C     0.79166   0.35497   0.27530   0.00000  Uiso   1.00
C296   C     0.79188   0.64566   0.27553   0.00000  Uiso   1.00
C297   C     0.83430   0.62396   0.24765   0.00000  Uiso   1.00
C298   C     0.96618   0.52563   0.28302   0.00000  Uiso   1.00
C299   C     0.68235   0.52551   0.28313   0.00000  Uiso   1.00
C300   C     0.69984   0.47404   0.21713   0.00000  Uiso   1.00
C301   C     0.98380   0.47434   0.21729   0.00000  Uiso   1.00
C302   C     0.83347   0.42080   0.24932   0.00000  Uiso   1.00
C303   C     0.85959   0.49884   0.14979   0.00000  Uiso   1.00
C304   C     0.92460   0.45242   0.01744   0.00000  Uiso   1.00
C305   C     0.87453   0.49043   0.09307   0.00000  Uiso   1.00
C306   C     0.74422   0.50964   0.43545   0.00000  Uiso   1.00
C307   C     0.72883   0.51041   0.48991   0.00000  Uiso   1.00
C308   C     0.76110   0.49967   0.01757   0.00000  Uiso   1.00
Cu309  Cu    0.78645   0.49999   0.25000   0.00000  Uiso   1.00
Cu310  Cu    0.88022   0.50001   0.25000   0.00000  Uiso   1.00
H311   H     0.75890   0.37139   0.29742   0.00000  Uiso   1.00
H312   H     0.97190   0.45377   0.19128   0.00000  Uiso   1.00
H313   H     0.71937   0.52056   0.41490   0.00000  Uiso   1.00
N314   N     0.71598   0.49999   0.24999   0.00000  Uiso   1.00
N315   N     0.95069   0.50002   0.25000   0.00000  Uiso   1.00
O316   O     0.79375   0.56011   0.25001   0.00000  Uiso   1.00
O317   O     0.87294   0.56012   0.25001   0.00000  Uiso   1.00
O318   O     0.77441   0.49998   0.32549   0.00000  Uiso   1.00
O319   O     0.85360   0.49999   0.32549   0.00000  Uiso   1.00
O320   O     0.79373   0.43988   0.25000   0.00000  Uiso   1.00
O321   O     0.87292   0.43989   0.25000   0.00000  Uiso   1.00
O322   O     0.81306   0.50001   0.17451   0.00000  Uiso   1.00
O323   O     0.89225   0.50002   0.17451   0.00000  Uiso   1.00
F324   F     0.94783   0.45599   0.09539   0.00000  Uiso   1.00
F325   F     0.91657   0.37588   0.19140   0.00000  Uiso   1.00
F326   F     0.75104   0.62570   0.30422   0.00000  Uiso   1.00
F327   F     0.93391   0.55150   0.31620   0.00000  Uiso   1.00
F328   F     0.69624   0.55086   0.31682   0.00000  Uiso   1.00
Br329  Br    0.74153   0.43516   0.16987   0.00000  Uiso   1.00
Br330  Br    0.95053   0.40946   0.40077   0.00000  Uiso   1.00
F331   F     0.96645   0.43088   0.49582   0.00000  Uiso   1.00
F332   F     0.81060   0.53251   0.08402   0.00000  Uiso   1.00
F333   F     0.74234   0.49639   0.07043   0.00000  Uiso   1.00
F334   F     0.68248   0.52232   0.01614   0.00000  Uiso   1.00
F335   F     0.86736   0.43453   0.36569   0.00000  Uiso   1.00
Br336  Br    0.93449   0.61831   0.17495   0.00000  Uiso   1.00
C337   C     0.16707   0.91260   0.24898   0.00000  Uiso   1.00
C338   C     0.14338   0.82131   0.49042   0.00000  Uiso   1.00
C339   C     0.15518   0.81257   0.43603   0.00000  Uiso   1.00
C340   C     0.18007   0.81590   0.01573   0.00000  Uiso   1.00
C341   C     0.22324   0.79284   0.49021   0.00000  Uiso   1.00
C342   C     0.22976   0.77737   0.43880   0.00000  Uiso   1.00
C343   C     0.19605   0.78721   0.41239   0.00000  Uiso   1.00
C344   C     0.17605   0.83454   0.06481   0.00000  Uiso   1.00
C345   C     0.24932   0.79990   0.06890   0.00000  Uiso   1.00
C346   C     0.12411   0.82780   0.40779   0.00000  Uiso   1.00
C347   C     0.20990   0.97881   0.21881   0.00000  Uiso   1.00
C348   C     0.14042   0.83108   0.35014   0.00000  Uiso   1.00
C349   C     0.20953   0.68834   0.21965   0.00000  Uiso   1.00
C350   C     0.16718   0.70963   0.24804   0.00000  Uiso   1.00
C351   C     0.12500   0.68831   0.27530   0.00000  Uiso   1.00
C352   C     0.12522   0.97899   0.27553   0.00000  Uiso   1.00
C353   C     0.16763   0.95730   0.24765   0.00000  Uiso   1.00
C354   C     0.29952   0.85896   0.28302   0.00000  Uiso   1.00
C355   C     0.01568   0.85884   0.28313   0.00000  Uiso   1.00
C356   C     0.03317   0.80738   0.21713   0.00000  Uiso   1.00
C357   C     0.31713   0.80767   0.21729   0.00000  Uiso   1.00
C358   C     0.16681   0.75413   0.24932   0.00000  Uiso   1.00
C359   C     0.19293   0.83217   0.14979   0.00000  Uiso   1.00
C360   C     0.25794   0.78575   0.01744   0.00000  Uiso   1.00
C361   C     0.20786   0.82376   0.09307   0.00000  Uiso   1.00
C362   C     0.07755   0.84297   0.43545   0.00000  Uiso   1.00
C363   C     0.06217   0.84375   0.48991   0.00000  Uiso   1.00
C364   C     0.09444   0.83301   0.01757   0.00000  Uiso   1.00
Cu365  Cu    0.11978   0.83333   0.25000   0.00000  Uiso   1.00
Cu366  Cu    0.21355   0.83334   0.25000   0.00000  Uiso   1.00
H367   H     0.09223   0.70472   0.29742   0.00000  Uiso   1.00
H368   H     0.30524   0.78710   0.19128   0.00000  Uiso   1.00
H369   H     0.05270   0.85390   0.41490   0.00000  Uiso   1.00
N370   N     0.04931   0.83332   0.24999   0.00000  Uiso   1.00
N371   N     0.28402   0.83335   0.25000   0.00000  Uiso   1.00
O372   O     0.12708   0.89345   0.25001   0.00000  Uiso   1.00
O373   O     0.20627   0.89346   0.25001   0.00000  Uiso   1.00
O374   O     0.10775   0.83332   0.32549   0.00000  Uiso   1.00
O375   O     0.18694   0.83333   0.32549   0.00000  Uiso   1.00
O376   O     0.12706   0.77321   0.25000   0.00000  Uiso   1.00
O377   O     0.20625   0.77322   0.25000   0.00000  Uiso   1.00
O378   O     0.14640   0.83334   0.17451   0.00000  Uiso   1.00
O379   O     0.22559   0.83335   0.17451   0.00000  Uiso   1.00
F380   F     0.28116   0.78932   0.09539   0.00000  Uiso   1.00
F381   F     0.24990   0.70922   0.19140   0.00000  Uiso   1.00
F382   F     0.08438   0.95903   0.30422   0.00000  Uiso   1.00
F383   F     0.26724   0.88483   0.31620   0.00000  Uiso   1.00
F384   F     0.02958   0.88419   0.31682   0.00000  Uiso   1.00
Br385  Br    0.07487   0.76850   0.16987   0.00000  Uiso   1.00
Br386  Br    0.28387   0.74279   0.40077   0.00000  Uiso   1.00
F387   F     0.29978   0.76421   0.49582   0.00000  Uiso   1.00
F388   F     0.14394   0.86584   0.08402   0.00000  Uiso   1.00
F389   F     0.07567   0.82972   0.07043   0.00000  Uiso   1.00
F390   F     0.01581   0.85565   0.01614   0.00000  Uiso   1.00
F391   F     0.20070   0.76787   0.36569   0.00000  Uiso   1.00
Br392  Br    0.26782   0.95165   0.17495   0.00000  Uiso   1.00
C393   C     0.50041   0.91260   0.24898   0.00000  Uiso   1.00
C394   C     0.47671   0.82131   0.49042   0.00000  Uiso   1.00
C395   C     0.48851   0.81257   0.43603   0.00000  Uiso   1.00
C396   C     0.51340   0.81590   0.01573   0.00000  Uiso   1.00
C397   C     0.55657   0.79284   0.49021   0.00000  Uiso   1.00
C398   C     0.56309   0.77737   0.43880   0.00000  Uiso   1.00
C399   C     0.52939   0.78721   0.41239   0.00000  Uiso   1.00
C400   C     0.50938   0.83454   0.06481   0.00000  Uiso   1.00
C401   C     0.58265   0.79990   0.06890   0.00000  Uiso   1.00
C402   C     0.45744   0.82780   0.40779   0.00000  Uiso   1.00
C403   C     0.54323   0.97881   0.21881   0.00000  Uiso   1.00
C404   C     0.47376   0.83108   0.35014   0.00000  Uiso   1.00
C405   C     0.54287   0.68834   0.21965   0.00000  Uiso   1.00
C406   C     0.50051   0.70963   0.24804   0.00000  Uiso   1.00
C407   C     0.45833   0.68831   0.27530   0.00000  Uiso   1.00
C408   C     0.45855   0.97899   0.27553   0.00000  Uiso   1.00
C409   C     0.50096   0.95730   0.24765   0.00000  Uiso   1.00
C410   C     0.63285   0.85896   0.28302   0.00000  Uiso   1.00
C411   C     0.34901   0.85884   0.28313   0.00000  Uiso   1.00
C412   C     0.36651   0.80738   0.21713   0.00000  Uiso   1.00
C413   C     0.65046   0.80767   0.21729   0.00000  Uiso   1.00
C414   C     0.50014   0.75413   0.24932   0.00000  Uiso   1.00
C415   C     0.52626   0.83217   0.14979   0.00000  Uiso   1.00
C416   C     0.59127   0.78575   0.01744   0.00000  Uiso   1.00
C417   C     0.54119   0.82376   0.09307   0.00000  Uiso   1.00
C418   C     0.41088   0.84297   0.43545   0.00000  Uiso   1.00
C419   C     0.39550   0.84375   0.48991   0.00000  Uiso   1.00
C420   C     0.42777   0.83301   0.01757   0.00000  Uiso   1.00
Cu421  Cu    0.45311   0.83333   0.25000   0.00000  Uiso   1.00
Cu422  Cu    0.54689   0.83334   0.25000   0.00000  Uiso   1.00
H423   H     0.42557   0.70472   0.29742   0.00000  Uiso   1.00
H424   H     0.63857   0.78710   0.19128   0.00000  Uiso   1.00
H425   H     0.38604   0.85390   0.41490   0.00000  Uiso   1.00
N426   N     0.38265   0.83332   0.24999   0.00000  Uiso   1.00
N427   N     0.61735   0.83335   0.25000   0.00000  Uiso   1.00
O428   O     0.46042   0.89345   0.25001   0.00000  Uiso   1.00
O429   O     0.53961   0.89346   0.25001   0.00000  Uiso   1.00
O430   O     0.44108   0.83332   0.32549   0.00000  Uiso   1.00
O431   O     0.52027   0.83333   0.32549   0.00000  Uiso   1.00
O432   O     0.46039   0.77321   0.25000   0.00000  Uiso   1.00
O433   O     0.53958   0.77322   0.25000   0.00000  Uiso   1.00
O434   O     0.47973   0.83334   0.17451   0.00000  Uiso   1.00
O435   O     0.55892   0.83335   0.17451   0.00000  Uiso   1.00
F436   F     0.61450   0.78932   0.09539   0.00000  Uiso   1.00
F437   F     0.58324   0.70922   0.19140   0.00000  Uiso   1.00
F438   F     0.41771   0.95903   0.30422   0.00000  Uiso   1.00
F439   F     0.60057   0.88483   0.31620   0.00000  Uiso   1.00
F440   F     0.36291   0.88419   0.31682   0.00000  Uiso   1.00
Br441  Br    0.40820   0.76850   0.16987   0.00000  Uiso   1.00
Br442  Br    0.61720   0.74279   0.40077   0.00000  Uiso   1.00
F443   F     0.63311   0.76421   0.49582   0.00000  Uiso   1.00
F444   F     0.47727   0.86584   0.08402   0.00000  Uiso   1.00
F445   F     0.40900   0.82972   0.07043   0.00000  Uiso   1.00
F446   F     0.34914   0.85565   0.01614   0.00000  Uiso   1.00
F447   F     0.53403   0.76787   0.36569   0.00000  Uiso   1.00
Br448  Br    0.60116   0.95165   0.17495   0.00000  Uiso   1.00
C449   C     0.83374   0.91260   0.24898   0.00000  Uiso   1.00
C450   C     0.81004   0.82131   0.49042   0.00000  Uiso   1.00
C451   C     0.82185   0.81257   0.43603   0.00000  Uiso   1.00
C452   C     0.84673   0.81590   0.01573   0.00000  Uiso   1.00
C453   C     0.88990   0.79284   0.49021   0.00000  Uiso   1.00
C454   C     0.89643   0.77737   0.43880   0.00000  Uiso   1.00
C455   C     0.86272   0.78721   0.41239   0.00000  Uiso   1.00
C456   C     0.84271   0.83454   0.06481   0.00000  Uiso   1.00
C457   C     0.91598   0.79990   0.06890   0.00000  Uiso   1.00
C458   C     0.79078   0.82780   0.40779   0.00000  Uiso   1.00
C459   C     0.87656   0.97881   0.21881   0.00000  Uiso   1.00
C460   C     0.80709   0.83108   0.35014   0.00000  Uiso   1.00
C461   C     0.87620   0.68834   0.21965   0.00000  Uiso   1.00
C462   C     0.83385   0.70963   0.24804   0.00000  Uiso   1.00
C463   C     0.79166   0.68831   0.27530   0.00000  Uiso   1.00
C464   C     0.79188   0.97899   0.27553   0.00000  Uiso   1.00
C465   C     0.83430   0.95730   0.24765   0.00000  Uiso   1.00
C466   C     0.96618   0.85896   0.28302   0.00000  Uiso   1.00
C467   C     0.68235   0.85884   0.28313   0.00000  Uiso   1.00
C468   C     0.69984   0.80738   0.21713   0.00000  Uiso   1.00
C469   C     0.98380   0.80767   0.21729   0.00000  Uiso   1.00
C470   C     0.83347   0.75413   0.24932   0.00000  Uiso   1.00
C471   C     0.85959   0.83217   0.14979   0.00000  Uiso   1.00
C472   C     0.92460   0.78575   0.01744   0.00000  Uiso   1.00
C473   C     0.87453   0.82376   0.09307   0.00000  Uiso   1.00
C474   C     0.74422   0.84297   0.43545   0.00000  Uiso   1.00
C475   C     0.72883   0.84375   0.48991   0.00000  Uiso   1.00
C476   C     0.76110   0.83301   0.01757   0.00000  Uiso   1.00
Cu477  Cu    0.78645   0.83333   0.25000   0.00000  Uiso   1.00
Cu478  Cu    0.88022   0.83334   0.25000   0.00000  Uiso   1.00
H479   H     0.75890   0.70472   0.29742   0.00000  Uiso   1.00
H480   H     0.97190   0.78710   0.19128   0.00000  Uiso   1.00
H481   H     0.71937   0.85390   0.41490   0.00000  Uiso   1.00
N482   N     0.71598   0.83332   0.24999   0.00000  Uiso   1.00
N483   N     0.95069   0.83335   0.25000   0.00000  Uiso   1.00
O484   O     0.79375   0.89345   0.25001   0.00000  Uiso   1.00
O485   O     0.87294   0.89346   0.25001   0.00000  Uiso   1.00
O486   O     0.77441   0.83332   0.32549   0.00000  Uiso   1.00
O487   O     0.85360   0.83333   0.32549   0.00000  Uiso   1.00
O488   O     0.79373   0.77321   0.25000   0.00000  Uiso   1.00
O489   O     0.87292   0.77322   0.25000   0.00000  Uiso   1.00
O490   O     0.81306   0.83334   0.17451   0.00000  Uiso   1.00
O491   O     0.89225   0.83335   0.17451   0.00000  Uiso   1.00
F492   F     0.94783   0.78932   0.09539   0.00000  Uiso   1.00
F493   F     0.91657   0.70922   0.19140   0.00000  Uiso   1.00
F494   F     0.75104   0.95903   0.30422   0.00000  Uiso   1.00
F495   F     0.93391   0.88483   0.31620   0.00000  Uiso   1.00
F496   F     0.69624   0.88419   0.31682   0.00000  Uiso   1.00
Br497  Br    0.74153   0.76850   0.16987   0.00000  Uiso   1.00
Br498  Br    0.95053   0.74279   0.40077   0.00000  Uiso   1.00
F499   F     0.96645   0.76421   0.49582   0.00000  Uiso   1.00
F500   F     0.81060   0.86584   0.08402   0.00000  Uiso   1.00
F501   F     0.74234   0.82972   0.07043   0.00000  Uiso   1.00
F502   F     0.68248   0.85565   0.01614   0.00000  Uiso   1.00
F503   F     0.86736   0.76787   0.36569   0.00000  Uiso   1.00
Br504  Br    0.93449   0.95165   0.17495   0.00000  Uiso   1.00
C505   C     0.16707   0.24593   0.74898   0.00000  Uiso   1.00
C506   C     0.14338   0.15464   0.99042   0.00000  Uiso   1.00
C507   C     0.15518   0.14591   0.93603   0.00000  Uiso   1.00
C508   C     0.18007   0.14923   0.51573   0.00000  Uiso   1.00
C509   C     0.22324   0.12618   0.99021   0.00000  Uiso   1.00
C510   C     0.22976   0.11070   0.93880   0.00000  Uiso   1.00
C511   C     0.19605   0.12055   0.91239   0.00000  Uiso   1.00
C512   C     0.17605   0.16788   0.56481   0.00000  Uiso   1.00
C513   C     0.24932   0.13324   0.56890   0.00000  Uiso   1.00
C514   C     0.12411   0.16113   0.90779   0.00000  Uiso   1.00
C515   C     0.20990   0.31214   0.71881   0.00000  Uiso   1.00
C516   C     0.14042   0.16442   0.85014   0.00000  Uiso   1.00
C517   C     0.20953   0.02167   0.71965   0.00000  Uiso   1.00
C518   C     0.16718   0.04296   0.74804   0.00000  Uiso   1.00
C519   C     0.12500   0.02164   0.77530   0.00000  Uiso   1.00
C520   C     0.12522   0.31233   0.77553   0.00000  Uiso   1.00
C521   C     0.16763   0.29063   0.74765   0.00000  Uiso   1.00
C522   C     0.29952   0.19230   0.78302   0.00000  Uiso   1.00
C523   C     0.01568   0.19217   0.78313   0.00000  Uiso   1.00
C524   C     0.03317   0.14071   0.71713   0.00000  Uiso   1.00
C525   C     0.31713   0.14100   0.71729   0.00000  Uiso   1.00
C526   C     0.16681   0.08747   0.74932   0.00000  Uiso   1.00
C527   C     0.19293   0.16551   0.64979   0.00000  Uiso   1.00
C528   C     0.25794   0.11909   0.51744   0.00000  Uiso   1.00
C529   C     0.20786   0.15710   0.59307   0.00000  Uiso   1.00
C530   C     0.07755   0.17630   0.93545   0.00000  Uiso   1.00
C531   C     0.06217   0.17708   0.98991   0.00000  Uiso   1.00
C532   C     0.09444   0.16634   0.51757   0.00000  Uiso   1.00
Cu533  Cu    0.11978   0.16666   0.75000   0.00000  Uiso   1.00
Cu534  Cu    0.21355   0.16667   0.75000   0.00000  Uiso   1.00
H535   H     0.09223   0.03806   0.79742   0.00000  Uiso   1.00
H536   H     0.30524   0.12043   0.69128   0.00000  Uiso   1.00
H537   H     0.05270   0.18723   0.91490   0.00000  Uiso   1.00
N538   N     0.04931   0.16666   0.74999   0.00000  Uiso   1.00
N539   N     0.28402   0.16669   0.75000   0.00000  Uiso   1.00
O540   O     0.12708   0.22678   0.75001   0.00000  Uiso   1.00
O541   O     0.20627   0.22679   0.75001   0.00000  Uiso   1.00
O542   O     0.10775   0.16665   0.82549   0.00000  Uiso   1.00
O543   O     0.18694   0.16666   0.82549   0.00000  Uiso   1.00
O544   O     0.12706   0.10654   0.75000   0.00000  Uiso   1.00
O545   O     0.20625   0.10655   0.75000   0.00000  Uiso   1.00
O546   O     0.14640   0.16667   0.67451   0.00000  Uiso   1.00
O547   O     0.22559   0.16668   0.67451   0.00000  Uiso   1.00
F548   F     0.28116   0.12266   0.59539   0.00000  Uiso   1.00
F549   F     0.24990   0.04255   0.69140   0.00000  Uiso   1.00
F550   F     0.08438   0.29237   0.80422   0.00000  Uiso   1.00
F551   F     0.26724   0.21816   0.81620   0.00000  Uiso   1.00
F552   F     0.02958   0.21753   0.81682   0.00000  Uiso   1.00
Br553  Br    0.07487   0.10183   0.66987   0.00000  Uiso   1.00
Br554  Br    0.28387   0.07612   0.90077   0.00000  Uiso   1.00
F555   F     0.29978   0.09754   0.99582   0.00000  Uiso   1.00
F556   F     0.14394   0.19917   0.58402   0.00000  Uiso   1.00
F557   F     0.07567   0.16305   0.57043   0.00000  Uiso   1.00
F558   F     0.01581   0.18899   0.51614   0.00000  Uiso   1.00
F559   F     0.20070   0.10120   0.86569   0.00000  Uiso   1.00
Br560  Br    0.26782   0.28498   0.67495   0.00000  Uiso   1.00
C561   C     0.50041   0.24593   0.74898   0.00000  Uiso   1.00
C562   C     0.47671   0.15464   0.99042   0.00000  Uiso   1.00
C563   C     0.48851   0.14591   0.93603   0.00000  Uiso   1.00
C564   C     0.51340   0.14923   0.51573   0.00000  Uiso   1.00
C565   C     0.55657   0.12618   0.99021   0.00000  Uiso   1.00
C566   C     0.56309   0.11070   0.93880   0.00000  Uiso   1.00
C567   C     0.52939   0.12055   0.91239   0.00000  Uiso   1.00
C568   C     0.50938   0.16788   0.56481   0.00000  Uiso   1.00
C569   C     0.58265   0.13324   0.56890   0.00000  Uiso   1.00
C570   C     0.45744   0.16113   0.90779   0.00000  Uiso   1.00
C571   C     0.54323   0.31214   0.71881   0.00000  Uiso   1.00
C572   C     0.47376   0.16442   0.85014   0.00000  Uiso   1.00
C573   C     0.54287   0.02167   0.71965   0.00000  Uiso   1.00
C574   C     0.50051   0.04296   0.74804   0.00000  Uiso   1.00
C575   C     0.45833   0.02164   0.77530   0.00000  Uiso   1.00
C576   C     0.45855   0.31233   0.77553   0.00000  Uiso   1.00
C577   C     0.50096   0.29063   0.74765   0.00000  Uiso   1.00
C578   C     0.63285   0.19230   0.78302   0.00000  Uiso   1.00
C579   C     0.34901   0.19217   0.78313   0.00000  Uiso   1.00
C580   C     0.36651   0.14071   0.71713   0.00000  Uiso   1.00
C581   C     0.65046   0.14100   0.71729   0.00000  Uiso   1.00
C582   C     0.50014   0.08747   0.74932   0.00000  Uiso   1.00
C583   C     0.52626   0.16551   0.64979   0.00000  Uiso   1.00
C584   C     0.59127   0.11909   0.51744   0.00000  Uiso   1.00
C585   C     0.54119   0.15710   0.59307   0.00000  Uiso   1.00
C586   C     0.41088   0.17630   0.93545   0.00000  Uiso   1.00
C587   C     0.39550   0.17708   0.98991   0.00000  Uiso   1.00
C588   C     0.42777   0.16634   0.51757   0.00000  Uiso   1.00
Cu589  Cu    0.45311   0.16666   0.75000   0.00000  Uiso   1.00
Cu590  Cu    0.54689   0.16667   0.75000   0.00000  Uiso   1.00
H591   H     0.42557   0.03806   0.79742   0.00000  Uiso   1.00
H592   H     0.63857   0.12043   0.69128   0.00000  Uiso   1.00
H593   H     0.38604   0.18723   0.91490   0.00000  Uiso   1.00
N594   N     0.38265   0.16666   0.74999   0.00000  Uiso   1.00
N595   N     0.61735   0.16669   0.75000   0.00000  Uiso   1.00
O596   O     0.46042   0.22678   0.75001   0.00000  Uiso   1.00
O597   O     0.53961   0.22679   0.75001   0.00000  Uiso   1.00
O598   O     0.44108   0.16665   0.82549   0.00000  Uiso   1.00
O599   O     0.52027   0.16666   0.82549   0.00000  Uiso   1.00
O600   O     0.46039   0.10654   0.75000   0.00000  Uiso   1.00
O601   O     0.53958   0.10655   0.75000   0.00000  Uiso   1.00
O602   O     0.47973   0.16667   0.67451   0.00000  Uiso   1.00
O603   O     0.55892   0.16668   0.67451   0.00000  Uiso   1.00
F604   F     0.61450   0.12266   0.59539   0.00000  Uiso   1.00
F605   F     0.58324   0.04255   0.69140   0.00000  Uiso   1.00
F606   F     0.41771   0.29237   0.80422   0.00000  Uiso   1.00
F607   F     0.60057   0.21816   0.81620   0.00000  Uiso   1.00
F608   F     0.36291   0.21753   0.81682   0.00000  Uiso   1.00
Br609  Br    0.40820   0.10183   0.66987   0.00000  Uiso   1.00
Br610  Br    0.61720   0.07612   0.90077   0.00000  Uiso   1.00
F611   F     0.63311   0.09754   0.99582   0.00000  Uiso   1.00
F612   F     0.47727   0.19917   0.58402   0.00000  Uiso   1.00
F613   F     0.40900   0.16305   0.57043   0.00000  Uiso   1.00
F614   F     0.34914   0.18899   0.51614   0.00000  Uiso   1.00
F615   F     0.53403   0.10120   0.86569   0.00000  Uiso   1.00
Br616  Br    0.60116   0.28498   0.67495   0.00000  Uiso   1.00
C617   C     0.83374   0.24593   0.74898   0.00000  Uiso   1.00
C618   C     0.81004   0.15464   0.99042   0.00000  Uiso   1.00
C619   C     0.82185   0.14591   0.93603   0.00000  Uiso   1.00
C620   C     0.84673   0.14923   0.51573   0.00000  Uiso   1.00
C621   C     0.88990   0.12618   0.99021   0.00000  Uiso   1.00
C622   C     0.89643   0.11070   0.93880   0.00000  Uiso   1.00
C623   C     0.86272   0.12055   0.91239   0.00000  Uiso   1.00
C624   C     0.84271   0.16788   0.56481   0.00000  Uiso   1.00
C625   C     0.91598   0.13324   0.56890   0.00000  Uiso   1.00
C626   C     0.79078   0.16113   0.90779   0.00000  Uiso   1.00
C627   C     0.87656   0.31214   0.71881   0.00000  Uiso   1.00
C628   C     0.80709   0.16442   0.85014   0.00000  Uiso   1.00
C629   C     0.87620   0.02167   0.71965   0.00000  Uiso   1.00
C630   C     0.83385   0.04296   0.74804   0.00000  Uiso   1.00
C631   C     0.79166   0.02164   0.77530   0.00000  Uiso   1.00
C632   C     0.79188   0.31233   0.77553   0.00000  Uiso   1.00
C633   C     0.83430   0.29063   0.74765   0.00000  Uiso   1.00
C634   C     0.96618   0.19230   0.78302   0.00000  Uiso   1.00
C635   C     0.68235   0.19217   0.78313   0.00000  Uiso   1.00
C636   C     0.69984   0.14071   0.71713   0.00000  Uiso   1.00
C637   C     0.98380   0.14100   0.71729   0.00000  Uiso   1.00
C638   C     0.83347   0.08747   0.74932   0.00000  Uiso   1.00
C639   C     0.85959   0.16551   0.64979   0.00000  Uiso   1.00
C640   C     0.92460   0.11909   0.51744   0.00000  Uiso   1.00
C641   C     0.87453   0.15710   0.59307   0.00000  Uiso   1.00
C642   C     0.74422   0.17630   0.93545   0.00000  Uiso   1.00
C643   C     0.72883   0.17708   0.98991   0.00000  Uiso   1.00
C644   C     0.76110   0.16634   0.51757   0.00000  Uiso   1.00
Cu645  Cu    0.78645   0.16666   0.75000   0.00000  Uiso   1.00
Cu646  Cu    0.88022   0.16667   0.75000   0.00000  Uiso   1.00
H647   H     0.75890   0.03806   0.79742   0.00000  Uiso   1.00
H648   H     0.97190   0.12043   0.69128   0.00000  Uiso   1.00
H649   H     0.71937   0.18723   0.91490   0.00000  Uiso   1.00
N650   N     0.71598   0.16666   0.74999   0.00000  Uiso   1.00
N651   N     0.95069   0.16669   0.75000   0.00000  Uiso   1.00
O652   O     0.79375   0.22678   0.75001   0.00000  Uiso   1.00
O653   O     0.87294   0.22679   0.75001   0.00000  Uiso   1.00
O654   O     0.77441   0.16665   0.82549   0.00000  Uiso   1.00
O655   O     0.85360   0.16666   0.82549   0.00000  Uiso   1.00
O656   O     0.79373   0.10654   0.75000   0.00000  Uiso   1.00
O657   O     0.87292   0.10655   0.75000   0.00000  Uiso   1.00
O658   O     0.81306   0.16667   0.67451   0.00000  Uiso   1.00
O659   O     0.89225   0.16668   0.67451   0.00000  Uiso   1.00
F660   F     0.94783   0.12266   0.59539   0.00000  Uiso   1.00
F661   F     0.91657   0.04255   0.69140   0.00000  Uiso   1.00
F662   F     0.75104   0.29237   0.80422   0.00000  Uiso   1.00
F663   F     0.93391   0.21816   0.81620   0.00000  Uiso   1.00
F664   F     0.69624   0.21753   0.81682   0.00000  Uiso   1.00
Br665  Br    0.74153   0.10183   0.66987   0.00000  Uiso   1.00
Br666  Br    0.95053   0.07612   0.90077   0.00000  Uiso   1.00
F667   F     0.96645   0.09754   0.99582   0.00000  Uiso   1.00
F668   F     0.81060   0.19917   0.58402   0.00000  Uiso   1.00
F669   F     0.74234   0.16305   0.57043   0.00000  Uiso   1.00
F670   F     0.68248   0.18899   0.51614   0.00000  Uiso   1.00
F671   F     0.86736   0.10120   0.86569   0.00000  Uiso   1.00
Br672  Br    0.93449   0.28498   0.67495   0.00000  Uiso   1.00
C673   C     0.16707   0.57927   0.74898   0.00000  Uiso   1.00
C674   C     0.14338   0.48797   0.99042   0.00000  Uiso   1.00
C675   C     0.15518   0.47924   0.93603   0.00000  Uiso   1.00
C676   C     0.18007   0.48256   0.51573   0.00000  Uiso   1.00
C677   C     0.22324   0.45951   0.99021   0.00000  Uiso   1.00
C678   C     0.22976   0.44403   0.93880   0.00000  Uiso   1.00
C679   C     0.19605   0.45388   0.91239   0.00000  Uiso   1.00
C680   C     0.17605   0.50121   0.56481   0.00000  Uiso   1.00
C681   C     0.24932   0.46657   0.56890   0.00000  Uiso   1.00
C682   C     0.12411   0.49446   0.90779   0.00000  Uiso   1.00
C683   C     0.20990   0.64548   0.71881   0.00000  Uiso   1.00
C684   C     0.14042   0.49775   0.85014   0.00000  Uiso   1.00
C685   C     0.20953   0.35501   0.71965   0.00000  Uiso   1.00
C686   C     0.16718   0.37629   0.74804   0.00000  Uiso   1.00
C687   C     0.12500   0.35497   0.77530   0.00000  Uiso   1.00
C688   C     0.12522   0.64566   0.77553   0.00000  Uiso   1.00
C689   C     0.16763   0.62396   0.74765   0.00000  Uiso   1.00
C690   C     0.29952   0.52563   0.78302   0.00000  Uiso   1.00
C691   C     0.01568   0.52551   0.78313   0.00000  Uiso   1.00
C692   C     0.03317   0.47404   0.71713   0.00000  Uiso   1.00
C693   C     0.31713   0.47434   0.71729   0.00000  Uiso   1.00
C694   C     0.16681   0.42080   0.74932   0.00000  Uiso   1.00
C695   C     0.19293   0.49884   0.64979   0.00000  Uiso   1.00
C696   C     0.25794   0.45242   0.51744   0.00000  Uiso   1.00
C697   C     0.20786   0.49043   0.59307   0.00000  Uiso   1.00
C698   C     0.07755   0.50964   0.93545   0.00000  Uiso   1.00
C699   C     0.06217   0.51041   0.98991   0.00000  Uiso   1.00
C700   C     0.09444   0.49967   0.51757   0.00000  Uiso   1.00
Cu701  Cu    0.11978   0.49999   0.75000   0.00000  Uiso   1.00
Cu702  Cu    0.21355   0.50001   0.75000   0.00000  Uiso   1.00
H703   H     0.09223   0.37139   0.79742   0.00000  Uiso   1.00
H704   H     0.30524   0.45377   0.69128   0.00000  Uiso   1.00
H705   H     0.05270   0.52056   0.91490   0.00000  Uiso   1.00
N706   N     0.04931   0.49999   0.74999   0.00000  Uiso   1.00
N707   N     0.28402   0.50002   0.75000   0.00000  Uiso   1.00
O708   O     0.12708   0.56011   0.75001   0.00000  Uiso   1.00
O709   O     0.20627   0.56012   0.75001   0.00000  Uiso   1.00
O710   O     0.10775   0.49998   0.82549   0.00000  Uiso   1.00
O711   O     0.18694   0.49999   0.82549   0.00000  Uiso   1.00
O712   O     0.12706   0.43988   0.75000   0.00000  Uiso   1.00
O713   O     0.20625   0.43989   0.75000   0.00000  Uiso   1.00
O714   O     0.14640   0.50001   0.67451   0.00000  Uiso   1.00
O715   O     0.22559   0.50002   0.67451   0.00000  Uiso   1.00
F716   F     0.28116   0.45599   0.59539   0.00000  Uiso   1.00
F717   F     0.24990   0.37588   0.69140   0.00000  Uiso   1.00
F718   F     0.08438   0.62570   0.80422   0.00000  Uiso   1.00
F719   F     0.26724   0.55150   0.81620   0.00000  Uiso   1.00
F720   F     0.02958   0.55086   0.81682   0.00000  Uiso   1.00
Br721  Br    0.07487   0.43516   0.66987   0.00000  Uiso   1.00
Br722  Br    0.28387   0.40946   0.90077   0.00000  Uiso   1.00
F723   F     0.29978   0.43088   0.99582   0.00000  Uiso   1.00
F724   F     0.14394   0.53251   0.58402   0.00000  Uiso   1.00
F725   F     0.07567   0.49639   0.57043   0.00000  Uiso   1.00
F726   F     0.01581   0.52232   0.51614   0.00000  Uiso   1.00
F727   F     0.20070   0.43453   0.86569   0.00000  Uiso   1.00
Br728  Br    0.26782   0.61831   0.67495   0.00000  Uiso   1.00
C729   C     0.50041   0.57927   0.74898   0.00000  Uiso   1.00
C730   C     0.47671   0.48797   0.99042   0.00000  Uiso   1.00
C731   C     0.48851   0.47924   0.93603   0.00000  Uiso   1.00
C732   C     0.51340   0.48256   0.51573   0.00000  Uiso   1.00
C733   C     0.55657   0.45951   0.99021   0.00000  Uiso   1.00
C734   C     0.56309   0.44403   0.93880   0.00000  Uiso   1.00
C735   C     0.52939   0.45388   0.91239   0.00000  Uiso   1.00
C736   C     0.50938   0.50121   0.56481   0.00000  Uiso   1.00
C737   C     0.58265   0.46657   0.56890   0.00000  Uiso   1.00
C738   C     0.45744   0.49446   0.90779   0.00000  Uiso   1.00
C739   C     0.54323   0.64548   0.71881   0.00000  Uiso   1.00
C740   C     0.47376   0.49775   0.85014   0.00000  Uiso   1.00
C741   C     0.54287   0.35501   0.71965   0.00000  Uiso   1.00
C742   C     0.50051   0.37629   0.74804   0.00000  Uiso   1.00
C743   C     0.45833   0.35497   0.77530   0.00000  Uiso   1.00
C744   C     0.45855   0.64566   0.77553   0.00000  Uiso   1.00
C745   C     0.50096   0.62396   0.74765   0.00000  Uiso   1.00
C746   C     0.63285   0.52563   0.78302   0.00000  Uiso   1.00
C747   C     0.34901   0.52551   0.78313   0.00000  Uiso   1.00
C748   C     0.36651   0.47404   0.71713   0.00000  Uiso   1.00
C749   C     0.65046   0.47434   0.71729   0.00000  Uiso   1.00
C750   C     0.50014   0.42080   0.74932   0.00000  Uiso   1.00
C751   C     0.52626   0.49884   0.64979   0.00000  Uiso   1.00
C752   C     0.59127   0.45242   0.51744   0.00000  Uiso   1.00
C753   C     0.54119   0.49043   0.59307   0.00000  Uiso   1.00
C754   C     0.41088   0.50964   0.93545   0.00000  Uiso   1.00
C755   C     0.39550   0.51041   0.98991   0.00000  Uiso   1.00
C756   C     0.42777   0.49967   0.51757   0.00000  Uiso   1.00
Cu757  Cu    0.45311   0.49999   0.75000   0.00000  Uiso   1.00
Cu758  Cu    0.54689   0.50001   0.75000   0.00000  Uiso   1.00
H759   H     0.42557   0.37139   0.79742   0.00000  Uiso   1.00
H760   H     0.63857   0.45377   0.69128   0.00000  Uiso   1.00
H761   H     0.38604   0.52056   0.91490   0.00000  Uiso   1.00
N762   N     0.38265   0.49999   0.74999   0.00000  Uiso   1.00
N763   N     0.61735   0.50002   0.75000   0.00000  Uiso   1.00
O764   O     0.46042   0.56011   0.75001   0.00000  Uiso   1.00
O765   O     0.53961   0.56012   0.75001   0.00000  Uiso   1.00
O766   O     0.44108   0.49998   0.82549   0.00000  Uiso   1.00
O767   O     0.52027   0.49999   0.82549   0.00000  Uiso   1.00
O768   O     0.46039   0.43988   0.75000   0.00000  Uiso   1.00
O769   O     0.53958   0.43989   0.75000   0.00000  Uiso   1.00
O770   O     0.47973   0.50001   0.67451   0.00000  Uiso   1.00
O771   O     0.55892   0.50002   0.67451   0.00000  Uiso   1.00
F772   F     0.61450   0.45599   0.59539   0.00000  Uiso   1.00
F773   F     0.58324   0.37588   0.69140   0.00000  Uiso   1.00
F774   F     0.41771   0.62570   0.80422   0.00000  Uiso   1.00
F775   F     0.60057   0.55150   0.81620   0.00000  Uiso   1.00
F776   F     0.36291   0.55086   0.81682   0.00000  Uiso   1.00
Br777  Br    0.40820   0.43516   0.66987   0.00000  Uiso   1.00
Br778  Br    0.61720   0.40946   0.90077   0.00000  Uiso   1.00
F779   F     0.63311   0.43088   0.99582   0.00000  Uiso   1.00
F780   F     0.47727   0.53251   0.58402   0.00000  Uiso   1.00
F781   F     0.40900   0.49639   0.57043   0.00000  Uiso   1.00
F782   F     0.34914   0.52232   0.51614   0.00000  Uiso   1.00
F783   F     0.53403   0.43453   0.86569   0.00000  Uiso   1.00
Br784  Br    0.60116   0.61831   0.67495   0.00000  Uiso   1.00
C785   C     0.83374   0.57927   0.74898   0.00000  Uiso   1.00
C786   C     0.81004   0.48797   0.99042   0.00000  Uiso   1.00
C787   C     0.82185   0.47924   0.93603   0.00000  Uiso   1.00
C788   C     0.84673   0.48256   0.51573   0.00000  Uiso   1.00
C789   C     0.88990   0.45951   0.99021   0.00000  Uiso   1.00
C790   C     0.89643   0.44403   0.93880   0.00000  Uiso   1.00
C791   C     0.86272   0.45388   0.91239   0.00000  Uiso   1.00
C792   C     0.84271   0.50121   0.56481   0.00000  Uiso   1.00
C793   C     0.91598   0.46657   0.56890   0.00000  Uiso   1.00
C794   C     0.79078   0.49446   0.90779   0.00000  Uiso   1.00
C795   C     0.87656   0.64548   0.71881   0.00000  Uiso   1.00
C796   C     0.80709   0.49775   0.85014   0.00000  Uiso   1.00
C797   C     0.87620   0.35501   0.71965   0.00000  Uiso   1.00
C798   C     0.83385   0.37629   0.74804   0.00000  Uiso   1.00
C799   C     0.79166   0.35497   0.77530   0.00000  Uiso   1.00
C800   C     0.79188   0.64566   0.77553   0.00000  Uiso   1.00
C801   C     0.83430   0.62396   0.74765   0.00000  Uiso   1.00
C802   C     0.96618   0.52563   0.78302   0.00000  Uiso   1.00
C803   C     0.68235   0.52551   0.78313   0.00000  Uiso   1.00
C804   C     0.69984   0.47404   0.71713   0.00000  Uiso   1.00
C805   C     0.98380   0.47434   0.71729   0.00000  Uiso   1.00
C806   C     0.83347   0.42080   0.74932   0.00000  Uiso   1.00
C807   C     0.85959   0.49884   0.64979   0.00000  Uiso   1.00
C808   C     0.92460   0.45242   0.51744   0.00000  Uiso   1.00
C809   C     0.87453   0.49043   0.59307   0.00000  Uiso   1.00
C810   C     0.74422   0.50964   0.93545   0.00000  Uiso   1.00
C811   C     0.72883   0.51041   0.98991   0.00000  Uiso   1.00
C812   C     0.76110   0.49967   0.51757   0.00000  Uiso   1.00
Cu813  Cu    0.78645   0.49999   0.75000   0.00000  Uiso   1.00
Cu814  Cu    0.88022   0.50001   0.75000   0.00000  Uiso   1.00
H815   H     0.75890   0.37139   0.79742   0.00000  Uiso   1.00
H816   H     0.97190   0.45377   0.69128   0.00000  Uiso   1.00
H817   H     0.71937   0.52056   0.91490   0.00000  Uiso   1.00
N818   N     0.71598   0.49999   0.74999   0.00000  Uiso   1.00
N819   N     0.95069   0.50002   0.75000   0.00000  Uiso   1.00
O820   O     0.79375   0.56011   0.75001   0.00000  Uiso   1.00
O821   O     0.87294   0.56012   0.75001   0.00000  Uiso   1.00
O822   O     0.77441   0.49998   0.82549   0.00000  Uiso   1.00
O823   O     0.85360   0.49999   0.82549   0.00000  Uiso   1.00
O824   O     0.79373   0.43988   0.75000   0.00000  Uiso   1.00
O825   O     0.87292   0.43989   0.75000   0.00000  Uiso   1.00
O826   O     0.81306   0.50001   0.67451   0.00000  Uiso   1.00
O827   O     0.89225   0.50002   0.67451   0.00000  Uiso   1.00
F828   F     0.94783   0.45599   0.59539   0.00000  Uiso   1.00
F829   F     0.91657   0.37588   0.69140   0.00000  Uiso   1.00
F830   F     0.75104   0.62570   0.80422   0.00000  Uiso   1.00
F831   F     0.93391   0.55150   0.81620   0.00000  Uiso   1.00
F832   F     0.69624   0.55086   0.81682   0.00000  Uiso   1.00
Br833  Br    0.74153   0.43516   0.66987   0.00000  Uiso   1.00
Br834  Br    0.95053   0.40946   0.90077   0.00000  Uiso   1.00
F835   F     0.96645   0.43088   0.99582   0.00000  Uiso   1.00
F836   F     0.81060   0.53251   0.58402   0.00000  Uiso   1.00
F837   F     0.74234   0.49639   0.57043   0.00000  Uiso   1.00
F838   F     0.68248   0.52232   0.51614   0.00000  Uiso   1.00
F839   F     0.86736   0.43453   0.86569   0.00000  Uiso   1.00
Br840  Br    0.93449   0.61831   0.67495   0.00000  Uiso   1.00
C841   C     0.16707   0.91260   0.74898   0.00000  Uiso   1.00
C842   C     0.14338   0.82131   0.99042   0.00000  Uiso   1.00
C843   C     0.15518   0.81257   0.93603   0.00000  Uiso   1.00
C844   C     0.18007   0.81590   0.51573   0.00000  Uiso   1.00
C845   C     0.22324   0.79284   0.99021   0.00000  Uiso   1.00
C846   C     0.22976   0.77737   0.93880   0.00000  Uiso   1.00
C847   C     0.19605   0.78721   0.91239   0.00000  Uiso   1.00
C848   C     0.17605   0.83454   0.56481   0.00000  Uiso   1.00
C849   C     0.24932   0.79990   0.56890   0.00000  Uiso   1.00
C850   C     0.12411   0.82780   0.90779   0.00000  Uiso   1.00
C851   C     0.20990   0.97881   0.71881   0.00000  Uiso   1.00
C852   C     0.14042   0.83108   0.85014   0.00000  Uiso   1.00
C853   C     0.20953   0.68834   0.71965   0.00000  Uiso   1.00
C854   C     0.16718   0.70963   0.74804   0.00000  Uiso   1.00
C855   C     0.12500   0.68831   0.77530   0.00000  Uiso   1.00
C856   C     0.12522   0.97899   0.77553   0.00000  Uiso   1.00
C857   C     0.16763   0.95730   0.74765   0.00000  Uiso   1.00
C858   C     0.29952   0.85896   0.78302   0.00000  Uiso   1.00
C859   C     0.01568   0.85884   0.78313   0.00000  Uiso   1.00
C860   C     0.03317   0.80738   0.71713   0.00000  Uiso   1.00
C861   C     0.31713   0.80767   0.71729   0.00000  Uiso   1.00
C862   C     0.16681   0.75413   0.74932   0.00000  Uiso   1.00
C863   C     0.19293   0.83217   0.64979   0.00000  Uiso   1.00
C864   C     0.25794   0.78575   0.51744   0.00000  Uiso   1.00
C865   C     0.20786   0.82376   0.59307   0.00000  Uiso   1.00
C866   C     0.07755   0.84297   0.93545   0.00000  Uiso   1.00
C867   C     0.06217   0.84375   0.98991   0.00000  Uiso   1.00
C868   C     0.09444   0.83301   0.51757   0.00000  Uiso   1.00
Cu869  Cu    0.11978   0.83333   0.75000   0.00000  Uiso   1.00
Cu870  Cu    0.21355   0.83334   0.75000   0.00000  Uiso   1.00
H871   H     0.09223   0.70472   0.79742   0.00000  Uiso   1.00
H872   H     0.30524   0.78710   0.69128   0.00000  Uiso   1.00
H873   H     0.05270   0.85390   0.91490   0.00000  Uiso   1.00
N874   N     0.04931   0.83332   0.74999   0.00000  Uiso   1.00
N875   N     0.28402   0.83335   0.75000   0.00000  Uiso   1.00
O876   O     0.12708   0.89345   0.75001   0.00000  Uiso   1.00
O877   O     0.20627   0.89346   0.75001   0.00000  Uiso   1.00
O878   O     0.10775   0.83332   0.82549   0.00000  Uiso   1.00
O879   O     0.18694   0.83333   0.82549   0.00000  Uiso   1.00
O880   O     0.12706   0.77321   0.75000   0.00000  Uiso   1.00
O881   O     0.20625   0.77322   0.75000   0.00000  Uiso   1.00
O882   O     0.14640   0.83334   0.67451   0.00000  Uiso   1.00
O883   O     0.22559   0.83335   0.67451   0.00000  Uiso   1.00
F884   F     0.28116   0.78932   0.59539   0.00000  Uiso   1.00
F885   F     0.24990   0.70922   0.69140   0.00000  Uiso   1.00
F886   F     0.08438   0.95903   0.80422   0.00000  Uiso   1.00
F887   F     0.26724   0.88483   0.81620   0.00000  Uiso   1.00
F888   F     0.02958   0.88419   0.81682   0.00000  Uiso   1.00
Br889  Br    0.07487   0.76850   0.66987   0.00000  Uiso   1.00
Br890  Br    0.28387   0.74279   0.90077   0.00000  Uiso   1.00
F891   F     0.29978   0.76421   0.99582   0.00000  Uiso   1.00
F892   F     0.14394   0.86584   0.58402   0.00000  Uiso   1.00
F893   F     0.07567   0.82972   0.57043   0.00000  Uiso   1.00
F894   F     0.01581   0.85565   0.51614   0.00000  Uiso   1.00
F895   F     0.20070   0.76787   0.86569   0.00000  Uiso   1.00
Br896  Br    0.26782   0.95165   0.67495   0.00000  Uiso   1.00
C897   C     0.50041   0.91260   0.74898   0.00000  Uiso   1.00
C898   C     0.47671   0.82131   0.99042   0.00000  Uiso   1.00
C899   C     0.48851   0.81257   0.93603   0.00000  Uiso   1.00
C900   C     0.51340   0.81590   0.51573   0.00000  Uiso   1.00
C901   C     0.55657   0.79284   0.99021   0.00000  Uiso   1.00
C902   C     0.56309   0.77737   0.93880   0.00000  Uiso   1.00
C903   C     0.52939   0.78721   0.91239   0.00000  Uiso   1.00
C904   C     0.50938   0.83454   0.56481   0.00000  Uiso   1.00
C905   C     0.58265   0.79990   0.56890   0.00000  Uiso   1.00
C906   C     0.45744   0.82780   0.90779   0.00000  Uiso   1.00
C907   C     0.54323   0.97881   0.71881   0.00000  Uiso   1.00
C908   C     0.47376   0.83108   0.85014   0.00000  Uiso   1.00
C909   C     0.54287   0.68834   0.71965   0.00000  Uiso   1.00
C910   C     0.50051   0.70963   0.74804   0.00000  Uiso   1.00
C911   C     0.45833   0.68831   0.77530   0.00000  Uiso   1.00
C912   C     0.45855   0.97899   0.77553   0.00000  Uiso   1.00
C913   C     0.50096   0.95730   0.74765   0.00000  Uiso   1.00
C914   C     0.63285   0.85896   0.78302   0.00000  Uiso   1.00
C915   C     0.34901   0.85884   0.78313   0.00000  Uiso   1.00
C916   C     0.36651   0.80738   0.71713   0.00000  Uiso   1.00
C917   C     0.65046   0.80767   0.71729   0.00000  Uiso   1.00
C918   C     0.50014   0.75413   0.74932   0.00000  Uiso   1.00
C919   C     0.52626   0.83217   0.64979   0.00000  Uiso   1.00
C920   C     0.59127   0.78575   0.51744   0.00000  Uiso   1.00
C921   C     0.54119   0.82376   0.59307   0.00000  Uiso   1.00
C922   C     0.41088   0.84297   0.93545   0.00000  Uiso   1.00
C923   C     0.39550   0.84375   0.98991   0.00000  Uiso   1.00
C924   C     0.42777   0.83301   0.51757   0.00000  Uiso   1.00
Cu925  Cu    0.45311   0.83333   0.75000   0.00000  Uiso   1.00
Cu926  Cu    0.54689   0.83334   0.75000   0.00000  Uiso   1.00
H927   H     0.42557   0.70472   0.79742   0.00000  Uiso   1.00
H928   H     0.63857   0.78710   0.69128   0.00000  Uiso   1.00
H929   H     0.38604   0.85390   0.91490   0.00000  Uiso   1.00
N930   N     0.38265   0.83332   0.74999   0.00000  Uiso   1.00
N931   N     0.61735   0.83335   0.75000   0.00000  Uiso   1.00
O932   O     0.46042   0.89345   0.75001   0.00000  Uiso   1.00
O933   O     0.53961   0.89346   0.75001   0.00000  Uiso   1.00
O934   O     0.44108   0.83332   0.82549   0.00000  Uiso   1.00
O935   O     0.52027   0.83333   0.82549   0.00000  Uiso   1.00
O936   O     0.46039   0.77321   0.75000   0.00000  Uiso   1.00
O937   O     0.53958   0.77322   0.75000   0.00000  Uiso   1.00
O938   O     0.47973   0.83334   0.67451   0.00000  Uiso   1.00
O939   O     0.55892   0.83335   0.67451   0.00000  Uiso   1.00
F940   F     0.61450   0.78932   0.59539   0.00000  Uiso   1.00
F941   F     0.58324   0.70922   0.69140   0.00000  Uiso   1.00
F942   F     0.41771   0.95903   0.80422   0.00000  Uiso   1.00
F943   F     0.60057   0.88483   0.81620   0.00000  Uiso   1.00
F944   F     0.36291   0.88419   0.81682   0.00000  Uiso   1.00
Br945  Br    0.40820   0.76850   0.66987   0.00000  Uiso   1.00
Br946  Br    0.61720   0.74279   0.90077   0.00000  Uiso   1.00
F947   F     0.63311   0.76421   0.99582   0.00000  Uiso   1.00
F948   F     0.47727   0.86584   0.58402   0.00000  Uiso   1.00
F949   F     0.40900   0.82972   0.57043   0.00000  Uiso   1.00
F950   F     0.34914   0.85565   0.51614   0.00000  Uiso   1.00
F951   F     0.53403   0.76787   0.86569   0.00000  Uiso   1.00
Br952  Br    0.60116   0.95165   0.67495   0.00000  Uiso   1.00
C953   C     0.83374   0.91260   0.74898   0.00000  Uiso   1.00
C954   C     0.81004   0.82131   0.99042   0.00000  Uiso   1.00
C955   C     0.82185   0.81257   0.93603   0.00000  Uiso   1.00
C956   C     0.84673   0.81590   0.51573   0.00000  Uiso   1.00
C957   C     0.88990   0.79284   0.99021   0.00000  Uiso   1.00
C958   C     0.89643   0.77737   0.93880   0.00000  Uiso   1.00
C959   C     0.86272   0.78721   0.91239   0.00000  Uiso   1.00
C960   C     0.84271   0.83454   0.56481   0.00000  Uiso   1.00
C961   C     0.91598   0.79990   0.56890   0.00000  Uiso   1.00
C962   C     0.79078   0.82780   0.90779   0.00000  Uiso   1.00
C963   C     0.87656   0.97881   0.71881   0.00000  Uiso   1.00
C964   C     0.80709   0.83108   0.85014   0.00000  Uiso   1.00
C965   C     0.87620   0.68834   0.71965   0.00000  Uiso   1.00
C966   C     0.83385   0.70963   0.74804   0.00000  Uiso   1.00
C967   C     0.79166   0.68831   0.77530   0.00000  Uiso   1.00
C968   C     0.79188   0.97899   0.77553   0.00000  Uiso   1.00
C969   C     0.83430   0.95730   0.74765   0.00000  Uiso   1.00
C970   C     0.96618   0.85896   0.78302   0.00000  Uiso   1.00
C971   C     0.68235   0.85884   0.78313   0.00000  Uiso   1.00
C972   C     0.69984   0.80738   0.71713   0.00000  Uiso   1.00
C973   C     0.98380   0.80767   0.71729   0.00000  Uiso   1.00
C974   C     0.83347   0.75413   0.74932   0.00000  Uiso   1.00
C975   C     0.85959   0.83217   0.64979   0.00000  Uiso   1.00
C976   C     0.92460   0.78575   0.51744   0.00000  Uiso   1.00
C977   C     0.87453   0.82376   0.59307   0.00000  Uiso   1.00
C978   C     0.74422   0.84297   0.93545   0.00000  Uiso   1.00
C979   C     0.72883   0.84375   0.98991   0.00000  Uiso   1.00
C980   C     0.76110   0.83301   0.51757   0.00000  Uiso   1.00
Cu981  Cu    0.78645   0.83333   0.75000   0.00000  Uiso   1.00
Cu982  Cu    0.88022   0.83334   0.75000   0.00000  Uiso   1.00
H983   H     0.75890   0.70472   0.79742   0.00000  Uiso   1.00
H984   H     0.97190   0.78710   0.69128   0.00000  Uiso   1.00
H985   H     0.71937   0.85390   0.91490   0.00000  Uiso   1.00
N986   N     0.71598   0.83332   0.74999   0.00000  Uiso   1.00
N987   N     0.95069   0.83335   0.75000   0.00000  Uiso   1.00
O988   O     0.79375   0.89345   0.75001   0.00000  Uiso   1.00
O989   O     0.87294   0.89346   0.75001   0.00000  Uiso   1.00
O990   O     0.77441   0.83332   0.82549   0.00000  Uiso   1.00
O991   O     0.85360   0.83333   0.82549   0.00000  Uiso   1.00
O992   O     0.79373   0.77321   0.75000   0.00000  Uiso   1.00
O993   O     0.87292   0.77322   0.75000   0.00000  Uiso   1.00
O994   O     0.81306   0.83334   0.67451   0.00000  Uiso   1.00
O995   O     0.89225   0.83335   0.67451   0.00000  Uiso   1.00
F996   F     0.94783   0.78932   0.59539   0.00000  Uiso   1.00
F997   F     0.91657   0.70922   0.69140   0.00000  Uiso   1.00
F998   F     0.75104   0.95903   0.80422   0.00000  Uiso   1.00
F999   F     0.93391   0.88483   0.81620   0.00000  Uiso   1.00
F1000  F     0.69624   0.88419   0.81682   0.00000  Uiso   1.00
Br1001 Br    0.74153   0.76850   0.66987   0.00000  Uiso   1.00
Br1002 Br    0.95053   0.74279   0.90077   0.00000  Uiso   1.00
F1003  F     0.96645   0.76421   0.99582   0.00000  Uiso   1.00
F1004  F     0.81060   0.86584   0.58402   0.00000  Uiso   1.00
F1005  F     0.74234   0.82972   0.57043   0.00000  Uiso   1.00
F1006  F     0.68248   0.85565   0.51614   0.00000  Uiso   1.00
F1007  F     0.86736   0.76787   0.86569   0.00000  Uiso   1.00
Br1008 Br    0.93449   0.95165   0.67495   0.00000  Uiso   1.00
loop_
_geom_bond_atom_site_label_1
_geom_bond_atom_site_label_2
_geom_bond_distance
_geom_bond_site_symmetry_2
_ccdc_geom_bond_type
C1     C17     1.450   .     S
C1     O37     1.292   .     A
C1     O36     1.294   .     A
C2     C3      1.414   .     A
C2     C508    1.422   .     S
C2     C532    1.421   .     S
C3     C10     1.421   .     A
C3     C7      1.412   .     A
C4     C8      1.409   .     A
C4     C506    1.422   1_554 S
C4     C509    1.428   1_554 S
C5     C6      1.414   .     A
C5     C508    1.428   .     S
C5     C528    1.417   .     S
C6     Br50    1.930   .     S
C6     C7      1.395   .     A
C7     F55     1.359   .     S
C8     F52     1.359   .     S
C8     C25     1.394   .     A
C9     C24     1.393   .     A
C9     C25     1.399   .     A
C9     F44     1.358   .     S
C10    C26     1.403   .     A
C10    C12     1.474   .     S
C11    C17     1.412   .     A
C11    Br56    1.928   .     S
C11    C181    1.390   .     S
C12    O39     1.299   .     A
C12    O38     1.298   .     A
C13    C14     1.401   .     A
C13    F45     1.359   .     S
C13    C347    1.390   1_545 S
C14    C22     1.443   .     S
C14    C15     1.395   .     A
C15    H31     1.084   .     S
C15    C352    1.383   1_545 S
C16    F46     1.358   .     S
C16    C17     1.405   .     A
C16    C183    1.383   .     S
C18    N35     1.369   .     A
C18    F47     1.355   .     S
C18    C75     1.418   .     S
C19    F48     1.354   .     S
C19    N34     1.367   .     A
C19    C130    1.418   1_455 S
C20    Br49    1.916   .     S
C20    N34     1.382   .     A
C20    C133    1.412   1_455 S
C21    N35     1.358   .     A
C21    H32     1.082   .     S
C21    C76     1.412   .     S
C22    O40     1.292   .     A
C22    O41     1.290   .     A
C23    C25     1.467   .     S
C23    O43     1.296   .     A
C23    O42     1.298   .     A
C24    C509    1.417   1_554 S
C24    F555    1.355   1_554 S
C26    H33     1.083   .     S
C26    C27     1.387   .     A
C27    C532    1.392   .     S
C27    F558    1.356   .     S
C28    F53     1.357   .     S
C28    C506    1.421   1_554 S
C28    C531    1.392   1_554 S
Cu29   O38     1.940   .     S
Cu29   O42     1.929   .     S
Cu29   O36     1.959   .     S
Cu29   Cu30    2.685   .     S
Cu29   O40     1.961   .     S
Cu29   N34     2.017   .     S
Cu30   O41     1.959   .     S
Cu30   N35     2.017   .     S
Cu30   O39     1.929   .     S
Cu30   O43     1.940   .     S
Cu30   O37     1.961   .     S
F51    C528    1.355   .     S
F54    C531    1.356   1_554 S
C57    C73     1.450   .     S
C57    O93     1.292   .     A
C57    O92     1.294   .     A
C58    C59     1.414   .     A
C58    C564    1.422   .     S
C58    C588    1.421   .     S
C59    C66     1.421   .     A
C59    C63     1.412   .     A
C60    C64     1.409   .     A
C60    C562    1.422   1_554 S
C60    C565    1.428   1_554 S
C61    C62     1.414   .     A
C61    C564    1.428   .     S
C61    C584    1.417   .     S
C62    Br106   1.930   .     S
C62    C63     1.395   .     A
C63    F111    1.359   .     S
C64    F108    1.359   .     S
C64    C81     1.394   .     A
C65    C80     1.393   .     A
C65    C81     1.399   .     A
C65    F100    1.358   .     S
C66    C82     1.403   .     A
C66    C68     1.474   .     S
C67    C73     1.412   .     A
C67    Br112   1.928   .     S
C67    C237    1.390   .     S
C68    O95     1.299   .     A
C68    O94     1.298   .     A
C69    C70     1.401   .     A
C69    F101    1.359   .     S
C69    C403    1.390   1_545 S
C70    C78     1.443   .     S
C70    C71     1.395   .     A
C71    H87     1.084   .     S
C71    C408    1.383   1_545 S
C72    F102    1.358   .     S
C72    C73     1.405   .     A
C72    C239    1.383   .     S
C74    N91     1.369   .     A
C74    F103    1.355   .     S
C74    C131    1.418   .     S
C75    F104    1.354   .     S
C75    N90     1.367   .     A
C76    Br105   1.916   .     S
C76    N90     1.382   .     A
C77    N91     1.358   .     A
C77    H88     1.082   .     S
C77    C132    1.412   .     S
C78    O96     1.292   .     A
C78    O97     1.290   .     A
C79    C81     1.467   .     S
C79    O99     1.296   .     A
C79    O98     1.298   .     A
C80    C565    1.417   1_554 S
C80    F611    1.355   1_554 S
C82    H89     1.083   .     S
C82    C83     1.387   .     A
C83    C588    1.392   .     S
C83    F614    1.356   .     S
C84    F109    1.357   .     S
C84    C562    1.421   1_554 S
C84    C587    1.392   1_554 S
Cu85   O94     1.940   .     S
Cu85   O98     1.929   .     S
Cu85   O92     1.959   .     S
Cu85   Cu86    2.685   .     S
Cu85   O96     1.961   .     S
Cu85   N90     2.017   .     S
Cu86   O97     1.959   .     S
Cu86   N91     2.017   .     S
Cu86   O95     1.929   .     S
Cu86   O99     1.940   .     S
Cu86   O93     1.961   .     S
F107   C584    1.355   .     S
F110   C587    1.356   1_554 S
C113   C129    1.450   .     S
C113   O149    1.292   .     A
C113   O148    1.294   .     A
C114   C115    1.414   .     A
C114   C620    1.422   .     S
C114   C644    1.421   .     S
C115   C122    1.421   .     A
C115   C119    1.412   .     A
C116   C120    1.409   .     A
C116   C618    1.422   1_554 S
C116   C621    1.428   1_554 S
C117   C118    1.414   .     A
C117   C620    1.428   .     S
C117   C640    1.417   .     S
C118   Br162   1.930   .     S
C118   C119    1.395   .     A
C119   F167    1.359   .     S
C120   F164    1.359   .     S
C120   C137    1.394   .     A
C121   C136    1.393   .     A
C121   C137    1.399   .     A
C121   F156    1.358   .     S
C122   C138    1.403   .     A
C122   C124    1.474   .     S
C123   C129    1.412   .     A
C123   Br168   1.928   .     S
C123   C293    1.390   .     S
C124   O151    1.299   .     A
C124   O150    1.298   .     A
C125   C126    1.401   .     A
C125   F157    1.359   .     S
C125   C459    1.390   1_545 S
C126   C134    1.443   .     S
C126   C127    1.395   .     A
C127   H143    1.084   .     S
C127   C464    1.383   1_545 S
C128   F158    1.358   .     S
C128   C129    1.405   .     A
C128   C295    1.383   .     S
C130   N147    1.369   .     A
C130   F159    1.355   .     S
C130   C19     1.418   1_655 S
C131   F160    1.354   .     S
C131   N146    1.367   .     A
C132   Br161   1.916   .     S
C132   N146    1.382   .     A
C133   N147    1.358   .     A
C133   H144    1.082   .     S
C133   C20     1.412   1_655 S
C134   O152    1.292   .     A
C134   O153    1.290   .     A
C135   C137    1.467   .     S
C135   O155    1.296   .     A
C135   O154    1.298   .     A
C136   C621    1.417   1_554 S
C136   F667    1.355   1_554 S
C138   H145    1.083   .     S
C138   C139    1.387   .     A
C139   C644    1.392   .     S
C139   F670    1.356   .     S
C140   F165    1.357   .     S
C140   C618    1.421   1_554 S
C140   C643    1.392   1_554 S
Cu141  O150    1.940   .     S
Cu141  O154    1.929   .     S
Cu141  O148    1.959   .     S
Cu141  Cu142   2.685   .     S
Cu141  O152    1.961   .     S
Cu141  N146    2.017   .     S
Cu142  O153    1.959   .     S
Cu142  N147    2.017   .     S
Cu142  O151    1.929   .     S
Cu142  O155    1.940   .     S
Cu142  O149    1.961   .     S
F163   C640    1.355   .     S
F166   C643    1.356   1_554 S
C169   C185    1.450   .     S
C169   O205    1.292   .     A
C169   O204    1.294   .     A
C170   C171    1.414   .     A
C170   C676    1.422   .     S
C170   C700    1.421   .     S
C171   C178    1.421   .     A
C171   C175    1.412   .     A
C172   C176    1.409   .     A
C172   C674    1.422   1_554 S
C172   C677    1.428   1_554 S
C173   C174    1.414   .     A
C173   C676    1.428   .     S
C173   C696    1.417   .     S
C174   Br218   1.930   .     S
C174   C175    1.395   .     A
C175   F223    1.359   .     S
C176   F220    1.359   .     S
C176   C193    1.394   .     A
C177   C192    1.393   .     A
C177   C193    1.399   .     A
C177   F212    1.358   .     S
C178   C194    1.403   .     A
C178   C180    1.474   .     S
C179   C185    1.412   .     A
C179   Br224   1.928   .     S
C179   C349    1.390   .     S
C180   O207    1.299   .     A
C180   O206    1.298   .     A
C181   C182    1.401   .     A
C181   F213    1.359   .     S
C182   C190    1.443   .     S
C182   C183    1.395   .     A
C183   H199    1.084   .     S
C184   F214    1.358   .     S
C184   C185    1.405   .     A
C184   C351    1.383   .     S
C186   N203    1.369   .     A
C186   F215    1.355   .     S
C186   C243    1.418   .     S
C187   F216    1.354   .     S
C187   N202    1.367   .     A
C187   C298    1.418   1_455 S
C188   Br217   1.916   .     S
C188   N202    1.382   .     A
C188   C301    1.412   1_455 S
C189   N203    1.358   .     A
C189   H200    1.082   .     S
C189   C244    1.412   .     S
C190   O208    1.292   .     A
C190   O209    1.290   .     A
C191   C193    1.467   .     S
C191   O211    1.296   .     A
C191   O210    1.298   .     A
C192   C677    1.417   1_554 S
C192   F723    1.355   1_554 S
C194   H201    1.083   .     S
C194   C195    1.387   .     A
C195   C700    1.392   .     S
C195   F726    1.356   .     S
C196   F221    1.357   .     S
C196   C674    1.421   1_554 S
C196   C699    1.392   1_554 S
Cu197  O206    1.940   .     S
Cu197  O210    1.929   .     S
Cu197  O204    1.959   .     S
Cu197  Cu198   2.685   .     S
Cu197  O208    1.961   .     S
Cu197  N202    2.017   .     S
Cu198  O209    1.959   .     S
Cu198  N203    2.017   .     S
Cu198  O207    1.929   .     S
Cu198  O211    1.940   .     S
Cu198  O205    1.961   .     S
F219   C696    1.355   .     S
F222   C699    1.356   1_554 S
C225   C241    1.450   .     S
C225   O261    1.292   .     A
C225   O260    1.294   .     A
C226   C227    1.414   .     A
C226   C732    1.422   .     S
C226   C756    1.421   .     S
C227   C234    1.421   .     A
C227   C231    1.412   .     A
C228   C232    1.409   .     A
C228   C730    1.422   1_554 S
C228   C733    1.428   1_554 S
C229   C230    1.414   .     A
C229   C732    1.428   .     S
C229   C752    1.417   .     S
C230   Br274   1.930   .     S
C230   C231    1.395   .     A
C231   F279    1.359   .     S
C232   F276    1.359   .     S
C232   C249    1.394   .     A
C233   C248    1.393   .     A
C233   C249    1.399   .     A
C233   F268    1.358   .     S
C234   C250    1.403   .     A
C234   C236    1.474   .     S
C235   C241    1.412   .     A
C235   Br280   1.928   .     S
C235   C405    1.390   .     S
C236   O263    1.299   .     A
C236   O262    1.298   .     A
C237   C238    1.401   .     A
C237   F269    1.359   .     S
C238   C246    1.443   .     S
C238   C239    1.395   .     A
C239   H255    1.084   .     S
C240   F270    1.358   .     S
C240   C241    1.405   .     A
C240   C407    1.383   .     S
C242   N259    1.369   .     A
C242   F271    1.355   .     S
C242   C299    1.418   .     S
C243   F272    1.354   .     S
C243   N258    1.367   .     A
C244   Br273   1.916   .     S
C244   N258    1.382   .     A
C245   N259    1.358   .     A
C245   H256    1.082   .     S
C245   C300    1.412   .     S
C246   O264    1.292   .     A
C246   O265    1.290   .     A
C247   C249    1.467   .     S
C247   O267    1.296   .     A
C247   O266    1.298   .     A
C248   C733    1.417   1_554 S
C248   F779    1.355   1_554 S
C250   H257    1.083   .     S
C250   C251    1.387   .     A
C251   C756    1.392   .     S
C251   F782    1.356   .     S
C252   F277    1.357   .     S
C252   C730    1.421   1_554 S
C252   C755    1.392   1_554 S
Cu253  O262    1.940   .     S
Cu253  O266    1.929   .     S
Cu253  O260    1.959   .     S
Cu253  Cu254   2.685   .     S
Cu253  O264    1.961   .     S
Cu253  N258    2.017   .     S
Cu254  O265    1.959   .     S
Cu254  N259    2.017   .     S
Cu254  O263    1.929   .     S
Cu254  O267    1.940   .     S
Cu254  O261    1.961   .     S
F275   C752    1.355   .     S
F278   C755    1.356   1_554 S
C281   C297    1.450   .     S
C281   O317    1.292   .     A
C281   O316    1.294   .     A
C282   C283    1.414   .     A
C282   C788    1.422   .     S
C282   C812    1.421   .     S
C283   C290    1.421   .     A
C283   C287    1.412   .     A
C284   C288    1.409   .     A
C284   C786    1.422   1_554 S
C284   C789    1.428   1_554 S
C285   C286    1.414   .     A
C285   C788    1.428   .     S
C285   C808    1.417   .     S
C286   Br330   1.930   .     S
C286   C287    1.395   .     A
C287   F335    1.359   .     S
C288   F332    1.359   .     S
C288   C305    1.394   .     A
C289   C304    1.393   .     A
C289   C305    1.399   .     A
C289   F324    1.358   .     S
C290   C306    1.403   .     A
C290   C292    1.474   .     S
C291   C297    1.412   .     A
C291   Br336   1.928   .     S
C291   C461    1.390   .     S
C292   O319    1.299   .     A
C292   O318    1.298   .     A
C293   C294    1.401   .     A
C293   F325    1.359   .     S
C294   C302    1.443   .     S
C294   C295    1.395   .     A
C295   H311    1.084   .     S
C296   F326    1.358   .     S
C296   C297    1.405   .     A
C296   C463    1.383   .     S
C298   N315    1.369   .     A
C298   F327    1.355   .     S
C298   C187    1.418   1_655 S
C299   F328    1.354   .     S
C299   N314    1.367   .     A
C300   Br329   1.916   .     S
C300   N314    1.382   .     A
C301   N315    1.358   .     A
C301   H312    1.082   .     S
C301   C188    1.412   1_655 S
C302   O320    1.292   .     A
C302   O321    1.290   .     A
C303   C305    1.467   .     S
C303   O323    1.296   .     A
C303   O322    1.298   .     A
C304   C789    1.417   1_554 S
C304   F835    1.355   1_554 S
C306   H313    1.083   .     S
C306   C307    1.387   .     A
C307   C812    1.392   .     S
C307   F838    1.356   .     S
C308   F333    1.357   .     S
C308   C786    1.421   1_554 S
C308   C811    1.392   1_554 S
Cu309  O318    1.940   .     S
Cu309  O322    1.929   .     S
Cu309  O316    1.959   .     S
Cu309  Cu310   2.685   .     S
Cu309  O320    1.961   .     S
Cu309  N314    2.017   .     S
Cu310  O321    1.959   .     S
Cu310  N315    2.017   .     S
Cu310  O319    1.929   .     S
Cu310  O323    1.940   .     S
Cu310  O317    1.961   .     S
F331   C808    1.355   .     S
F334   C811    1.356   1_554 S
C337   C353    1.450   .     S
C337   O373    1.292   .     A
C337   O372    1.294   .     A
C338   C339    1.414   .     A
C338   C844    1.422   .     S
C338   C868    1.421   .     S
C339   C346    1.421   .     A
C339   C343    1.412   .     A
C340   C344    1.409   .     A
C340   C842    1.422   1_554 S
C340   C845    1.428   1_554 S
C341   C342    1.414   .     A
C341   C844    1.428   .     S
C341   C864    1.417   .     S
C342   Br386   1.930   .     S
C342   C343    1.395   .     A
C343   F391    1.359   .     S
C344   F388    1.359   .     S
C344   C361    1.394   .     A
C345   C360    1.393   .     A
C345   C361    1.399   .     A
C345   F380    1.358   .     S
C346   C362    1.403   .     A
C346   C348    1.474   .     S
C347   C353    1.412   .     A
C347   Br392   1.928   .     S
C347   C13     1.390   1_565 S
C348   O375    1.299   .     A
C348   O374    1.298   .     A
C349   C350    1.401   .     A
C349   F381    1.359   .     S
C350   C358    1.443   .     S
C350   C351    1.395   .     A
C351   H367    1.084   .     S
C352   F382    1.358   .     S
C352   C353    1.405   .     A
C352   C15     1.383   1_565 S
C354   N371    1.369   .     A
C354   F383    1.355   .     S
C354   C411    1.418   .     S
C355   F384    1.354   .     S
C355   N370    1.367   .     A
C355   C466    1.418   1_455 S
C356   Br385   1.916   .     S
C356   N370    1.382   .     A
C356   C469    1.412   1_455 S
C357   N371    1.358   .     A
C357   H368    1.082   .     S
C357   C412    1.412   .     S
C358   O376    1.292   .     A
C358   O377    1.290   .     A
C359   C361    1.467   .     S
C359   O379    1.296   .     A
C359   O378    1.298   .     A
C360   C845    1.417   1_554 S
C360   F891    1.355   1_554 S
C362   H369    1.083   .     S
C362   C363    1.387   .     A
C363   C868    1.392   .     S
C363   F894    1.356   .     S
C364   F389    1.357   .     S
C364   C842    1.421   1_554 S
C364   C867    1.392   1_554 S
Cu365  O374    1.940   .     S
Cu365  O378    1.929   .     S
Cu365  O372    1.959   .     S
Cu365  Cu366   2.685   .     S
Cu365  O376    1.961   .     S
Cu365  N370    2.017   .     S
Cu366  O377    1.959   .     S
Cu366  N371    2.017   .     S
Cu366  O375    1.929   .     S
Cu366  O379    1.940   .     S
Cu366  O373    1.961   .     S
F387   C864    1.355   .     S
F390   C867    1.356   1_554 S
C393   C409    1.450   .     S
C393   O429    1.292   .     A
C393   O428    1.294   .     A
C394   C395    1.414   .     A
C394   C900    1.422   .     S
C394   C924    1.421   .     S
C395   C402    1.421   .     A
C395   C399    1.412   .     A
C396   C400    1.409   .     A
C396   C898    1.422   1_554 S
C396   C901    1.428   1_554 S
C397   C398    1.414   .     A
C397   C900    1.428   .     S
C397   C920    1.417   .     S
C398   Br442   1.930   .     S
C398   C399    1.395   .     A
C399   F447    1.359   .     S
C400   F444    1.359   .     S
C400   C417    1.394   .     A
C401   C416    1.393   .     A
C401   C417    1.399   .     A
C401   F436    1.358   .     S
C402   C418    1.403   .     A
C402   C404    1.474   .     S
C403   C409    1.412   .     A
C403   Br448   1.928   .     S
C403   C69     1.390   1_565 S
C404   O431    1.299   .     A
C404   O430    1.298   .     A
C405   C406    1.401   .     A
C405   F437    1.359   .     S
C406   C414    1.443   .     S
C406   C407    1.395   .     A
C407   H423    1.084   .     S
C408   F438    1.358   .     S
C408   C409    1.405   .     A
C408   C71     1.383   1_565 S
C410   N427    1.369   .     A
C410   F439    1.355   .     S
C410   C467    1.418   .     S
C411   F440    1.354   .     S
C411   N426    1.367   .     A
C412   Br441   1.916   .     S
C412   N426    1.382   .     A
C413   N427    1.358   .     A
C413   H424    1.082   .     S
C413   C468    1.412   .     S
C414   O432    1.292   .     A
C414   O433    1.290   .     A
C415   C417    1.467   .     S
C415   O435    1.296   .     A
C415   O434    1.298   .     A
C416   C901    1.417   1_554 S
C416   F947    1.355   1_554 S
C418   H425    1.083   .     S
C418   C419    1.387   .     A
C419   C924    1.392   .     S
C419   F950    1.356   .     S
C420   F445    1.357   .     S
C420   C898    1.421   1_554 S
C420   C923    1.392   1_554 S
Cu421  O430    1.940   .     S
Cu421  O434    1.929   .     S
Cu421  O428    1.959   .     S
Cu421  Cu422   2.685   .     S
Cu421  O432    1.961   .     S
Cu421  N426    2.017   .     S
Cu422  O433    1.959   .     S
Cu422  N427    2.017   .     S
Cu422  O431    1.929   .     S
Cu422  O435    1.940   .     S
Cu422  O429    1.961   .     S
F443   C920    1.355   .     S
F446   C923    1.356   1_554 S
C449   C465    1.450   .     S
C449   O485    1.292   .     A
C449   O484    1.294   .     A
C450   C451    1.414   .     A
C450   C956    1.422   .     S
C450   C980    1.421   .     S
C451   C458    1.421   .     A
C451   C455    1.412   .     A
C452   C456    1.409   .     A
C452   C954    1.422   1_554 S
C452   C957    1.428   1_554 S
C453   C454    1.414   .     A
C453   C956    1.428   .     S
C453   C976    1.417   .     S
C454   Br498   1.930   .     S
C454   C455    1.395   .     A
C455   F503    1.359   .     S
C456   F500    1.359   .     S
C456   C473    1.394   .     A
C457   C472    1.393   .     A
C457   C473    1.399   .     A
C457   F492    1.358   .     S
C458   C474    1.403   .     A
C458   C460    1.474   .     S
C459   C465    1.412   .     A
C459   Br504   1.928   .     S
C459   C125    1.390   1_565 S
C460   O487    1.299   .     A
C460   O486    1.298   .     A
C461   C462    1.401   .     A
C461   F493    1.359   .     S
C462   C470    1.443   .     S
C462   C463    1.395   .     A
C463   H479    1.084   .     S
C464   F494    1.358   .     S
C464   C465    1.405   .     A
C464   C127    1.383   1_565 S
C466   N483    1.369   .     A
C466   F495    1.355   .     S
C466   C355    1.418   1_655 S
C467   F496    1.354   .     S
C467   N482    1.367   .     A
C468   Br497   1.916   .     S
C468   N482    1.382   .     A
C469   N483    1.358   .     A
C469   H480    1.082   .     S
C469   C356    1.412   1_655 S
C470   O488    1.292   .     A
C470   O489    1.290   .     A
C471   C473    1.467   .     S
C471   O491    1.296   .     A
C471   O490    1.298   .     A
C472   C957    1.417   1_554 S
C472   F1003   1.355   1_554 S
C474   H481    1.083   .     S
C474   C475    1.387   .     A
C475   C980    1.392   .     S
C475   F1006   1.356   .     S
C476   F501    1.357   .     S
C476   C954    1.421   1_554 S
C476   C979    1.392   1_554 S
Cu477  O486    1.940   .     S
Cu477  O490    1.929   .     S
Cu477  O484    1.959   .     S
Cu477  Cu478   2.685   .     S
Cu477  O488    1.961   .     S
Cu477  N482    2.017   .     S
Cu478  O489    1.959   .     S
Cu478  N483    2.017   .     S
Cu478  O487    1.929   .     S
Cu478  O491    1.940   .     S
Cu478  O485    1.961   .     S
F499   C976    1.355   .     S
F502   C979    1.356   1_554 S
C505   C521    1.450   .     S
C505   O541    1.292   .     A
C505   O540    1.294   .     A
C506   C507    1.414   .     A
C506   C4      1.422   1_556 S
C506   C28     1.421   1_556 S
C507   C514    1.421   .     A
C507   C511    1.412   .     A
C508   C512    1.409   .     A
C509   C510    1.414   .     A
C509   C4      1.428   1_556 S
C509   C24     1.417   1_556 S
C510   Br554   1.930   .     S
C510   C511    1.395   .     A
C511   F559    1.359   .     S
C512   F556    1.359   .     S
C512   C529    1.394   .     A
C513   C528    1.393   .     A
C513   C529    1.399   .     A
C513   F548    1.358   .     S
C514   C530    1.403   .     A
C514   C516    1.474   .     S
C515   C521    1.412   .     A
C515   Br560   1.928   .     S
C515   C685    1.390   .     S
C516   O543    1.299   .     A
C516   O542    1.298   .     A
C517   C518    1.401   .     A
C517   F549    1.359   .     S
C517   C851    1.390   1_545 S
C518   C526    1.443   .     S
C518   C519    1.395   .     A
C519   H535    1.084   .     S
C519   C856    1.383   1_545 S
C520   F550    1.358   .     S
C520   C521    1.405   .     A
C520   C687    1.383   .     S
C522   N539    1.369   .     A
C522   F551    1.355   .     S
C522   C579    1.418   .     S
C523   F552    1.354   .     S
C523   N538    1.367   .     A
C523   C634    1.418   1_455 S
C524   Br553   1.916   .     S
C524   N538    1.382   .     A
C524   C637    1.412   1_455 S
C525   N539    1.358   .     A
C525   H536    1.082   .     S
C525   C580    1.412   .     S
C526   O544    1.292   .     A
C526   O545    1.290   .     A
C527   C529    1.467   .     S
C527   O547    1.296   .     A
C527   O546    1.298   .     A
C530   H537    1.083   .     S
C530   C531    1.387   .     A
C531   C28     1.392   1_556 S
C531   F54     1.356   1_556 S
C532   F557    1.357   .     S
Cu533  O542    1.940   .     S
Cu533  O546    1.929   .     S
Cu533  O540    1.959   .     S
Cu533  Cu534   2.685   .     S
Cu533  O544    1.961   .     S
Cu533  N538    2.017   .     S
Cu534  O545    1.959   .     S
Cu534  N539    2.017   .     S
Cu534  O543    1.929   .     S
Cu534  O547    1.940   .     S
Cu534  O541    1.961   .     S
F555   C24     1.355   1_556 S
C561   C577    1.450   .     S
C561   O597    1.292   .     A
C561   O596    1.294   .     A
C562   C563    1.414   .     A
C562   C60     1.422   1_556 S
C562   C84     1.421   1_556 S
C563   C570    1.421   .     A
C563   C567    1.412   .     A
C564   C568    1.409   .     A
C565   C566    1.414   .     A
C565   C60     1.428   1_556 S
C565   C80     1.417   1_556 S
C566   Br610   1.930   .     S
C566   C567    1.395   .     A
C567   F615    1.359   .     S
C568   F612    1.359   .     S
C568   C585    1.394   .     A
C569   C584    1.393   .     A
C569   C585    1.399   .     A
C569   F604    1.358   .     S
C570   C586    1.403   .     A
C570   C572    1.474   .     S
C571   C577    1.412   .     A
C571   Br616   1.928   .     S
C571   C741    1.390   .     S
C572   O599    1.299   .     A
C572   O598    1.298   .     A
C573   C574    1.401   .     A
C573   F605    1.359   .     S
C573   C907    1.390   1_545 S
C574   C582    1.443   .     S
C574   C575    1.395   .     A
C575   H591    1.084   .     S
C575   C912    1.383   1_545 S
C576   F606    1.358   .     S
C576   C577    1.405   .     A
C576   C743    1.383   .     S
C578   N595    1.369   .     A
C578   F607    1.355   .     S
C578   C635    1.418   .     S
C579   F608    1.354   .     S
C579   N594    1.367   .     A
C580   Br609   1.916   .     S
C580   N594    1.382   .     A
C581   N595    1.358   .     A
C581   H592    1.082   .     S
C581   C636    1.412   .     S
C582   O600    1.292   .     A
C582   O601    1.290   .     A
C583   C585    1.467   .     S
C583   O603    1.296   .     A
C583   O602    1.298   .     A
C586   H593    1.083   .     S
C586   C587    1.387   .     A
C587   C84     1.392   1_556 S
C587   F110    1.356   1_556 S
C588   F613    1.357   .     S
Cu589  O598    1.940   .     S
Cu589  O602    1.929   .     S
Cu589  O596    1.959   .     S
Cu589  Cu590   2.685   .     S
Cu589  O600    1.961   .     S
Cu589  N594    2.017   .     S
Cu590  O601    1.959   .     S
Cu590  N595    2.017   .     S
Cu590  O599    1.929   .     S
Cu590  O603    1.940   .     S
Cu590  O597    1.961   .     S
F611   C80     1.355   1_556 S
C617   C633    1.450   .     S
C617   O653    1.292   .     A
C617   O652    1.294   .     A
C618   C619    1.414   .     A
C618   C116    1.422   1_556 S
C618   C140    1.421   1_556 S
C619   C626    1.421   .     A
C619   C623    1.412   .     A
C620   C624    1.409   .     A
C621   C622    1.414   .     A
C621   C116    1.428   1_556 S
C621   C136    1.417   1_556 S
C622   Br666   1.930   .     S
C622   C623    1.395   .     A
C623   F671    1.359   .     S
C624   F668    1.359   .     S
C624   C641    1.394   .     A
C625   C640    1.393   .     A
C625   C641    1.399   .     A
C625   F660    1.358   .     S
C626   C642    1.403   .     A
C626   C628    1.474   .     S
C627   C633    1.412   .     A
C627   Br672   1.928   .     S
C627   C797    1.390   .     S
C628   O655    1.299   .     A
C628   O654    1.298   .     A
C629   C630    1.401   .     A
C629   F661    1.359   .     S
C629   C963    1.390   1_545 S
C630   C638    1.443   .     S
C630   C631    1.395   .     A
C631   H647    1.084   .     S
C631   C968    1.383   1_545 S
C632   F662    1.358   .     S
C632   C633    1.405   .     A
C632   C799    1.383   .     S
C634   N651    1.369   .     A
C634   F663    1.355   .     S
C634   C523    1.418   1_655 S
C635   F664    1.354   .     S
C635   N650    1.367   .     A
C636   Br665   1.916   .     S
C636   N650    1.382   .     A
C637   N651    1.358   .     A
C637   H648    1.082   .     S
C637   C524    1.412   1_655 S
C638   O656    1.292   .     A
C638   O657    1.290   .     A
C639   C641    1.467   .     S
C639   O659    1.296   .     A
C639   O658    1.298   .     A
C642   H649    1.083   .     S
C642   C643    1.387   .     A
C643   C140    1.392   1_556 S
C643   F166    1.356   1_556 S
C644   F669    1.357   .     S
Cu645  O654    1.940   .     S
Cu645  O658    1.929   .     S
Cu645  O652    1.959   .     S
Cu645  Cu646   2.685   .     S
Cu645  O656    1.961   .     S
Cu645  N650    2.017   .     S
Cu646  O657    1.959   .     S
Cu646  N651    2.017   .     S
Cu646  O655    1.929   .     S
Cu646  O659    1.940   .     S
Cu646  O653    1.961   .     S
F667   C136    1.355   1_556 S
C673   C689    1.450   .     S
C673   O709    1.292   .     A
C673   O708    1.294   .     A
C674   C675    1.414   .     A
C674   C172    1.422   1_556 S
C674   C196    1.421   1_556 S
C675   C682    1.421   .     A
C675   C679    1.412   .     A
C676   C680    1.409   .     A
C677   C678    1.414   .     A
C677   C172    1.428   1_556 S
C677   C192    1.417   1_556 S
C678   Br722   1.930   .     S
C678   C679    1.395   .     A
C679   F727    1.359   .     S
C680   F724    1.359   .     S
C680   C697    1.394   .     A
C681   C696    1.393   .     A
C681   C697    1.399   .     A
C681   F716    1.358   .     S
C682   C698    1.403   .     A
C682   C684    1.474   .     S
C683   C689    1.412   .     A
C683   Br728   1.928   .     S
C683   C853    1.390   .     S
C684   O711    1.299   .     A
C684   O710    1.298   .     A
C685   C686    1.401   .     A
C685   F717    1.359   .     S
C686   C694    1.443   .     S
C686   C687    1.395   .     A
C687   H703    1.084   .     S
C688   F718    1.358   .     S
C688   C689    1.405   .     A
C688   C855    1.383   .     S
C690   N707    1.369   .     A
C690   F719    1.355   .     S
C690   C747    1.418   .     S
C691   F720    1.354   .     S
C691   N706    1.367   .     A
C691   C802    1.418   1_455 S
C692   Br721   1.916   .     S
C692   N706    1.382   .     A
C692   C805    1.412   1_455 S
C693   N707    1.358   .     A
C693   H704    1.082   .     S
C693   C748    1.412   .     S
C694   O712    1.292   .     A
C694   O713    1.290   .     A
C695   C697    1.467   .     S
C695   O715    1.296   .     A
C695   O714    1.298   .     A
C698   H705    1.083   .     S
C698   C699    1.387   .     A
C699   C196    1.392   1_556 S
C699   F222    1.356   1_556 S
C700   F725    1.357   .     S
Cu701  O710    1.940   .     S
Cu701  O714    1.929   .     S
Cu701  O708    1.959   .     S
Cu701  Cu702   2.685   .     S
Cu701  O712    1.961   .     S
Cu701  N706    2.017   .     S
Cu702  O713    1.959   .     S
Cu702  N707    2.017   .     S
Cu702  O711    1.929   .     S
Cu702  O715    1.940   .     S
Cu702  O709    1.961   .     S
F723   C192    1.355   1_556 S
C729   C745    1.450   .     S
C729   O765    1.292   .     A
C729   O764    1.294   .     A
C730   C731    1.414   .     A
C730   C228    1.422   1_556 S
C730   C252    1.421   1_556 S
C731   C738    1.421   .     A
C731   C735    1.412   .     A
C732   C736    1.409   .     A
C733   C734    1.414   .     A
C733   C228    1.428   1_556 S
C733   C248    1.417   1_556 S
C734   Br778   1.930   .     S
C734   C735    1.395   .     A
C735   F783    1.359   .     S
C736   F780    1.359   .     S
C736   C753    1.394   .     A
C737   C752    1.393   .     A
C737   C753    1.399   .     A
C737   F772    1.358   .     S
C738   C754    1.403   .     A
C738   C740    1.474   .     S
C739   C745    1.412   .     A
C739   Br784   1.928   .     S
C739   C909    1.390   .     S
C740   O767    1.299   .     A
C740   O766    1.298   .     A
C741   C742    1.401   .     A
C741   F773    1.359   .     S
C742   C750    1.443   .     S
C742   C743    1.395   .     A
C743   H759    1.084   .     S
C744   F774    1.358   .     S
C744   C745    1.405   .     A
C744   C911    1.383   .     S
C746   N763    1.369   .     A
C746   F775    1.355   .     S
C746   C803    1.418   .     S
C747   F776    1.354   .     S
C747   N762    1.367   .     A
C748   Br777   1.916   .     S
C748   N762    1.382   .     A
C749   N763    1.358   .     A
C749   H760    1.082   .     S
C749   C804    1.412   .     S
C750   O768    1.292   .     A
C750   O769    1.290   .     A
C751   C753    1.467   .     S
C751   O771    1.296   .     A
C751   O770    1.298   .     A
C754   H761    1.083   .     S
C754   C755    1.387   .     A
C755   C252    1.392   1_556 S
C755   F278    1.356   1_556 S
C756   F781    1.357   .     S
Cu757  O766    1.940   .     S
Cu757  O770    1.929   .     S
Cu757  O764    1.959   .     S
Cu757  Cu758   2.685   .     S
Cu757  O768    1.961   .     S
Cu757  N762    2.017   .     S
Cu758  O769    1.959   .     S
Cu758  N763    2.017   .     S
Cu758  O767    1.929   .     S
Cu758  O771    1.940   .     S
Cu758  O765    1.961   .     S
F779   C248    1.355   1_556 S
C785   C801    1.450   .     S
C785   O821    1.292   .     A
C785   O820    1.294   .     A
C786   C787    1.414   .     A
C786   C284    1.422   1_556 S
C786   C308    1.421   1_556 S
C787   C794    1.421   .     A
C787   C791    1.412   .     A
C788   C792    1.409   .     A
C789   C790    1.414   .     A
C789   C284    1.428   1_556 S
C789   C304    1.417   1_556 S
C790   Br834   1.930   .     S
C790   C791    1.395   .     A
C791   F839    1.359   .     S
C792   F836    1.359   .     S
C792   C809    1.394   .     A
C793   C808    1.393   .     A
C793   C809    1.399   .     A
C793   F828    1.358   .     S
C794   C810    1.403   .     A
C794   C796    1.474   .     S
C795   C801    1.412   .     A
C795   Br840   1.928   .     S
C795   C965    1.390   .     S
C796   O823    1.299   .     A
C796   O822    1.298   .     A
C797   C798    1.401   .     A
C797   F829    1.359   .     S
C798   C806    1.443   .     S
C798   C799    1.395   .     A
C799   H815    1.084   .     S
C800   F830    1.358   .     S
C800   C801    1.405   .     A
C800   C967    1.383   .     S
C802   N819    1.369   .     A
C802   F831    1.355   .     S
C802   C691    1.418   1_655 S
C803   F832    1.354   .     S
C803   N818    1.367   .     A
C804   Br833   1.916   .     S
C804   N818    1.382   .     A
C805   N819    1.358   .     A
C805   H816    1.082   .     S
C805   C692    1.412   1_655 S
C806   O824    1.292   .     A
C806   O825    1.290   .     A
C807   C809    1.467   .     S
C807   O827    1.296   .     A
C807   O826    1.298   .     A
C810   H817    1.083   .     S
C810   C811    1.387   .     A
C811   C308    1.392   1_556 S
C811   F334    1.356   1_556 S
C812   F837    1.357   .     S
Cu813  O822    1.940   .     S
Cu813  O826    1.929   .     S
Cu813  O820    1.959   .     S
Cu813  Cu814   2.685   .     S
Cu813  O824    1.961   .     S
Cu813  N818    2.017   .     S
Cu814  O825    1.959   .     S
Cu814  N819    2.017   .     S
Cu814  O823    1.929   .     S
Cu814  O827    1.940   .     S
Cu814  O821    1.961   .     S
F835   C304    1.355   1_556 S
C841   C857    1.450   .     S
C841   O877    1.292   .     A
C841   O876    1.294   .     A
C842   C843    1.414   .     A
C842   C340    1.422   1_556 S
C842   C364    1.421   1_556 S
C843   C850    1.421   .     A
C843   C847    1.412   .     A
C844   C848    1.409   .     A
C845   C846    1.414   .     A
C845   C340    1.428   1_556 S
C845   C360    1.417   1_556 S
C846   Br890   1.930   .     S
C846   C847    1.395   .     A
C847   F895    1.359   .     S
C848   F892    1.359   .     S
C848   C865    1.394   .     A
C849   C864    1.393   .     A
C849   C865    1.399   .     A
C849   F884    1.358   .     S
C850   C866    1.403   .     A
C850   C852    1.474   .     S
C851   C857    1.412   .     A
C851   Br896   1.928   .     S
C851   C517    1.390   1_565 S
C852   O879    1.299   .     A
C852   O878    1.298   .     A
C853   C854    1.401   .     A
C853   F885    1.359   .     S
C854   C862    1.443   .     S
C854   C855    1.395   .     A
C855   H871    1.084   .     S
C856   F886    1.358   .     S
C856   C857    1.405   .     A
C856   C519    1.383   1_565 S
C858   N875    1.369   .     A
C858   F887    1.355   .     S
C858   C915    1.418   .     S
C859   F888    1.354   .     S
C859   N874    1.367   .     A
C859   C970    1.418   1_455 S
C860   Br889   1.916   .     S
C860   N874    1.382   .     A
C860   C973    1.412   1_455 S
C861   N875    1.358   .     A
C861   H872    1.082   .     S
C861   C916    1.412   .     S
C862   O880    1.292   .     A
C862   O881    1.290   .     A
C863   C865    1.467   .     S
C863   O883    1.296   .     A
C863   O882    1.298   .     A
C866   H873    1.083   .     S
C866   C867    1.387   .     A
C867   C364    1.392   1_556 S
C867   F390    1.356   1_556 S
C868   F893    1.357   .     S
Cu869  O878    1.940   .     S
Cu869  O882    1.929   .     S
Cu869  O876    1.959   .     S
Cu869  Cu870   2.685   .     S
Cu869  O880    1.961   .     S
Cu869  N874    2.017   .     S
Cu870  O881    1.959   .     S
Cu870  N875    2.017   .     S
Cu870  O879    1.929   .     S
Cu870  O883    1.940   .     S
Cu870  O877    1.961   .     S
F891   C360    1.355   1_556 S
C897   C913    1.450   .     S
C897   O933    1.292   .     A
C897   O932    1.294   .     A
C898   C899    1.414   .     A
C898   C396    1.422   1_556 S
C898   C420    1.421   1_556 S
C899   C906    1.421   .     A
C899   C903    1.412   .     A
C900   C904    1.409   .     A
C901   C902    1.414   .     A
C901   C396    1.428   1_556 S
C901   C416    1.417   1_556 S
C902   Br946   1.930   .     S
C902   C903    1.395   .     A
C903   F951    1.359   .     S
C904   F948    1.359   .     S
C904   C921    1.394   .     A
C905   C920    1.393   .     A
C905   C921    1.399   .     A
C905   F940    1.358   .     S
C906   C922    1.403   .     A
C906   C908    1.474   .     S
C907   C913    1.412   .     A
C907   Br952   1.928   .     S
C907   C573    1.390   1_565 S
C908   O935    1.299   .     A
C908   O934    1.298   .     A
C909   C910    1.401   .     A
C909   F941    1.359   .     S
C910   C918    1.443   .     S
C910   C911    1.395   .     A
C911   H927    1.084   .     S
C912   F942    1.358   .     S
C912   C913    1.405   .     A
C912   C575    1.383   1_565 S
C914   N931    1.369   .     A
C914   F943    1.355   .     S
C914   C971    1.418   .     S
C915   F944    1.354   .     S
C915   N930    1.367   .     A
C916   Br945   1.916   .     S
C916   N930    1.382   .     A
C917   N931    1.358   .     A
C917   H928    1.082   .     S
C917   C972    1.412   .     S
C918   O936    1.292   .     A
C918   O937    1.290   .     A
C919   C921    1.467   .     S
C919   O939    1.296   .     A
C919   O938    1.298   .     A
C922   H929    1.083   .     S
C922   C923    1.387   .     A
C923   C420    1.392   1_556 S
C923   F446    1.356   1_556 S
C924   F949    1.357   .     S
Cu925  O934    1.940   .     S
Cu925  O938    1.929   .     S
Cu925  O932    1.959   .     S
Cu925  Cu926   2.685   .     S
Cu925  O936    1.961   .     S
Cu925  N930    2.017   .     S
Cu926  O937    1.959   .     S
Cu926  N931    2.017   .     S
Cu926  O935    1.929   .     S
Cu926  O939    1.940   .     S
Cu926  O933    1.961   .     S
F947   C416    1.355   1_556 S
C953   C969    1.450   .     S
C953   O989    1.292   .     A
C953   O988    1.294   .     A
C954   C955    1.414   .     A
C954   C452    1.422   1_556 S
C954   C476    1.421   1_556 S
C955   C962    1.421   .     A
C955   C959    1.412   .     A
C956   C960    1.409   .     A
C957   C958    1.414   .     A
C957   C452    1.428   1_556 S
C957   C472    1.417   1_556 S
C958   Br1002  1.930   .     S
C958   C959    1.395   .     A
C959   F1007   1.359   .     S
C960   F1004   1.359   .     S
C960   C977    1.394   .     A
C961   C976    1.393   .     A
C961   C977    1.399   .     A
C961   F996    1.358   .     S
C962   C978    1.403   .     A
C962   C964    1.474   .     S
C963   C969    1.412   .     A
C963   Br1008  1.928   .     S
C963   C629    1.390   1_565 S
C964   O991    1.299   .     A
C964   O990    1.298   .     A
C965   C966    1.401   .     A
C965   F997    1.359   .     S
C966   C974    1.443   .     S
C966   C967    1.395   .     A
C967   H983    1.084   .     S
C968   F998    1.358   .     S
C968   C969    1.405   .     A
C968   C631    1.383   1_565 S
C970   N987    1.369   .     A
C970   F999    1.355   .     S
C970   C859    1.418   1_655 S
C971   F1000   1.354   .     S
C971   N986    1.367   .     A
C972   Br1001  1.916   .     S
C972   N986    1.382   .     A
C973   N987    1.358   .     A
C973   H984    1.082   .     S
C973   C860    1.412   1_655 S
C974   O992    1.292   .     A
C974   O993    1.290   .     A
C975   C977    1.467   .     S
C975   O995    1.296   .     A
C975   O994    1.298   .     A
C978   H985    1.083   .     S
C978   C979    1.387   .     A
C979   C476    1.392   1_556 S
C979   F502    1.356   1_556 S
C980   F1005   1.357   .     S
Cu981  O990    1.940   .     S
Cu981  O994    1.929   .     S
Cu981  O988    1.959   .     S
Cu981  Cu982   2.685   .     S
Cu981  O992    1.961   .     S
Cu981  N986    2.017   .     S
Cu982  O993    1.959   .     S
Cu982  N987    2.017   .     S
Cu982  O991    1.929   .     S
Cu982  O995    1.940   .     S
Cu982  O989    1.961   .     S
F1003  C472    1.355   1_556 S
