data_str_m2_o2_o10_pcu_sym.217
_audit_creation_date              2020-01-03
_audit_creation_method            'Materials Studio'
_symmetry_space_group_name_H-M    'P1'
_symmetry_Int_Tables_number       1
_symmetry_cell_setting            triclinic
loop_
_symmetry_equiv_pos_as_xyz
  x,y,z
_cell_length_a                    26.1944
_cell_length_b                    30.2273
_cell_length_c                    27.8589
_cell_angle_alpha                 90.3805
_cell_angle_beta                  98.4785
_cell_angle_gamma                 91.3842
loop_
_atom_site_label
_atom_site_type_symbol
_atom_site_fract_x
_atom_site_fract_y
_atom_site_fract_z
_atom_site_U_iso_or_equiv
_atom_site_adp_type
_atom_site_occupancy
C1     C     0.16480   0.16495   0.24969   0.00000  Uiso   1.00
C2     C     0.16490   0.33501   0.24978   0.00000  Uiso   1.00
C3     C     0.19135   0.28471   0.05792   0.00000  Uiso   1.00
C4     C     0.12592   0.22927   0.43998   0.00000  Uiso   1.00
C5     C     0.19180   0.28324   0.10861   0.00000  Uiso   1.00
C6     C     0.12762   0.22885   0.38958   0.00000  Uiso   1.00
C7     C     0.14069   0.21716   0.09990   0.00000  Uiso   1.00
C8     C     0.20528   0.27189   0.40177   0.00000  Uiso   1.00
C9     C     0.14153   0.21692   0.04944   0.00000  Uiso   1.00
C10    C     0.20557   0.27116   0.45239   0.00000  Uiso   1.00
C11    C     0.16606   0.25099   0.02717   0.00000  Uiso   1.00
C12    C     0.16555   0.25055   0.47262   0.00000  Uiso   1.00
C13    C     0.06789   0.24992   0.23747   0.00000  Uiso   1.00
C14    C     0.26545   0.25004   0.26254   0.00000  Uiso   1.00
C15    C     0.01247   0.24993   0.23069   0.00000  Uiso   1.00
C16    C     0.32087   0.25000   0.26934   0.00000  Uiso   1.00
C17    C     0.14220   0.04597   0.28400   0.00000  Uiso   1.00
C18    C     0.14403   0.45313   0.20846   0.00000  Uiso   1.00
C19    C     0.13813   0.09204   0.28316   0.00000  Uiso   1.00
C20    C     0.13996   0.40688   0.20800   0.00000  Uiso   1.00
C21    C     0.16297   0.11647   0.24946   0.00000  Uiso   1.00
C22    C     0.16308   0.38347   0.24934   0.00000  Uiso   1.00
C23    C     0.18832   0.09413   0.21586   0.00000  Uiso   1.00
C24    C     0.18677   0.40696   0.29067   0.00000  Uiso   1.00
C25    C     0.19041   0.04827   0.21615   0.00000  Uiso   1.00
C26    C     0.18881   0.45291   0.29102   0.00000  Uiso   1.00
C27    C     0.16797   0.02423   0.25060   0.00000  Uiso   1.00
C28    C     0.16803   0.47598   0.24975   0.00000  Uiso   1.00
Cu29   Cu    0.16667   0.24999   0.29822   0.00000  Uiso   1.00
Cu30   Cu    0.16667   0.25000   0.20179   0.00000  Uiso   1.00
H31    H     0.32547   0.24989   0.19373   0.00000  Uiso   1.00
H32    H     0.00787   0.25004   0.30630   0.00000  Uiso   1.00
H33    H     0.21033   0.31257   0.04324   0.00000  Uiso   1.00
H34    H     0.09317   0.21336   0.45285   0.00000  Uiso   1.00
H35    H     0.21190   0.30925   0.13128   0.00000  Uiso   1.00
H36    H     0.09698   0.21197   0.36560   0.00000  Uiso   1.00
N37    N     0.16667   0.25001   0.12935   0.00000  Uiso   1.00
N38    N     0.16667   0.24999   0.37066   0.00000  Uiso   1.00
O39    O     0.16667   0.18572   0.29072   0.00000  Uiso   1.00
O40    O     0.16666   0.31427   0.20929   0.00000  Uiso   1.00
O41    O     0.16667   0.18573   0.20928   0.00000  Uiso   1.00
O42    O     0.16666   0.31427   0.29072   0.00000  Uiso   1.00
O43    O     0.09161   0.24999   0.28132   0.00000  Uiso   1.00
O44    O     0.24172   0.25000   0.21868   0.00000  Uiso   1.00
O45    O     0.09161   0.25000   0.19989   0.00000  Uiso   1.00
O46    O     0.24172   0.25000   0.30012   0.00000  Uiso   1.00
H47    H     0.12328   0.02658   0.30919   0.00000  Uiso   1.00
H48    H     0.12639   0.47173   0.17747   0.00000  Uiso   1.00
C49    C     0.10500   0.11324   0.31523   0.00000  Uiso   1.00
H50    H     0.08946   0.14568   0.30698   0.00000  Uiso   1.00
O51    O     0.09371   0.09423   0.35091   0.00000  Uiso   1.00
C52    C     0.10860   0.38440   0.16555   0.00000  Uiso   1.00
H53    H     0.09229   0.35144   0.16869   0.00000  Uiso   1.00
O54    O     0.09960   0.40295   0.12651   0.00000  Uiso   1.00
H55    H     0.20720   0.11224   0.18970   0.00000  Uiso   1.00
H56    H     0.20436   0.38975   0.32264   0.00000  Uiso   1.00
H57    H     0.20993   0.03149   0.18985   0.00000  Uiso   1.00
H58    H     0.20700   0.47054   0.32328   0.00000  Uiso   1.00
C59    C     0.10941   0.18178   0.11901   0.00000  Uiso   1.00
H60    H     0.09009   0.18732   0.14995   0.00000  Uiso   1.00
O61    O     0.10381   0.14541   0.09929   0.00000  Uiso   1.00
C62    C     0.24684   0.29835   0.38402   0.00000  Uiso   1.00
H63    H     0.24055   0.31489   0.34966   0.00000  Uiso   1.00
O64    O     0.28928   0.30290   0.40866   0.00000  Uiso   1.00
H65    H     0.12229   0.19001   0.02755   0.00000  Uiso   1.00
H66    H     0.23718   0.28735   0.47591   0.00000  Uiso   1.00
C67    C     0.49814   0.16495   0.24969   0.00000  Uiso   1.00
C68    C     0.49824   0.33501   0.24978   0.00000  Uiso   1.00
C69    C     0.52468   0.28471   0.05792   0.00000  Uiso   1.00
C70    C     0.45925   0.22927   0.43998   0.00000  Uiso   1.00
C71    C     0.52513   0.28324   0.10861   0.00000  Uiso   1.00
C72    C     0.46095   0.22885   0.38958   0.00000  Uiso   1.00
C73    C     0.47402   0.21716   0.09990   0.00000  Uiso   1.00
C74    C     0.53862   0.27189   0.40177   0.00000  Uiso   1.00
C75    C     0.47486   0.21692   0.04944   0.00000  Uiso   1.00
C76    C     0.53890   0.27116   0.45239   0.00000  Uiso   1.00
C77    C     0.49939   0.25099   0.02717   0.00000  Uiso   1.00
C78    C     0.49888   0.25055   0.47262   0.00000  Uiso   1.00
C79    C     0.40122   0.24992   0.23747   0.00000  Uiso   1.00
C80    C     0.59878   0.25004   0.26254   0.00000  Uiso   1.00
C81    C     0.34581   0.24993   0.23069   0.00000  Uiso   1.00
C82    C     0.65420   0.25000   0.26934   0.00000  Uiso   1.00
C83    C     0.47554   0.04597   0.28400   0.00000  Uiso   1.00
C84    C     0.47736   0.45313   0.20846   0.00000  Uiso   1.00
C85    C     0.47147   0.09204   0.28316   0.00000  Uiso   1.00
C86    C     0.47330   0.40688   0.20800   0.00000  Uiso   1.00
C87    C     0.49630   0.11647   0.24946   0.00000  Uiso   1.00
C88    C     0.49641   0.38347   0.24934   0.00000  Uiso   1.00
C89    C     0.52165   0.09413   0.21586   0.00000  Uiso   1.00
C90    C     0.52010   0.40696   0.29067   0.00000  Uiso   1.00
C91    C     0.52374   0.04827   0.21615   0.00000  Uiso   1.00
C92    C     0.52214   0.45291   0.29102   0.00000  Uiso   1.00
C93    C     0.50130   0.02423   0.25060   0.00000  Uiso   1.00
C94    C     0.50137   0.47598   0.24975   0.00000  Uiso   1.00
Cu95   Cu    0.50000   0.24999   0.29822   0.00000  Uiso   1.00
Cu96   Cu    0.50000   0.25000   0.20179   0.00000  Uiso   1.00
H97    H     0.65880   0.24989   0.19373   0.00000  Uiso   1.00
H98    H     0.34120   0.25004   0.30630   0.00000  Uiso   1.00
H99    H     0.54367   0.31257   0.04324   0.00000  Uiso   1.00
H100   H     0.42651   0.21336   0.45285   0.00000  Uiso   1.00
H101   H     0.54524   0.30925   0.13128   0.00000  Uiso   1.00
H102   H     0.43031   0.21197   0.36560   0.00000  Uiso   1.00
N103   N     0.50000   0.25001   0.12935   0.00000  Uiso   1.00
N104   N     0.50000   0.24999   0.37066   0.00000  Uiso   1.00
O105   O     0.50000   0.18572   0.29072   0.00000  Uiso   1.00
O106   O     0.50000   0.31427   0.20929   0.00000  Uiso   1.00
O107   O     0.50000   0.18573   0.20928   0.00000  Uiso   1.00
O108   O     0.50000   0.31427   0.29072   0.00000  Uiso   1.00
O109   O     0.42495   0.24999   0.28132   0.00000  Uiso   1.00
O110   O     0.57505   0.25000   0.21868   0.00000  Uiso   1.00
O111   O     0.42495   0.25000   0.19989   0.00000  Uiso   1.00
O112   O     0.57505   0.25000   0.30012   0.00000  Uiso   1.00
H113   H     0.45661   0.02658   0.30919   0.00000  Uiso   1.00
H114   H     0.45972   0.47173   0.17747   0.00000  Uiso   1.00
C115   C     0.43833   0.11324   0.31523   0.00000  Uiso   1.00
H116   H     0.42279   0.14568   0.30698   0.00000  Uiso   1.00
O117   O     0.42704   0.09423   0.35091   0.00000  Uiso   1.00
C118   C     0.44193   0.38440   0.16555   0.00000  Uiso   1.00
H119   H     0.42562   0.35144   0.16869   0.00000  Uiso   1.00
O120   O     0.43294   0.40295   0.12651   0.00000  Uiso   1.00
H121   H     0.54053   0.11224   0.18970   0.00000  Uiso   1.00
H122   H     0.53770   0.38975   0.32264   0.00000  Uiso   1.00
H123   H     0.54327   0.03149   0.18985   0.00000  Uiso   1.00
H124   H     0.54034   0.47054   0.32328   0.00000  Uiso   1.00
C125   C     0.44275   0.18178   0.11901   0.00000  Uiso   1.00
H126   H     0.42342   0.18732   0.14995   0.00000  Uiso   1.00
O127   O     0.43714   0.14541   0.09929   0.00000  Uiso   1.00
C128   C     0.58017   0.29835   0.38402   0.00000  Uiso   1.00
H129   H     0.57389   0.31489   0.34966   0.00000  Uiso   1.00
O130   O     0.62261   0.30290   0.40866   0.00000  Uiso   1.00
H131   H     0.45562   0.19001   0.02755   0.00000  Uiso   1.00
H132   H     0.57052   0.28735   0.47591   0.00000  Uiso   1.00
C133   C     0.83147   0.16495   0.24969   0.00000  Uiso   1.00
C134   C     0.83157   0.33501   0.24978   0.00000  Uiso   1.00
C135   C     0.85802   0.28471   0.05792   0.00000  Uiso   1.00
C136   C     0.79259   0.22927   0.43998   0.00000  Uiso   1.00
C137   C     0.85846   0.28324   0.10861   0.00000  Uiso   1.00
C138   C     0.79428   0.22885   0.38958   0.00000  Uiso   1.00
C139   C     0.80736   0.21716   0.09990   0.00000  Uiso   1.00
C140   C     0.87195   0.27189   0.40177   0.00000  Uiso   1.00
C141   C     0.80820   0.21692   0.04944   0.00000  Uiso   1.00
C142   C     0.87224   0.27116   0.45239   0.00000  Uiso   1.00
C143   C     0.83273   0.25099   0.02717   0.00000  Uiso   1.00
C144   C     0.83221   0.25055   0.47262   0.00000  Uiso   1.00
C145   C     0.73455   0.24992   0.23747   0.00000  Uiso   1.00
C146   C     0.93211   0.25004   0.26254   0.00000  Uiso   1.00
C147   C     0.67914   0.24993   0.23069   0.00000  Uiso   1.00
C148   C     0.98754   0.25000   0.26934   0.00000  Uiso   1.00
C149   C     0.80887   0.04597   0.28400   0.00000  Uiso   1.00
C150   C     0.81070   0.45313   0.20846   0.00000  Uiso   1.00
C151   C     0.80480   0.09204   0.28316   0.00000  Uiso   1.00
C152   C     0.80663   0.40688   0.20800   0.00000  Uiso   1.00
C153   C     0.82963   0.11647   0.24946   0.00000  Uiso   1.00
C154   C     0.82974   0.38347   0.24934   0.00000  Uiso   1.00
C155   C     0.85498   0.09413   0.21586   0.00000  Uiso   1.00
C156   C     0.85343   0.40696   0.29067   0.00000  Uiso   1.00
C157   C     0.85708   0.04827   0.21615   0.00000  Uiso   1.00
C158   C     0.85548   0.45291   0.29102   0.00000  Uiso   1.00
C159   C     0.83463   0.02423   0.25060   0.00000  Uiso   1.00
C160   C     0.83470   0.47598   0.24975   0.00000  Uiso   1.00
Cu161  Cu    0.83333   0.24999   0.29822   0.00000  Uiso   1.00
Cu162  Cu    0.83333   0.25000   0.20179   0.00000  Uiso   1.00
H163   H     0.99214   0.24989   0.19373   0.00000  Uiso   1.00
H164   H     0.67453   0.25004   0.30630   0.00000  Uiso   1.00
H165   H     0.87700   0.31257   0.04324   0.00000  Uiso   1.00
H166   H     0.75984   0.21336   0.45285   0.00000  Uiso   1.00
H167   H     0.87857   0.30925   0.13128   0.00000  Uiso   1.00
H168   H     0.76365   0.21197   0.36560   0.00000  Uiso   1.00
N169   N     0.83333   0.25001   0.12935   0.00000  Uiso   1.00
N170   N     0.83333   0.24999   0.37066   0.00000  Uiso   1.00
O171   O     0.83334   0.18572   0.29072   0.00000  Uiso   1.00
O172   O     0.83333   0.31427   0.20929   0.00000  Uiso   1.00
O173   O     0.83334   0.18573   0.20928   0.00000  Uiso   1.00
O174   O     0.83333   0.31427   0.29072   0.00000  Uiso   1.00
O175   O     0.75828   0.24999   0.28132   0.00000  Uiso   1.00
O176   O     0.90839   0.25000   0.21868   0.00000  Uiso   1.00
O177   O     0.75828   0.25000   0.19989   0.00000  Uiso   1.00
O178   O     0.90839   0.25000   0.30012   0.00000  Uiso   1.00
H179   H     0.78995   0.02658   0.30919   0.00000  Uiso   1.00
H180   H     0.79305   0.47173   0.17747   0.00000  Uiso   1.00
C181   C     0.77167   0.11324   0.31523   0.00000  Uiso   1.00
H182   H     0.75613   0.14568   0.30698   0.00000  Uiso   1.00
O183   O     0.76038   0.09423   0.35091   0.00000  Uiso   1.00
C184   C     0.77526   0.38440   0.16555   0.00000  Uiso   1.00
H185   H     0.75896   0.35144   0.16869   0.00000  Uiso   1.00
O186   O     0.76627   0.40295   0.12651   0.00000  Uiso   1.00
H187   H     0.87387   0.11224   0.18970   0.00000  Uiso   1.00
H188   H     0.87103   0.38975   0.32264   0.00000  Uiso   1.00
H189   H     0.87660   0.03149   0.18985   0.00000  Uiso   1.00
H190   H     0.87367   0.47054   0.32328   0.00000  Uiso   1.00
C191   C     0.77608   0.18178   0.11901   0.00000  Uiso   1.00
H192   H     0.75675   0.18732   0.14995   0.00000  Uiso   1.00
O193   O     0.77047   0.14541   0.09929   0.00000  Uiso   1.00
C194   C     0.91351   0.29835   0.38402   0.00000  Uiso   1.00
H195   H     0.90722   0.31489   0.34966   0.00000  Uiso   1.00
O196   O     0.95595   0.30290   0.40866   0.00000  Uiso   1.00
H197   H     0.78896   0.19001   0.02755   0.00000  Uiso   1.00
H198   H     0.90385   0.28735   0.47591   0.00000  Uiso   1.00
C199   C     0.16480   0.66495   0.24969   0.00000  Uiso   1.00
C200   C     0.16490   0.83501   0.24978   0.00000  Uiso   1.00
C201   C     0.19135   0.78471   0.05792   0.00000  Uiso   1.00
C202   C     0.12592   0.72927   0.43998   0.00000  Uiso   1.00
C203   C     0.19180   0.78324   0.10861   0.00000  Uiso   1.00
C204   C     0.12762   0.72885   0.38958   0.00000  Uiso   1.00
C205   C     0.14069   0.71716   0.09990   0.00000  Uiso   1.00
C206   C     0.20528   0.77189   0.40177   0.00000  Uiso   1.00
C207   C     0.14153   0.71692   0.04944   0.00000  Uiso   1.00
C208   C     0.20557   0.77116   0.45239   0.00000  Uiso   1.00
C209   C     0.16606   0.75099   0.02717   0.00000  Uiso   1.00
C210   C     0.16555   0.75055   0.47262   0.00000  Uiso   1.00
C211   C     0.06789   0.74992   0.23747   0.00000  Uiso   1.00
C212   C     0.26545   0.75004   0.26254   0.00000  Uiso   1.00
C213   C     0.01247   0.74993   0.23069   0.00000  Uiso   1.00
C214   C     0.32087   0.75000   0.26934   0.00000  Uiso   1.00
C215   C     0.14220   0.54597   0.28400   0.00000  Uiso   1.00
C216   C     0.14403   0.95313   0.20846   0.00000  Uiso   1.00
C217   C     0.13813   0.59204   0.28316   0.00000  Uiso   1.00
C218   C     0.13996   0.90688   0.20800   0.00000  Uiso   1.00
C219   C     0.16297   0.61647   0.24946   0.00000  Uiso   1.00
C220   C     0.16308   0.88347   0.24934   0.00000  Uiso   1.00
C221   C     0.18832   0.59413   0.21586   0.00000  Uiso   1.00
C222   C     0.18677   0.90696   0.29067   0.00000  Uiso   1.00
C223   C     0.19041   0.54827   0.21615   0.00000  Uiso   1.00
C224   C     0.18881   0.95291   0.29102   0.00000  Uiso   1.00
C225   C     0.16797   0.52423   0.25060   0.00000  Uiso   1.00
C226   C     0.16803   0.97598   0.24975   0.00000  Uiso   1.00
Cu227  Cu    0.16667   0.74999   0.29822   0.00000  Uiso   1.00
Cu228  Cu    0.16667   0.75000   0.20179   0.00000  Uiso   1.00
H229   H     0.32547   0.74989   0.19373   0.00000  Uiso   1.00
H230   H     0.00787   0.75004   0.30630   0.00000  Uiso   1.00
H231   H     0.21033   0.81257   0.04324   0.00000  Uiso   1.00
H232   H     0.09317   0.71336   0.45285   0.00000  Uiso   1.00
H233   H     0.21190   0.80925   0.13128   0.00000  Uiso   1.00
H234   H     0.09698   0.71197   0.36560   0.00000  Uiso   1.00
N235   N     0.16667   0.75001   0.12935   0.00000  Uiso   1.00
N236   N     0.16667   0.74999   0.37066   0.00000  Uiso   1.00
O237   O     0.16667   0.68572   0.29072   0.00000  Uiso   1.00
O238   O     0.16666   0.81427   0.20929   0.00000  Uiso   1.00
O239   O     0.16667   0.68573   0.20928   0.00000  Uiso   1.00
O240   O     0.16666   0.81427   0.29072   0.00000  Uiso   1.00
O241   O     0.09161   0.74999   0.28132   0.00000  Uiso   1.00
O242   O     0.24172   0.75000   0.21868   0.00000  Uiso   1.00
O243   O     0.09161   0.75000   0.19989   0.00000  Uiso   1.00
O244   O     0.24172   0.75000   0.30012   0.00000  Uiso   1.00
H245   H     0.12328   0.52658   0.30919   0.00000  Uiso   1.00
H246   H     0.12639   0.97173   0.17747   0.00000  Uiso   1.00
C247   C     0.10500   0.61324   0.31523   0.00000  Uiso   1.00
H248   H     0.08946   0.64568   0.30698   0.00000  Uiso   1.00
O249   O     0.09371   0.59423   0.35091   0.00000  Uiso   1.00
C250   C     0.10860   0.88440   0.16555   0.00000  Uiso   1.00
H251   H     0.09229   0.85144   0.16869   0.00000  Uiso   1.00
O252   O     0.09960   0.90295   0.12651   0.00000  Uiso   1.00
H253   H     0.20720   0.61224   0.18970   0.00000  Uiso   1.00
H254   H     0.20436   0.88975   0.32264   0.00000  Uiso   1.00
H255   H     0.20993   0.53149   0.18985   0.00000  Uiso   1.00
H256   H     0.20700   0.97054   0.32328   0.00000  Uiso   1.00
C257   C     0.10941   0.68178   0.11901   0.00000  Uiso   1.00
H258   H     0.09009   0.68732   0.14995   0.00000  Uiso   1.00
O259   O     0.10381   0.64541   0.09929   0.00000  Uiso   1.00
C260   C     0.24684   0.79835   0.38402   0.00000  Uiso   1.00
H261   H     0.24055   0.81489   0.34966   0.00000  Uiso   1.00
O262   O     0.28928   0.80290   0.40866   0.00000  Uiso   1.00
H263   H     0.12229   0.69001   0.02755   0.00000  Uiso   1.00
H264   H     0.23718   0.78735   0.47591   0.00000  Uiso   1.00
C265   C     0.49814   0.66495   0.24969   0.00000  Uiso   1.00
C266   C     0.49824   0.83501   0.24978   0.00000  Uiso   1.00
C267   C     0.52468   0.78471   0.05792   0.00000  Uiso   1.00
C268   C     0.45925   0.72927   0.43998   0.00000  Uiso   1.00
C269   C     0.52513   0.78324   0.10861   0.00000  Uiso   1.00
C270   C     0.46095   0.72885   0.38958   0.00000  Uiso   1.00
C271   C     0.47402   0.71716   0.09990   0.00000  Uiso   1.00
C272   C     0.53862   0.77189   0.40177   0.00000  Uiso   1.00
C273   C     0.47486   0.71692   0.04944   0.00000  Uiso   1.00
C274   C     0.53890   0.77116   0.45239   0.00000  Uiso   1.00
C275   C     0.49939   0.75099   0.02717   0.00000  Uiso   1.00
C276   C     0.49888   0.75055   0.47262   0.00000  Uiso   1.00
C277   C     0.40122   0.74992   0.23747   0.00000  Uiso   1.00
C278   C     0.59878   0.75004   0.26254   0.00000  Uiso   1.00
C279   C     0.34581   0.74993   0.23069   0.00000  Uiso   1.00
C280   C     0.65420   0.75000   0.26934   0.00000  Uiso   1.00
C281   C     0.47554   0.54597   0.28400   0.00000  Uiso   1.00
C282   C     0.47736   0.95313   0.20846   0.00000  Uiso   1.00
C283   C     0.47147   0.59204   0.28316   0.00000  Uiso   1.00
C284   C     0.47330   0.90688   0.20800   0.00000  Uiso   1.00
C285   C     0.49630   0.61647   0.24946   0.00000  Uiso   1.00
C286   C     0.49641   0.88347   0.24934   0.00000  Uiso   1.00
C287   C     0.52165   0.59413   0.21586   0.00000  Uiso   1.00
C288   C     0.52010   0.90696   0.29067   0.00000  Uiso   1.00
C289   C     0.52374   0.54827   0.21615   0.00000  Uiso   1.00
C290   C     0.52214   0.95291   0.29102   0.00000  Uiso   1.00
C291   C     0.50130   0.52423   0.25060   0.00000  Uiso   1.00
C292   C     0.50137   0.97598   0.24975   0.00000  Uiso   1.00
Cu293  Cu    0.50000   0.74999   0.29822   0.00000  Uiso   1.00
Cu294  Cu    0.50000   0.75000   0.20179   0.00000  Uiso   1.00
H295   H     0.65880   0.74989   0.19373   0.00000  Uiso   1.00
H296   H     0.34120   0.75004   0.30630   0.00000  Uiso   1.00
H297   H     0.54367   0.81257   0.04324   0.00000  Uiso   1.00
H298   H     0.42651   0.71336   0.45285   0.00000  Uiso   1.00
H299   H     0.54524   0.80925   0.13128   0.00000  Uiso   1.00
H300   H     0.43031   0.71197   0.36560   0.00000  Uiso   1.00
N301   N     0.50000   0.75001   0.12935   0.00000  Uiso   1.00
N302   N     0.50000   0.74999   0.37066   0.00000  Uiso   1.00
O303   O     0.50000   0.68572   0.29072   0.00000  Uiso   1.00
O304   O     0.50000   0.81427   0.20929   0.00000  Uiso   1.00
O305   O     0.50000   0.68573   0.20928   0.00000  Uiso   1.00
O306   O     0.50000   0.81427   0.29072   0.00000  Uiso   1.00
O307   O     0.42495   0.74999   0.28132   0.00000  Uiso   1.00
O308   O     0.57505   0.75000   0.21868   0.00000  Uiso   1.00
O309   O     0.42495   0.75000   0.19989   0.00000  Uiso   1.00
O310   O     0.57505   0.75000   0.30012   0.00000  Uiso   1.00
H311   H     0.45661   0.52658   0.30919   0.00000  Uiso   1.00
H312   H     0.45972   0.97173   0.17747   0.00000  Uiso   1.00
C313   C     0.43833   0.61324   0.31523   0.00000  Uiso   1.00
H314   H     0.42279   0.64568   0.30698   0.00000  Uiso   1.00
O315   O     0.42704   0.59423   0.35091   0.00000  Uiso   1.00
C316   C     0.44193   0.88440   0.16555   0.00000  Uiso   1.00
H317   H     0.42562   0.85144   0.16869   0.00000  Uiso   1.00
O318   O     0.43294   0.90295   0.12651   0.00000  Uiso   1.00
H319   H     0.54053   0.61224   0.18970   0.00000  Uiso   1.00
H320   H     0.53770   0.88975   0.32264   0.00000  Uiso   1.00
H321   H     0.54327   0.53149   0.18985   0.00000  Uiso   1.00
H322   H     0.54034   0.97054   0.32328   0.00000  Uiso   1.00
C323   C     0.44275   0.68178   0.11901   0.00000  Uiso   1.00
H324   H     0.42342   0.68732   0.14995   0.00000  Uiso   1.00
O325   O     0.43714   0.64541   0.09929   0.00000  Uiso   1.00
C326   C     0.58017   0.79835   0.38402   0.00000  Uiso   1.00
H327   H     0.57389   0.81489   0.34966   0.00000  Uiso   1.00
O328   O     0.62261   0.80290   0.40866   0.00000  Uiso   1.00
H329   H     0.45562   0.69001   0.02755   0.00000  Uiso   1.00
H330   H     0.57052   0.78735   0.47591   0.00000  Uiso   1.00
C331   C     0.83147   0.66495   0.24969   0.00000  Uiso   1.00
C332   C     0.83157   0.83501   0.24978   0.00000  Uiso   1.00
C333   C     0.85802   0.78471   0.05792   0.00000  Uiso   1.00
C334   C     0.79259   0.72927   0.43998   0.00000  Uiso   1.00
C335   C     0.85846   0.78324   0.10861   0.00000  Uiso   1.00
C336   C     0.79428   0.72885   0.38958   0.00000  Uiso   1.00
C337   C     0.80736   0.71716   0.09990   0.00000  Uiso   1.00
C338   C     0.87195   0.77189   0.40177   0.00000  Uiso   1.00
C339   C     0.80820   0.71692   0.04944   0.00000  Uiso   1.00
C340   C     0.87224   0.77116   0.45239   0.00000  Uiso   1.00
C341   C     0.83273   0.75099   0.02717   0.00000  Uiso   1.00
C342   C     0.83221   0.75055   0.47262   0.00000  Uiso   1.00
C343   C     0.73455   0.74992   0.23747   0.00000  Uiso   1.00
C344   C     0.93211   0.75004   0.26254   0.00000  Uiso   1.00
C345   C     0.67914   0.74993   0.23069   0.00000  Uiso   1.00
C346   C     0.98754   0.75000   0.26934   0.00000  Uiso   1.00
C347   C     0.80887   0.54597   0.28400   0.00000  Uiso   1.00
C348   C     0.81070   0.95313   0.20846   0.00000  Uiso   1.00
C349   C     0.80480   0.59204   0.28316   0.00000  Uiso   1.00
C350   C     0.80663   0.90688   0.20800   0.00000  Uiso   1.00
C351   C     0.82963   0.61647   0.24946   0.00000  Uiso   1.00
C352   C     0.82974   0.88347   0.24934   0.00000  Uiso   1.00
C353   C     0.85498   0.59413   0.21586   0.00000  Uiso   1.00
C354   C     0.85343   0.90696   0.29067   0.00000  Uiso   1.00
C355   C     0.85708   0.54827   0.21615   0.00000  Uiso   1.00
C356   C     0.85548   0.95291   0.29102   0.00000  Uiso   1.00
C357   C     0.83463   0.52423   0.25060   0.00000  Uiso   1.00
C358   C     0.83470   0.97598   0.24975   0.00000  Uiso   1.00
Cu359  Cu    0.83333   0.74999   0.29822   0.00000  Uiso   1.00
Cu360  Cu    0.83333   0.75000   0.20179   0.00000  Uiso   1.00
H361   H     0.99214   0.74989   0.19373   0.00000  Uiso   1.00
H362   H     0.67453   0.75004   0.30630   0.00000  Uiso   1.00
H363   H     0.87700   0.81257   0.04324   0.00000  Uiso   1.00
H364   H     0.75984   0.71336   0.45285   0.00000  Uiso   1.00
H365   H     0.87857   0.80925   0.13128   0.00000  Uiso   1.00
H366   H     0.76365   0.71197   0.36560   0.00000  Uiso   1.00
N367   N     0.83333   0.75001   0.12935   0.00000  Uiso   1.00
N368   N     0.83333   0.74999   0.37066   0.00000  Uiso   1.00
O369   O     0.83334   0.68572   0.29072   0.00000  Uiso   1.00
O370   O     0.83333   0.81427   0.20929   0.00000  Uiso   1.00
O371   O     0.83334   0.68573   0.20928   0.00000  Uiso   1.00
O372   O     0.83333   0.81427   0.29072   0.00000  Uiso   1.00
O373   O     0.75828   0.74999   0.28132   0.00000  Uiso   1.00
O374   O     0.90839   0.75000   0.21868   0.00000  Uiso   1.00
O375   O     0.75828   0.75000   0.19989   0.00000  Uiso   1.00
O376   O     0.90839   0.75000   0.30012   0.00000  Uiso   1.00
H377   H     0.78995   0.52658   0.30919   0.00000  Uiso   1.00
H378   H     0.79305   0.97173   0.17747   0.00000  Uiso   1.00
C379   C     0.77167   0.61324   0.31523   0.00000  Uiso   1.00
H380   H     0.75613   0.64568   0.30698   0.00000  Uiso   1.00
O381   O     0.76038   0.59423   0.35091   0.00000  Uiso   1.00
C382   C     0.77526   0.88440   0.16555   0.00000  Uiso   1.00
H383   H     0.75896   0.85144   0.16869   0.00000  Uiso   1.00
O384   O     0.76627   0.90295   0.12651   0.00000  Uiso   1.00
H385   H     0.87387   0.61224   0.18970   0.00000  Uiso   1.00
H386   H     0.87103   0.88975   0.32264   0.00000  Uiso   1.00
H387   H     0.87660   0.53149   0.18985   0.00000  Uiso   1.00
H388   H     0.87367   0.97054   0.32328   0.00000  Uiso   1.00
C389   C     0.77608   0.68178   0.11901   0.00000  Uiso   1.00
H390   H     0.75675   0.68732   0.14995   0.00000  Uiso   1.00
O391   O     0.77047   0.64541   0.09929   0.00000  Uiso   1.00
C392   C     0.91351   0.79835   0.38402   0.00000  Uiso   1.00
H393   H     0.90722   0.81489   0.34966   0.00000  Uiso   1.00
O394   O     0.95595   0.80290   0.40866   0.00000  Uiso   1.00
H395   H     0.78896   0.69001   0.02755   0.00000  Uiso   1.00
H396   H     0.90385   0.78735   0.47591   0.00000  Uiso   1.00
C397   C     0.16480   0.16495   0.74969   0.00000  Uiso   1.00
C398   C     0.16490   0.33501   0.74978   0.00000  Uiso   1.00
C399   C     0.19135   0.28471   0.55792   0.00000  Uiso   1.00
C400   C     0.12592   0.22927   0.93998   0.00000  Uiso   1.00
C401   C     0.19180   0.28324   0.60861   0.00000  Uiso   1.00
C402   C     0.12762   0.22885   0.88958   0.00000  Uiso   1.00
C403   C     0.14069   0.21716   0.59990   0.00000  Uiso   1.00
C404   C     0.20528   0.27189   0.90177   0.00000  Uiso   1.00
C405   C     0.14153   0.21692   0.54944   0.00000  Uiso   1.00
C406   C     0.20557   0.27116   0.95239   0.00000  Uiso   1.00
C407   C     0.16606   0.25099   0.52717   0.00000  Uiso   1.00
C408   C     0.16555   0.25055   0.97262   0.00000  Uiso   1.00
C409   C     0.06789   0.24992   0.73747   0.00000  Uiso   1.00
C410   C     0.26545   0.25004   0.76254   0.00000  Uiso   1.00
C411   C     0.01247   0.24993   0.73069   0.00000  Uiso   1.00
C412   C     0.32087   0.25000   0.76934   0.00000  Uiso   1.00
C413   C     0.14220   0.04597   0.78400   0.00000  Uiso   1.00
C414   C     0.14403   0.45313   0.70846   0.00000  Uiso   1.00
C415   C     0.13813   0.09204   0.78316   0.00000  Uiso   1.00
C416   C     0.13996   0.40688   0.70800   0.00000  Uiso   1.00
C417   C     0.16297   0.11647   0.74946   0.00000  Uiso   1.00
C418   C     0.16308   0.38347   0.74934   0.00000  Uiso   1.00
C419   C     0.18832   0.09413   0.71586   0.00000  Uiso   1.00
C420   C     0.18677   0.40696   0.79067   0.00000  Uiso   1.00
C421   C     0.19041   0.04827   0.71615   0.00000  Uiso   1.00
C422   C     0.18881   0.45291   0.79102   0.00000  Uiso   1.00
C423   C     0.16797   0.02423   0.75060   0.00000  Uiso   1.00
C424   C     0.16803   0.47598   0.74975   0.00000  Uiso   1.00
Cu425  Cu    0.16667   0.24999   0.79822   0.00000  Uiso   1.00
Cu426  Cu    0.16667   0.25000   0.70179   0.00000  Uiso   1.00
H427   H     0.32547   0.24989   0.69373   0.00000  Uiso   1.00
H428   H     0.00787   0.25004   0.80630   0.00000  Uiso   1.00
H429   H     0.21033   0.31257   0.54324   0.00000  Uiso   1.00
H430   H     0.09317   0.21336   0.95285   0.00000  Uiso   1.00
H431   H     0.21190   0.30925   0.63128   0.00000  Uiso   1.00
H432   H     0.09698   0.21197   0.86560   0.00000  Uiso   1.00
N433   N     0.16667   0.25001   0.62935   0.00000  Uiso   1.00
N434   N     0.16667   0.24999   0.87066   0.00000  Uiso   1.00
O435   O     0.16667   0.18572   0.79072   0.00000  Uiso   1.00
O436   O     0.16666   0.31427   0.70929   0.00000  Uiso   1.00
O437   O     0.16667   0.18573   0.70928   0.00000  Uiso   1.00
O438   O     0.16666   0.31427   0.79072   0.00000  Uiso   1.00
O439   O     0.09161   0.24999   0.78132   0.00000  Uiso   1.00
O440   O     0.24172   0.25000   0.71868   0.00000  Uiso   1.00
O441   O     0.09161   0.25000   0.69989   0.00000  Uiso   1.00
O442   O     0.24172   0.25000   0.80012   0.00000  Uiso   1.00
H443   H     0.12328   0.02658   0.80919   0.00000  Uiso   1.00
H444   H     0.12639   0.47173   0.67747   0.00000  Uiso   1.00
C445   C     0.10500   0.11324   0.81523   0.00000  Uiso   1.00
H446   H     0.08946   0.14568   0.80698   0.00000  Uiso   1.00
O447   O     0.09371   0.09423   0.85091   0.00000  Uiso   1.00
C448   C     0.10860   0.38440   0.66555   0.00000  Uiso   1.00
H449   H     0.09229   0.35144   0.66869   0.00000  Uiso   1.00
O450   O     0.09960   0.40295   0.62651   0.00000  Uiso   1.00
H451   H     0.20720   0.11224   0.68970   0.00000  Uiso   1.00
H452   H     0.20436   0.38975   0.82264   0.00000  Uiso   1.00
H453   H     0.20993   0.03149   0.68985   0.00000  Uiso   1.00
H454   H     0.20700   0.47054   0.82328   0.00000  Uiso   1.00
C455   C     0.10941   0.18178   0.61901   0.00000  Uiso   1.00
H456   H     0.09009   0.18732   0.64995   0.00000  Uiso   1.00
O457   O     0.10381   0.14541   0.59929   0.00000  Uiso   1.00
C458   C     0.24684   0.29835   0.88402   0.00000  Uiso   1.00
H459   H     0.24055   0.31489   0.84966   0.00000  Uiso   1.00
O460   O     0.28928   0.30290   0.90866   0.00000  Uiso   1.00
H461   H     0.12229   0.19001   0.52755   0.00000  Uiso   1.00
H462   H     0.23718   0.28735   0.97591   0.00000  Uiso   1.00
C463   C     0.49814   0.16495   0.74969   0.00000  Uiso   1.00
C464   C     0.49824   0.33501   0.74978   0.00000  Uiso   1.00
C465   C     0.52468   0.28471   0.55792   0.00000  Uiso   1.00
C466   C     0.45925   0.22927   0.93998   0.00000  Uiso   1.00
C467   C     0.52513   0.28324   0.60861   0.00000  Uiso   1.00
C468   C     0.46095   0.22885   0.88958   0.00000  Uiso   1.00
C469   C     0.47402   0.21716   0.59990   0.00000  Uiso   1.00
C470   C     0.53862   0.27189   0.90177   0.00000  Uiso   1.00
C471   C     0.47486   0.21692   0.54944   0.00000  Uiso   1.00
C472   C     0.53890   0.27116   0.95239   0.00000  Uiso   1.00
C473   C     0.49939   0.25099   0.52717   0.00000  Uiso   1.00
C474   C     0.49888   0.25055   0.97262   0.00000  Uiso   1.00
C475   C     0.40122   0.24992   0.73747   0.00000  Uiso   1.00
C476   C     0.59878   0.25004   0.76254   0.00000  Uiso   1.00
C477   C     0.34581   0.24993   0.73069   0.00000  Uiso   1.00
C478   C     0.65420   0.25000   0.76934   0.00000  Uiso   1.00
C479   C     0.47554   0.04597   0.78400   0.00000  Uiso   1.00
C480   C     0.47736   0.45313   0.70846   0.00000  Uiso   1.00
C481   C     0.47147   0.09204   0.78316   0.00000  Uiso   1.00
C482   C     0.47330   0.40688   0.70800   0.00000  Uiso   1.00
C483   C     0.49630   0.11647   0.74946   0.00000  Uiso   1.00
C484   C     0.49641   0.38347   0.74934   0.00000  Uiso   1.00
C485   C     0.52165   0.09413   0.71586   0.00000  Uiso   1.00
C486   C     0.52010   0.40696   0.79067   0.00000  Uiso   1.00
C487   C     0.52374   0.04827   0.71615   0.00000  Uiso   1.00
C488   C     0.52214   0.45291   0.79102   0.00000  Uiso   1.00
C489   C     0.50130   0.02423   0.75060   0.00000  Uiso   1.00
C490   C     0.50137   0.47598   0.74975   0.00000  Uiso   1.00
Cu491  Cu    0.50000   0.24999   0.79822   0.00000  Uiso   1.00
Cu492  Cu    0.50000   0.25000   0.70179   0.00000  Uiso   1.00
H493   H     0.65880   0.24989   0.69373   0.00000  Uiso   1.00
H494   H     0.34120   0.25004   0.80630   0.00000  Uiso   1.00
H495   H     0.54367   0.31257   0.54324   0.00000  Uiso   1.00
H496   H     0.42651   0.21336   0.95285   0.00000  Uiso   1.00
H497   H     0.54524   0.30925   0.63128   0.00000  Uiso   1.00
H498   H     0.43031   0.21197   0.86560   0.00000  Uiso   1.00
N499   N     0.50000   0.25001   0.62935   0.00000  Uiso   1.00
N500   N     0.50000   0.24999   0.87066   0.00000  Uiso   1.00
O501   O     0.50000   0.18572   0.79072   0.00000  Uiso   1.00
O502   O     0.50000   0.31427   0.70929   0.00000  Uiso   1.00
O503   O     0.50000   0.18573   0.70928   0.00000  Uiso   1.00
O504   O     0.50000   0.31427   0.79072   0.00000  Uiso   1.00
O505   O     0.42495   0.24999   0.78132   0.00000  Uiso   1.00
O506   O     0.57505   0.25000   0.71868   0.00000  Uiso   1.00
O507   O     0.42495   0.25000   0.69989   0.00000  Uiso   1.00
O508   O     0.57505   0.25000   0.80012   0.00000  Uiso   1.00
H509   H     0.45661   0.02658   0.80919   0.00000  Uiso   1.00
H510   H     0.45972   0.47173   0.67747   0.00000  Uiso   1.00
C511   C     0.43833   0.11324   0.81523   0.00000  Uiso   1.00
H512   H     0.42279   0.14568   0.80698   0.00000  Uiso   1.00
O513   O     0.42704   0.09423   0.85091   0.00000  Uiso   1.00
C514   C     0.44193   0.38440   0.66555   0.00000  Uiso   1.00
H515   H     0.42562   0.35144   0.66869   0.00000  Uiso   1.00
O516   O     0.43294   0.40295   0.62651   0.00000  Uiso   1.00
H517   H     0.54053   0.11224   0.68970   0.00000  Uiso   1.00
H518   H     0.53770   0.38975   0.82264   0.00000  Uiso   1.00
H519   H     0.54327   0.03149   0.68985   0.00000  Uiso   1.00
H520   H     0.54034   0.47054   0.82328   0.00000  Uiso   1.00
C521   C     0.44275   0.18178   0.61901   0.00000  Uiso   1.00
H522   H     0.42342   0.18732   0.64995   0.00000  Uiso   1.00
O523   O     0.43714   0.14541   0.59929   0.00000  Uiso   1.00
C524   C     0.58017   0.29835   0.88402   0.00000  Uiso   1.00
H525   H     0.57389   0.31489   0.84966   0.00000  Uiso   1.00
O526   O     0.62261   0.30290   0.90866   0.00000  Uiso   1.00
H527   H     0.45562   0.19001   0.52755   0.00000  Uiso   1.00
H528   H     0.57052   0.28735   0.97591   0.00000  Uiso   1.00
C529   C     0.83147   0.16495   0.74969   0.00000  Uiso   1.00
C530   C     0.83157   0.33501   0.74978   0.00000  Uiso   1.00
C531   C     0.85802   0.28471   0.55792   0.00000  Uiso   1.00
C532   C     0.79259   0.22927   0.93998   0.00000  Uiso   1.00
C533   C     0.85846   0.28324   0.60861   0.00000  Uiso   1.00
C534   C     0.79428   0.22885   0.88958   0.00000  Uiso   1.00
C535   C     0.80736   0.21716   0.59990   0.00000  Uiso   1.00
C536   C     0.87195   0.27189   0.90177   0.00000  Uiso   1.00
C537   C     0.80820   0.21692   0.54944   0.00000  Uiso   1.00
C538   C     0.87224   0.27116   0.95239   0.00000  Uiso   1.00
C539   C     0.83273   0.25099   0.52717   0.00000  Uiso   1.00
C540   C     0.83221   0.25055   0.97262   0.00000  Uiso   1.00
C541   C     0.73455   0.24992   0.73747   0.00000  Uiso   1.00
C542   C     0.93211   0.25004   0.76254   0.00000  Uiso   1.00
C543   C     0.67914   0.24993   0.73069   0.00000  Uiso   1.00
C544   C     0.98754   0.25000   0.76934   0.00000  Uiso   1.00
C545   C     0.80887   0.04597   0.78400   0.00000  Uiso   1.00
C546   C     0.81070   0.45313   0.70846   0.00000  Uiso   1.00
C547   C     0.80480   0.09204   0.78316   0.00000  Uiso   1.00
C548   C     0.80663   0.40688   0.70800   0.00000  Uiso   1.00
C549   C     0.82963   0.11647   0.74946   0.00000  Uiso   1.00
C550   C     0.82974   0.38347   0.74934   0.00000  Uiso   1.00
C551   C     0.85498   0.09413   0.71586   0.00000  Uiso   1.00
C552   C     0.85343   0.40696   0.79067   0.00000  Uiso   1.00
C553   C     0.85708   0.04827   0.71615   0.00000  Uiso   1.00
C554   C     0.85548   0.45291   0.79102   0.00000  Uiso   1.00
C555   C     0.83463   0.02423   0.75060   0.00000  Uiso   1.00
C556   C     0.83470   0.47598   0.74975   0.00000  Uiso   1.00
Cu557  Cu    0.83333   0.24999   0.79822   0.00000  Uiso   1.00
Cu558  Cu    0.83333   0.25000   0.70179   0.00000  Uiso   1.00
H559   H     0.99214   0.24989   0.69373   0.00000  Uiso   1.00
H560   H     0.67453   0.25004   0.80630   0.00000  Uiso   1.00
H561   H     0.87700   0.31257   0.54324   0.00000  Uiso   1.00
H562   H     0.75984   0.21336   0.95285   0.00000  Uiso   1.00
H563   H     0.87857   0.30925   0.63128   0.00000  Uiso   1.00
H564   H     0.76365   0.21197   0.86560   0.00000  Uiso   1.00
N565   N     0.83333   0.25001   0.62935   0.00000  Uiso   1.00
N566   N     0.83333   0.24999   0.87066   0.00000  Uiso   1.00
O567   O     0.83334   0.18572   0.79072   0.00000  Uiso   1.00
O568   O     0.83333   0.31427   0.70929   0.00000  Uiso   1.00
O569   O     0.83334   0.18573   0.70928   0.00000  Uiso   1.00
O570   O     0.83333   0.31427   0.79072   0.00000  Uiso   1.00
O571   O     0.75828   0.24999   0.78132   0.00000  Uiso   1.00
O572   O     0.90839   0.25000   0.71868   0.00000  Uiso   1.00
O573   O     0.75828   0.25000   0.69989   0.00000  Uiso   1.00
O574   O     0.90839   0.25000   0.80012   0.00000  Uiso   1.00
H575   H     0.78995   0.02658   0.80919   0.00000  Uiso   1.00
H576   H     0.79305   0.47173   0.67747   0.00000  Uiso   1.00
C577   C     0.77167   0.11324   0.81523   0.00000  Uiso   1.00
H578   H     0.75613   0.14568   0.80698   0.00000  Uiso   1.00
O579   O     0.76038   0.09423   0.85091   0.00000  Uiso   1.00
C580   C     0.77526   0.38440   0.66555   0.00000  Uiso   1.00
H581   H     0.75896   0.35144   0.66869   0.00000  Uiso   1.00
O582   O     0.76627   0.40295   0.62651   0.00000  Uiso   1.00
H583   H     0.87387   0.11224   0.68970   0.00000  Uiso   1.00
H584   H     0.87103   0.38975   0.82264   0.00000  Uiso   1.00
H585   H     0.87660   0.03149   0.68985   0.00000  Uiso   1.00
H586   H     0.87367   0.47054   0.82328   0.00000  Uiso   1.00
C587   C     0.77608   0.18178   0.61901   0.00000  Uiso   1.00
H588   H     0.75675   0.18732   0.64995   0.00000  Uiso   1.00
O589   O     0.77047   0.14541   0.59929   0.00000  Uiso   1.00
C590   C     0.91351   0.29835   0.88402   0.00000  Uiso   1.00
H591   H     0.90722   0.31489   0.84966   0.00000  Uiso   1.00
O592   O     0.95595   0.30290   0.90866   0.00000  Uiso   1.00
H593   H     0.78896   0.19001   0.52755   0.00000  Uiso   1.00
H594   H     0.90385   0.28735   0.97591   0.00000  Uiso   1.00
C595   C     0.16480   0.66495   0.74969   0.00000  Uiso   1.00
C596   C     0.16490   0.83501   0.74978   0.00000  Uiso   1.00
C597   C     0.19135   0.78471   0.55792   0.00000  Uiso   1.00
C598   C     0.12592   0.72927   0.93998   0.00000  Uiso   1.00
C599   C     0.19180   0.78324   0.60861   0.00000  Uiso   1.00
C600   C     0.12762   0.72885   0.88958   0.00000  Uiso   1.00
C601   C     0.14069   0.71716   0.59990   0.00000  Uiso   1.00
C602   C     0.20528   0.77189   0.90177   0.00000  Uiso   1.00
C603   C     0.14153   0.71692   0.54944   0.00000  Uiso   1.00
C604   C     0.20557   0.77116   0.95239   0.00000  Uiso   1.00
C605   C     0.16606   0.75099   0.52717   0.00000  Uiso   1.00
C606   C     0.16555   0.75055   0.97262   0.00000  Uiso   1.00
C607   C     0.06789   0.74992   0.73747   0.00000  Uiso   1.00
C608   C     0.26545   0.75004   0.76254   0.00000  Uiso   1.00
C609   C     0.01247   0.74993   0.73069   0.00000  Uiso   1.00
C610   C     0.32087   0.75000   0.76934   0.00000  Uiso   1.00
C611   C     0.14220   0.54597   0.78400   0.00000  Uiso   1.00
C612   C     0.14403   0.95313   0.70846   0.00000  Uiso   1.00
C613   C     0.13813   0.59204   0.78316   0.00000  Uiso   1.00
C614   C     0.13996   0.90688   0.70800   0.00000  Uiso   1.00
C615   C     0.16297   0.61647   0.74946   0.00000  Uiso   1.00
C616   C     0.16308   0.88347   0.74934   0.00000  Uiso   1.00
C617   C     0.18832   0.59413   0.71586   0.00000  Uiso   1.00
C618   C     0.18677   0.90696   0.79067   0.00000  Uiso   1.00
C619   C     0.19041   0.54827   0.71615   0.00000  Uiso   1.00
C620   C     0.18881   0.95291   0.79102   0.00000  Uiso   1.00
C621   C     0.16797   0.52423   0.75060   0.00000  Uiso   1.00
C622   C     0.16803   0.97598   0.74975   0.00000  Uiso   1.00
Cu623  Cu    0.16667   0.74999   0.79822   0.00000  Uiso   1.00
Cu624  Cu    0.16667   0.75000   0.70179   0.00000  Uiso   1.00
H625   H     0.32547   0.74989   0.69373   0.00000  Uiso   1.00
H626   H     0.00787   0.75004   0.80630   0.00000  Uiso   1.00
H627   H     0.21033   0.81257   0.54324   0.00000  Uiso   1.00
H628   H     0.09317   0.71336   0.95285   0.00000  Uiso   1.00
H629   H     0.21190   0.80925   0.63128   0.00000  Uiso   1.00
H630   H     0.09698   0.71197   0.86560   0.00000  Uiso   1.00
N631   N     0.16667   0.75001   0.62935   0.00000  Uiso   1.00
N632   N     0.16667   0.74999   0.87066   0.00000  Uiso   1.00
O633   O     0.16667   0.68572   0.79072   0.00000  Uiso   1.00
O634   O     0.16666   0.81427   0.70929   0.00000  Uiso   1.00
O635   O     0.16667   0.68573   0.70928   0.00000  Uiso   1.00
O636   O     0.16666   0.81427   0.79072   0.00000  Uiso   1.00
O637   O     0.09161   0.74999   0.78132   0.00000  Uiso   1.00
O638   O     0.24172   0.75000   0.71868   0.00000  Uiso   1.00
O639   O     0.09161   0.75000   0.69989   0.00000  Uiso   1.00
O640   O     0.24172   0.75000   0.80012   0.00000  Uiso   1.00
H641   H     0.12328   0.52658   0.80919   0.00000  Uiso   1.00
H642   H     0.12639   0.97173   0.67747   0.00000  Uiso   1.00
C643   C     0.10500   0.61324   0.81523   0.00000  Uiso   1.00
H644   H     0.08946   0.64568   0.80698   0.00000  Uiso   1.00
O645   O     0.09371   0.59423   0.85091   0.00000  Uiso   1.00
C646   C     0.10860   0.88440   0.66555   0.00000  Uiso   1.00
H647   H     0.09229   0.85144   0.66869   0.00000  Uiso   1.00
O648   O     0.09960   0.90295   0.62651   0.00000  Uiso   1.00
H649   H     0.20720   0.61224   0.68970   0.00000  Uiso   1.00
H650   H     0.20436   0.88975   0.82264   0.00000  Uiso   1.00
H651   H     0.20993   0.53149   0.68985   0.00000  Uiso   1.00
H652   H     0.20700   0.97054   0.82328   0.00000  Uiso   1.00
C653   C     0.10941   0.68178   0.61901   0.00000  Uiso   1.00
H654   H     0.09009   0.68732   0.64995   0.00000  Uiso   1.00
O655   O     0.10381   0.64541   0.59929   0.00000  Uiso   1.00
C656   C     0.24684   0.79835   0.88402   0.00000  Uiso   1.00
H657   H     0.24055   0.81489   0.84966   0.00000  Uiso   1.00
O658   O     0.28928   0.80290   0.90866   0.00000  Uiso   1.00
H659   H     0.12229   0.69001   0.52755   0.00000  Uiso   1.00
H660   H     0.23718   0.78735   0.97591   0.00000  Uiso   1.00
C661   C     0.49814   0.66495   0.74969   0.00000  Uiso   1.00
C662   C     0.49824   0.83501   0.74978   0.00000  Uiso   1.00
C663   C     0.52468   0.78471   0.55792   0.00000  Uiso   1.00
C664   C     0.45925   0.72927   0.93998   0.00000  Uiso   1.00
C665   C     0.52513   0.78324   0.60861   0.00000  Uiso   1.00
C666   C     0.46095   0.72885   0.88958   0.00000  Uiso   1.00
C667   C     0.47402   0.71716   0.59990   0.00000  Uiso   1.00
C668   C     0.53862   0.77189   0.90177   0.00000  Uiso   1.00
C669   C     0.47486   0.71692   0.54944   0.00000  Uiso   1.00
C670   C     0.53890   0.77116   0.95239   0.00000  Uiso   1.00
C671   C     0.49939   0.75099   0.52717   0.00000  Uiso   1.00
C672   C     0.49888   0.75055   0.97262   0.00000  Uiso   1.00
C673   C     0.40122   0.74992   0.73747   0.00000  Uiso   1.00
C674   C     0.59878   0.75004   0.76254   0.00000  Uiso   1.00
C675   C     0.34581   0.74993   0.73069   0.00000  Uiso   1.00
C676   C     0.65420   0.75000   0.76934   0.00000  Uiso   1.00
C677   C     0.47554   0.54597   0.78400   0.00000  Uiso   1.00
C678   C     0.47736   0.95313   0.70846   0.00000  Uiso   1.00
C679   C     0.47147   0.59204   0.78316   0.00000  Uiso   1.00
C680   C     0.47330   0.90688   0.70800   0.00000  Uiso   1.00
C681   C     0.49630   0.61647   0.74946   0.00000  Uiso   1.00
C682   C     0.49641   0.88347   0.74934   0.00000  Uiso   1.00
C683   C     0.52165   0.59413   0.71586   0.00000  Uiso   1.00
C684   C     0.52010   0.90696   0.79067   0.00000  Uiso   1.00
C685   C     0.52374   0.54827   0.71615   0.00000  Uiso   1.00
C686   C     0.52214   0.95291   0.79102   0.00000  Uiso   1.00
C687   C     0.50130   0.52423   0.75060   0.00000  Uiso   1.00
C688   C     0.50137   0.97598   0.74975   0.00000  Uiso   1.00
Cu689  Cu    0.50000   0.74999   0.79822   0.00000  Uiso   1.00
Cu690  Cu    0.50000   0.75000   0.70179   0.00000  Uiso   1.00
H691   H     0.65880   0.74989   0.69373   0.00000  Uiso   1.00
H692   H     0.34120   0.75004   0.80630   0.00000  Uiso   1.00
H693   H     0.54367   0.81257   0.54324   0.00000  Uiso   1.00
H694   H     0.42651   0.71336   0.95285   0.00000  Uiso   1.00
H695   H     0.54524   0.80925   0.63128   0.00000  Uiso   1.00
H696   H     0.43031   0.71197   0.86560   0.00000  Uiso   1.00
N697   N     0.50000   0.75001   0.62935   0.00000  Uiso   1.00
N698   N     0.50000   0.74999   0.87066   0.00000  Uiso   1.00
O699   O     0.50000   0.68572   0.79072   0.00000  Uiso   1.00
O700   O     0.50000   0.81427   0.70929   0.00000  Uiso   1.00
O701   O     0.50000   0.68573   0.70928   0.00000  Uiso   1.00
O702   O     0.50000   0.81427   0.79072   0.00000  Uiso   1.00
O703   O     0.42495   0.74999   0.78132   0.00000  Uiso   1.00
O704   O     0.57505   0.75000   0.71868   0.00000  Uiso   1.00
O705   O     0.42495   0.75000   0.69989   0.00000  Uiso   1.00
O706   O     0.57505   0.75000   0.80012   0.00000  Uiso   1.00
H707   H     0.45661   0.52658   0.80919   0.00000  Uiso   1.00
H708   H     0.45972   0.97173   0.67747   0.00000  Uiso   1.00
C709   C     0.43833   0.61324   0.81523   0.00000  Uiso   1.00
H710   H     0.42279   0.64568   0.80698   0.00000  Uiso   1.00
O711   O     0.42704   0.59423   0.85091   0.00000  Uiso   1.00
C712   C     0.44193   0.88440   0.66555   0.00000  Uiso   1.00
H713   H     0.42562   0.85144   0.66869   0.00000  Uiso   1.00
O714   O     0.43294   0.90295   0.62651   0.00000  Uiso   1.00
H715   H     0.54053   0.61224   0.68970   0.00000  Uiso   1.00
H716   H     0.53770   0.88975   0.82264   0.00000  Uiso   1.00
H717   H     0.54327   0.53149   0.68985   0.00000  Uiso   1.00
H718   H     0.54034   0.97054   0.82328   0.00000  Uiso   1.00
C719   C     0.44275   0.68178   0.61901   0.00000  Uiso   1.00
H720   H     0.42342   0.68732   0.64995   0.00000  Uiso   1.00
O721   O     0.43714   0.64541   0.59929   0.00000  Uiso   1.00
C722   C     0.58017   0.79835   0.88402   0.00000  Uiso   1.00
H723   H     0.57389   0.81489   0.84966   0.00000  Uiso   1.00
O724   O     0.62261   0.80290   0.90866   0.00000  Uiso   1.00
H725   H     0.45562   0.69001   0.52755   0.00000  Uiso   1.00
H726   H     0.57052   0.78735   0.97591   0.00000  Uiso   1.00
C727   C     0.83147   0.66495   0.74969   0.00000  Uiso   1.00
C728   C     0.83157   0.83501   0.74978   0.00000  Uiso   1.00
C729   C     0.85802   0.78471   0.55792   0.00000  Uiso   1.00
C730   C     0.79259   0.72927   0.93998   0.00000  Uiso   1.00
C731   C     0.85846   0.78324   0.60861   0.00000  Uiso   1.00
C732   C     0.79428   0.72885   0.88958   0.00000  Uiso   1.00
C733   C     0.80736   0.71716   0.59990   0.00000  Uiso   1.00
C734   C     0.87195   0.77189   0.90177   0.00000  Uiso   1.00
C735   C     0.80820   0.71692   0.54944   0.00000  Uiso   1.00
C736   C     0.87224   0.77116   0.95239   0.00000  Uiso   1.00
C737   C     0.83273   0.75099   0.52717   0.00000  Uiso   1.00
C738   C     0.83221   0.75055   0.97262   0.00000  Uiso   1.00
C739   C     0.73455   0.74992   0.73747   0.00000  Uiso   1.00
C740   C     0.93211   0.75004   0.76254   0.00000  Uiso   1.00
C741   C     0.67914   0.74993   0.73069   0.00000  Uiso   1.00
C742   C     0.98754   0.75000   0.76934   0.00000  Uiso   1.00
C743   C     0.80887   0.54597   0.78400   0.00000  Uiso   1.00
C744   C     0.81070   0.95313   0.70846   0.00000  Uiso   1.00
C745   C     0.80480   0.59204   0.78316   0.00000  Uiso   1.00
C746   C     0.80663   0.90688   0.70800   0.00000  Uiso   1.00
C747   C     0.82963   0.61647   0.74946   0.00000  Uiso   1.00
C748   C     0.82974   0.88347   0.74934   0.00000  Uiso   1.00
C749   C     0.85498   0.59413   0.71586   0.00000  Uiso   1.00
C750   C     0.85343   0.90696   0.79067   0.00000  Uiso   1.00
C751   C     0.85708   0.54827   0.71615   0.00000  Uiso   1.00
C752   C     0.85548   0.95291   0.79102   0.00000  Uiso   1.00
C753   C     0.83463   0.52423   0.75060   0.00000  Uiso   1.00
C754   C     0.83470   0.97598   0.74975   0.00000  Uiso   1.00
Cu755  Cu    0.83333   0.74999   0.79822   0.00000  Uiso   1.00
Cu756  Cu    0.83333   0.75000   0.70179   0.00000  Uiso   1.00
H757   H     0.99214   0.74989   0.69373   0.00000  Uiso   1.00
H758   H     0.67453   0.75004   0.80630   0.00000  Uiso   1.00
H759   H     0.87700   0.81257   0.54324   0.00000  Uiso   1.00
H760   H     0.75984   0.71336   0.95285   0.00000  Uiso   1.00
H761   H     0.87857   0.80925   0.63128   0.00000  Uiso   1.00
H762   H     0.76365   0.71197   0.86560   0.00000  Uiso   1.00
N763   N     0.83333   0.75001   0.62935   0.00000  Uiso   1.00
N764   N     0.83333   0.74999   0.87066   0.00000  Uiso   1.00
O765   O     0.83334   0.68572   0.79072   0.00000  Uiso   1.00
O766   O     0.83333   0.81427   0.70929   0.00000  Uiso   1.00
O767   O     0.83334   0.68573   0.70928   0.00000  Uiso   1.00
O768   O     0.83333   0.81427   0.79072   0.00000  Uiso   1.00
O769   O     0.75828   0.74999   0.78132   0.00000  Uiso   1.00
O770   O     0.90839   0.75000   0.71868   0.00000  Uiso   1.00
O771   O     0.75828   0.75000   0.69989   0.00000  Uiso   1.00
O772   O     0.90839   0.75000   0.80012   0.00000  Uiso   1.00
H773   H     0.78995   0.52658   0.80919   0.00000  Uiso   1.00
H774   H     0.79305   0.97173   0.67747   0.00000  Uiso   1.00
C775   C     0.77167   0.61324   0.81523   0.00000  Uiso   1.00
H776   H     0.75613   0.64568   0.80698   0.00000  Uiso   1.00
O777   O     0.76038   0.59423   0.85091   0.00000  Uiso   1.00
C778   C     0.77526   0.88440   0.66555   0.00000  Uiso   1.00
H779   H     0.75896   0.85144   0.66869   0.00000  Uiso   1.00
O780   O     0.76627   0.90295   0.62651   0.00000  Uiso   1.00
H781   H     0.87387   0.61224   0.68970   0.00000  Uiso   1.00
H782   H     0.87103   0.88975   0.82264   0.00000  Uiso   1.00
H783   H     0.87660   0.53149   0.68985   0.00000  Uiso   1.00
H784   H     0.87367   0.97054   0.82328   0.00000  Uiso   1.00
C785   C     0.77608   0.68178   0.61901   0.00000  Uiso   1.00
H786   H     0.75675   0.68732   0.64995   0.00000  Uiso   1.00
O787   O     0.77047   0.64541   0.59929   0.00000  Uiso   1.00
C788   C     0.91351   0.79835   0.88402   0.00000  Uiso   1.00
H789   H     0.90722   0.81489   0.84966   0.00000  Uiso   1.00
O790   O     0.95595   0.80290   0.90866   0.00000  Uiso   1.00
H791   H     0.78896   0.69001   0.52755   0.00000  Uiso   1.00
H792   H     0.90385   0.78735   0.97591   0.00000  Uiso   1.00
loop_
_geom_bond_atom_site_label_1
_geom_bond_atom_site_label_2
_geom_bond_distance
_geom_bond_site_symmetry_2
_ccdc_geom_bond_type
C1     C21     1.465   .     S
C1     O41     1.299   .     A
C1     O39     1.294   .     A
C2     C22     1.467   .     S
C2     O42     1.301   .     A
C2     O40     1.294   .     A
C3     C11     1.414   .     A
C3     C5      1.411   .     A
C3     H33     1.081   .     S
C4     H34     1.081   .     S
C4     C6      1.411   .     A
C4     C12     1.414   .     A
C5     N37     1.365   .     A
C5     H35     1.081   .     S
C6     N38     1.365   .     A
C6     H36     1.081   .     S
C7     C59     1.481   .     S
C7     N37     1.383   .     A
C7     C9      1.409   .     A
C8     N38     1.384   .     A
C8     C62     1.480   .     S
C8     C10     1.410   .     A
C9     C11     1.397   .     A
C9     H65     1.082   .     S
C10    C12     1.397   .     A
C10    H66     1.082   .     S
C11    C408    1.518   1_554 S
C12    C407    1.518   .     S
C13    O43     1.286   .     A
C13    C15     1.436   .     S
C13    O45     1.294   .     A
C14    O44     1.286   .     A
C14    C16     1.436   .     S
C14    O46     1.294   .     A
C15    C148    1.339   1_455 S
C15    H163    1.087   1_455 S
C16    C81     1.339   .     S
C16    H98     1.087   .     S
C17    C27     1.397   .     A
C17    C19     1.399   .     A
C17    H47     1.084   .     S
C18    C28     1.397   .     A
C18    C20     1.399   .     A
C18    H48     1.084   .     S
C19    C49     1.486   .     S
C19    C21     1.420   .     A
C20    C52     1.487   .     S
C20    C22     1.421   .     A
C21    C23     1.404   .     A
C22    C24     1.404   .     A
C23    H55     1.083   .     S
C23    C25     1.389   .     A
C24    H56     1.083   .     S
C24    C26     1.389   .     A
C25    H57     1.083   .     S
C25    C27     1.396   .     A
C26    H58     1.083   .     S
C26    C28     1.396   .     A
C27    C226    1.458   1_545 S
C28    C225    1.458   .     S
Cu29   N38     2.018   .     S
Cu29   Cu30    2.686   .     S
Cu29   O42     1.955   .     S
Cu29   O46     1.959   .     S
Cu29   O39     1.953   .     S
Cu29   O43     1.953   .     S
Cu30   O41     1.955   .     S
Cu30   O45     1.959   .     S
Cu30   O40     1.953   .     S
Cu30   O44     1.953   .     S
Cu30   N37     2.018   .     S
H31    C81     1.087   .     S
H32    C148    1.087   1_455 S
C49    H50     1.084   .     S
C49    O51     1.221   .     D
C52    H53     1.084   .     S
C52    O54     1.221   .     D
C59    O61     1.222   .     D
C59    H60     1.076   .     S
C62    H63     1.076   .     S
C62    O64     1.222   .     D
C67    C87     1.465   .     S
C67    O107    1.299   .     A
C67    O105    1.294   .     A
C68    C88     1.467   .     S
C68    O108    1.301   .     A
C68    O106    1.294   .     A
C69    C77     1.414   .     A
C69    C71     1.411   .     A
C69    H99     1.081   .     S
C70    H100    1.081   .     S
C70    C72     1.411   .     A
C70    C78     1.414   .     A
C71    N103    1.365   .     A
C71    H101    1.081   .     S
C72    N104    1.365   .     A
C72    H102    1.081   .     S
C73    C125    1.481   .     S
C73    N103    1.383   .     A
C73    C75     1.409   .     A
C74    N104    1.384   .     A
C74    C128    1.480   .     S
C74    C76     1.410   .     A
C75    C77     1.397   .     A
C75    H131    1.082   .     S
C76    C78     1.397   .     A
C76    H132    1.082   .     S
C77    C474    1.518   1_554 S
C78    C473    1.518   .     S
C79    O109    1.286   .     A
C79    C81     1.436   .     S
C79    O111    1.294   .     A
C80    O110    1.286   .     A
C80    C82     1.436   .     S
C80    O112    1.294   .     A
C82    C147    1.339   .     S
C82    H164    1.087   .     S
C83    C93     1.397   .     A
C83    C85     1.399   .     A
C83    H113    1.084   .     S
C84    C94     1.397   .     A
C84    C86     1.399   .     A
C84    H114    1.084   .     S
C85    C115    1.486   .     S
C85    C87     1.420   .     A
C86    C118    1.487   .     S
C86    C88     1.421   .     A
C87    C89     1.404   .     A
C88    C90     1.404   .     A
C89    H121    1.083   .     S
C89    C91     1.389   .     A
C90    H122    1.083   .     S
C90    C92     1.389   .     A
C91    H123    1.083   .     S
C91    C93     1.396   .     A
C92    H124    1.083   .     S
C92    C94     1.396   .     A
C93    C292    1.458   1_545 S
C94    C291    1.458   .     S
Cu95   N104    2.018   .     S
Cu95   Cu96    2.686   .     S
Cu95   O108    1.955   .     S
Cu95   O112    1.959   .     S
Cu95   O105    1.953   .     S
Cu95   O109    1.953   .     S
Cu96   O107    1.955   .     S
Cu96   O111    1.959   .     S
Cu96   O106    1.953   .     S
Cu96   O110    1.953   .     S
Cu96   N103    2.018   .     S
H97    C147    1.087   .     S
C115   H116    1.084   .     S
C115   O117    1.221   .     D
C118   H119    1.084   .     S
C118   O120    1.221   .     D
C125   O127    1.222   .     D
C125   H126    1.076   .     S
C128   H129    1.076   .     S
C128   O130    1.222   .     D
C133   C153    1.465   .     S
C133   O173    1.299   .     A
C133   O171    1.294   .     A
C134   C154    1.467   .     S
C134   O174    1.301   .     A
C134   O172    1.294   .     A
C135   C143    1.414   .     A
C135   C137    1.411   .     A
C135   H165    1.081   .     S
C136   H166    1.081   .     S
C136   C138    1.411   .     A
C136   C144    1.414   .     A
C137   N169    1.365   .     A
C137   H167    1.081   .     S
C138   N170    1.365   .     A
C138   H168    1.081   .     S
C139   C191    1.481   .     S
C139   N169    1.383   .     A
C139   C141    1.409   .     A
C140   N170    1.384   .     A
C140   C194    1.480   .     S
C140   C142    1.410   .     A
C141   C143    1.397   .     A
C141   H197    1.082   .     S
C142   C144    1.397   .     A
C142   H198    1.082   .     S
C143   C540    1.518   1_554 S
C144   C539    1.518   .     S
C145   O175    1.286   .     A
C145   C147    1.436   .     S
C145   O177    1.294   .     A
C146   O176    1.286   .     A
C146   C148    1.436   .     S
C146   O178    1.294   .     A
C148   C15     1.339   1_655 S
C148   H32     1.087   1_655 S
C149   C159    1.397   .     A
C149   C151    1.399   .     A
C149   H179    1.084   .     S
C150   C160    1.397   .     A
C150   C152    1.399   .     A
C150   H180    1.084   .     S
C151   C181    1.486   .     S
C151   C153    1.420   .     A
C152   C184    1.487   .     S
C152   C154    1.421   .     A
C153   C155    1.404   .     A
C154   C156    1.404   .     A
C155   H187    1.083   .     S
C155   C157    1.389   .     A
C156   H188    1.083   .     S
C156   C158    1.389   .     A
C157   H189    1.083   .     S
C157   C159    1.396   .     A
C158   H190    1.083   .     S
C158   C160    1.396   .     A
C159   C358    1.458   1_545 S
C160   C357    1.458   .     S
Cu161  N170    2.018   .     S
Cu161  Cu162   2.686   .     S
Cu161  O174    1.955   .     S
Cu161  O178    1.959   .     S
Cu161  O171    1.953   .     S
Cu161  O175    1.953   .     S
Cu162  O173    1.955   .     S
Cu162  O177    1.959   .     S
Cu162  O172    1.953   .     S
Cu162  O176    1.953   .     S
Cu162  N169    2.018   .     S
H163   C15     1.087   1_655 S
C181   H182    1.084   .     S
C181   O183    1.221   .     D
C184   H185    1.084   .     S
C184   O186    1.221   .     D
C191   O193    1.222   .     D
C191   H192    1.076   .     S
C194   H195    1.076   .     S
C194   O196    1.222   .     D
C199   C219    1.465   .     S
C199   O239    1.299   .     A
C199   O237    1.294   .     A
C200   C220    1.467   .     S
C200   O240    1.301   .     A
C200   O238    1.294   .     A
C201   C209    1.414   .     A
C201   C203    1.411   .     A
C201   H231    1.081   .     S
C202   H232    1.081   .     S
C202   C204    1.411   .     A
C202   C210    1.414   .     A
C203   N235    1.365   .     A
C203   H233    1.081   .     S
C204   N236    1.365   .     A
C204   H234    1.081   .     S
C205   C257    1.481   .     S
C205   N235    1.383   .     A
C205   C207    1.409   .     A
C206   N236    1.384   .     A
C206   C260    1.480   .     S
C206   C208    1.410   .     A
C207   C209    1.397   .     A
C207   H263    1.082   .     S
C208   C210    1.397   .     A
C208   H264    1.082   .     S
C209   C606    1.518   1_554 S
C210   C605    1.518   .     S
C211   O241    1.286   .     A
C211   C213    1.436   .     S
C211   O243    1.294   .     A
C212   O242    1.286   .     A
C212   C214    1.436   .     S
C212   O244    1.294   .     A
C213   C346    1.339   1_455 S
C213   H361    1.087   1_455 S
C214   C279    1.339   .     S
C214   H296    1.087   .     S
C215   C225    1.397   .     A
C215   C217    1.399   .     A
C215   H245    1.084   .     S
C216   C226    1.397   .     A
C216   C218    1.399   .     A
C216   H246    1.084   .     S
C217   C247    1.486   .     S
C217   C219    1.420   .     A
C218   C250    1.487   .     S
C218   C220    1.421   .     A
C219   C221    1.404   .     A
C220   C222    1.404   .     A
C221   H253    1.083   .     S
C221   C223    1.389   .     A
C222   H254    1.083   .     S
C222   C224    1.389   .     A
C223   H255    1.083   .     S
C223   C225    1.396   .     A
C224   H256    1.083   .     S
C224   C226    1.396   .     A
C226   C27     1.458   1_565 S
Cu227  N236    2.018   .     S
Cu227  Cu228   2.686   .     S
Cu227  O240    1.955   .     S
Cu227  O244    1.959   .     S
Cu227  O237    1.953   .     S
Cu227  O241    1.953   .     S
Cu228  O239    1.955   .     S
Cu228  O243    1.959   .     S
Cu228  O238    1.953   .     S
Cu228  O242    1.953   .     S
Cu228  N235    2.018   .     S
H229   C279    1.087   .     S
H230   C346    1.087   1_455 S
C247   H248    1.084   .     S
C247   O249    1.221   .     D
C250   H251    1.084   .     S
C250   O252    1.221   .     D
C257   O259    1.222   .     D
C257   H258    1.076   .     S
C260   H261    1.076   .     S
C260   O262    1.222   .     D
C265   C285    1.465   .     S
C265   O305    1.299   .     A
C265   O303    1.294   .     A
C266   C286    1.467   .     S
C266   O306    1.301   .     A
C266   O304    1.294   .     A
C267   C275    1.414   .     A
C267   C269    1.411   .     A
C267   H297    1.081   .     S
C268   H298    1.081   .     S
C268   C270    1.411   .     A
C268   C276    1.414   .     A
C269   N301    1.365   .     A
C269   H299    1.081   .     S
C270   N302    1.365   .     A
C270   H300    1.081   .     S
C271   C323    1.481   .     S
C271   N301    1.383   .     A
C271   C273    1.409   .     A
C272   N302    1.384   .     A
C272   C326    1.480   .     S
C272   C274    1.410   .     A
C273   C275    1.397   .     A
C273   H329    1.082   .     S
C274   C276    1.397   .     A
C274   H330    1.082   .     S
C275   C672    1.518   1_554 S
C276   C671    1.518   .     S
C277   O307    1.286   .     A
C277   C279    1.436   .     S
C277   O309    1.294   .     A
C278   O308    1.286   .     A
C278   C280    1.436   .     S
C278   O310    1.294   .     A
C280   C345    1.339   .     S
C280   H362    1.087   .     S
C281   C291    1.397   .     A
C281   C283    1.399   .     A
C281   H311    1.084   .     S
C282   C292    1.397   .     A
C282   C284    1.399   .     A
C282   H312    1.084   .     S
C283   C313    1.486   .     S
C283   C285    1.420   .     A
C284   C316    1.487   .     S
C284   C286    1.421   .     A
C285   C287    1.404   .     A
C286   C288    1.404   .     A
C287   H319    1.083   .     S
C287   C289    1.389   .     A
C288   H320    1.083   .     S
C288   C290    1.389   .     A
C289   H321    1.083   .     S
C289   C291    1.396   .     A
C290   H322    1.083   .     S
C290   C292    1.396   .     A
C292   C93     1.458   1_565 S
Cu293  N302    2.018   .     S
Cu293  Cu294   2.686   .     S
Cu293  O306    1.955   .     S
Cu293  O310    1.959   .     S
Cu293  O303    1.953   .     S
Cu293  O307    1.953   .     S
Cu294  O305    1.955   .     S
Cu294  O309    1.959   .     S
Cu294  O304    1.953   .     S
Cu294  O308    1.953   .     S
Cu294  N301    2.018   .     S
H295   C345    1.087   .     S
C313   H314    1.084   .     S
C313   O315    1.221   .     D
C316   H317    1.084   .     S
C316   O318    1.221   .     D
C323   O325    1.222   .     D
C323   H324    1.076   .     S
C326   H327    1.076   .     S
C326   O328    1.222   .     D
C331   C351    1.465   .     S
C331   O371    1.299   .     A
C331   O369    1.294   .     A
C332   C352    1.467   .     S
C332   O372    1.301   .     A
C332   O370    1.294   .     A
C333   C341    1.414   .     A
C333   C335    1.411   .     A
C333   H363    1.081   .     S
C334   H364    1.081   .     S
C334   C336    1.411   .     A
C334   C342    1.414   .     A
C335   N367    1.365   .     A
C335   H365    1.081   .     S
C336   N368    1.365   .     A
C336   H366    1.081   .     S
C337   C389    1.481   .     S
C337   N367    1.383   .     A
C337   C339    1.409   .     A
C338   N368    1.384   .     A
C338   C392    1.480   .     S
C338   C340    1.410   .     A
C339   C341    1.397   .     A
C339   H395    1.082   .     S
C340   C342    1.397   .     A
C340   H396    1.082   .     S
C341   C738    1.518   1_554 S
C342   C737    1.518   .     S
C343   O373    1.286   .     A
C343   C345    1.436   .     S
C343   O375    1.294   .     A
C344   O374    1.286   .     A
C344   C346    1.436   .     S
C344   O376    1.294   .     A
C346   C213    1.339   1_655 S
C346   H230    1.087   1_655 S
C347   C357    1.397   .     A
C347   C349    1.399   .     A
C347   H377    1.084   .     S
C348   C358    1.397   .     A
C348   C350    1.399   .     A
C348   H378    1.084   .     S
C349   C379    1.486   .     S
C349   C351    1.420   .     A
C350   C382    1.487   .     S
C350   C352    1.421   .     A
C351   C353    1.404   .     A
C352   C354    1.404   .     A
C353   H385    1.083   .     S
C353   C355    1.389   .     A
C354   H386    1.083   .     S
C354   C356    1.389   .     A
C355   H387    1.083   .     S
C355   C357    1.396   .     A
C356   H388    1.083   .     S
C356   C358    1.396   .     A
C358   C159    1.458   1_565 S
Cu359  N368    2.018   .     S
Cu359  Cu360   2.686   .     S
Cu359  O372    1.955   .     S
Cu359  O376    1.959   .     S
Cu359  O369    1.953   .     S
Cu359  O373    1.953   .     S
Cu360  O371    1.955   .     S
Cu360  O375    1.959   .     S
Cu360  O370    1.953   .     S
Cu360  O374    1.953   .     S
Cu360  N367    2.018   .     S
H361   C213    1.087   1_655 S
C379   H380    1.084   .     S
C379   O381    1.221   .     D
C382   H383    1.084   .     S
C382   O384    1.221   .     D
C389   O391    1.222   .     D
C389   H390    1.076   .     S
C392   H393    1.076   .     S
C392   O394    1.222   .     D
C397   C417    1.465   .     S
C397   O437    1.299   .     A
C397   O435    1.294   .     A
C398   C418    1.467   .     S
C398   O438    1.301   .     A
C398   O436    1.294   .     A
C399   C407    1.414   .     A
C399   C401    1.411   .     A
C399   H429    1.081   .     S
C400   H430    1.081   .     S
C400   C402    1.411   .     A
C400   C408    1.414   .     A
C401   N433    1.365   .     A
C401   H431    1.081   .     S
C402   N434    1.365   .     A
C402   H432    1.081   .     S
C403   C455    1.481   .     S
C403   N433    1.383   .     A
C403   C405    1.409   .     A
C404   N434    1.384   .     A
C404   C458    1.480   .     S
C404   C406    1.410   .     A
C405   C407    1.397   .     A
C405   H461    1.082   .     S
C406   C408    1.397   .     A
C406   H462    1.082   .     S
C408   C11     1.518   1_556 S
C409   O439    1.286   .     A
C409   C411    1.436   .     S
C409   O441    1.294   .     A
C410   O440    1.286   .     A
C410   C412    1.436   .     S
C410   O442    1.294   .     A
C411   C544    1.339   1_455 S
C411   H559    1.087   1_455 S
C412   C477    1.339   .     S
C412   H494    1.087   .     S
C413   C423    1.397   .     A
C413   C415    1.399   .     A
C413   H443    1.084   .     S
C414   C424    1.397   .     A
C414   C416    1.399   .     A
C414   H444    1.084   .     S
C415   C445    1.486   .     S
C415   C417    1.420   .     A
C416   C448    1.487   .     S
C416   C418    1.421   .     A
C417   C419    1.404   .     A
C418   C420    1.404   .     A
C419   H451    1.083   .     S
C419   C421    1.389   .     A
C420   H452    1.083   .     S
C420   C422    1.389   .     A
C421   H453    1.083   .     S
C421   C423    1.396   .     A
C422   H454    1.083   .     S
C422   C424    1.396   .     A
C423   C622    1.458   1_545 S
C424   C621    1.458   .     S
Cu425  N434    2.018   .     S
Cu425  Cu426   2.686   .     S
Cu425  O438    1.955   .     S
Cu425  O442    1.959   .     S
Cu425  O435    1.953   .     S
Cu425  O439    1.953   .     S
Cu426  O437    1.955   .     S
Cu426  O441    1.959   .     S
Cu426  O436    1.953   .     S
Cu426  O440    1.953   .     S
Cu426  N433    2.018   .     S
H427   C477    1.087   .     S
H428   C544    1.087   1_455 S
C445   H446    1.084   .     S
C445   O447    1.221   .     D
C448   H449    1.084   .     S
C448   O450    1.221   .     D
C455   O457    1.222   .     D
C455   H456    1.076   .     S
C458   H459    1.076   .     S
C458   O460    1.222   .     D
C463   C483    1.465   .     S
C463   O503    1.299   .     A
C463   O501    1.294   .     A
C464   C484    1.467   .     S
C464   O504    1.301   .     A
C464   O502    1.294   .     A
C465   C473    1.414   .     A
C465   C467    1.411   .     A
C465   H495    1.081   .     S
C466   H496    1.081   .     S
C466   C468    1.411   .     A
C466   C474    1.414   .     A
C467   N499    1.365   .     A
C467   H497    1.081   .     S
C468   N500    1.365   .     A
C468   H498    1.081   .     S
C469   C521    1.481   .     S
C469   N499    1.383   .     A
C469   C471    1.409   .     A
C470   N500    1.384   .     A
C470   C524    1.480   .     S
C470   C472    1.410   .     A
C471   C473    1.397   .     A
C471   H527    1.082   .     S
C472   C474    1.397   .     A
C472   H528    1.082   .     S
C474   C77     1.518   1_556 S
C475   O505    1.286   .     A
C475   C477    1.436   .     S
C475   O507    1.294   .     A
C476   O506    1.286   .     A
C476   C478    1.436   .     S
C476   O508    1.294   .     A
C478   C543    1.339   .     S
C478   H560    1.087   .     S
C479   C489    1.397   .     A
C479   C481    1.399   .     A
C479   H509    1.084   .     S
C480   C490    1.397   .     A
C480   C482    1.399   .     A
C480   H510    1.084   .     S
C481   C511    1.486   .     S
C481   C483    1.420   .     A
C482   C514    1.487   .     S
C482   C484    1.421   .     A
C483   C485    1.404   .     A
C484   C486    1.404   .     A
C485   H517    1.083   .     S
C485   C487    1.389   .     A
C486   H518    1.083   .     S
C486   C488    1.389   .     A
C487   H519    1.083   .     S
C487   C489    1.396   .     A
C488   H520    1.083   .     S
C488   C490    1.396   .     A
C489   C688    1.458   1_545 S
C490   C687    1.458   .     S
Cu491  N500    2.018   .     S
Cu491  Cu492   2.686   .     S
Cu491  O504    1.955   .     S
Cu491  O508    1.959   .     S
Cu491  O501    1.953   .     S
Cu491  O505    1.953   .     S
Cu492  O503    1.955   .     S
Cu492  O507    1.959   .     S
Cu492  O502    1.953   .     S
Cu492  O506    1.953   .     S
Cu492  N499    2.018   .     S
H493   C543    1.087   .     S
C511   H512    1.084   .     S
C511   O513    1.221   .     D
C514   H515    1.084   .     S
C514   O516    1.221   .     D
C521   O523    1.222   .     D
C521   H522    1.076   .     S
C524   H525    1.076   .     S
C524   O526    1.222   .     D
C529   C549    1.465   .     S
C529   O569    1.299   .     A
C529   O567    1.294   .     A
C530   C550    1.467   .     S
C530   O570    1.301   .     A
C530   O568    1.294   .     A
C531   C539    1.414   .     A
C531   C533    1.411   .     A
C531   H561    1.081   .     S
C532   H562    1.081   .     S
C532   C534    1.411   .     A
C532   C540    1.414   .     A
C533   N565    1.365   .     A
C533   H563    1.081   .     S
C534   N566    1.365   .     A
C534   H564    1.081   .     S
C535   C587    1.481   .     S
C535   N565    1.383   .     A
C535   C537    1.409   .     A
C536   N566    1.384   .     A
C536   C590    1.480   .     S
C536   C538    1.410   .     A
C537   C539    1.397   .     A
C537   H593    1.082   .     S
C538   C540    1.397   .     A
C538   H594    1.082   .     S
C540   C143    1.518   1_556 S
C541   O571    1.286   .     A
C541   C543    1.436   .     S
C541   O573    1.294   .     A
C542   O572    1.286   .     A
C542   C544    1.436   .     S
C542   O574    1.294   .     A
C544   C411    1.339   1_655 S
C544   H428    1.087   1_655 S
C545   C555    1.397   .     A
C545   C547    1.399   .     A
C545   H575    1.084   .     S
C546   C556    1.397   .     A
C546   C548    1.399   .     A
C546   H576    1.084   .     S
C547   C577    1.486   .     S
C547   C549    1.420   .     A
C548   C580    1.487   .     S
C548   C550    1.421   .     A
C549   C551    1.404   .     A
C550   C552    1.404   .     A
C551   H583    1.083   .     S
C551   C553    1.389   .     A
C552   H584    1.083   .     S
C552   C554    1.389   .     A
C553   H585    1.083   .     S
C553   C555    1.396   .     A
C554   H586    1.083   .     S
C554   C556    1.396   .     A
C555   C754    1.458   1_545 S
C556   C753    1.458   .     S
Cu557  N566    2.018   .     S
Cu557  Cu558   2.686   .     S
Cu557  O570    1.955   .     S
Cu557  O574    1.959   .     S
Cu557  O567    1.953   .     S
Cu557  O571    1.953   .     S
Cu558  O569    1.955   .     S
Cu558  O573    1.959   .     S
Cu558  O568    1.953   .     S
Cu558  O572    1.953   .     S
Cu558  N565    2.018   .     S
H559   C411    1.087   1_655 S
C577   H578    1.084   .     S
C577   O579    1.221   .     D
C580   H581    1.084   .     S
C580   O582    1.221   .     D
C587   O589    1.222   .     D
C587   H588    1.076   .     S
C590   H591    1.076   .     S
C590   O592    1.222   .     D
C595   C615    1.465   .     S
C595   O635    1.299   .     A
C595   O633    1.294   .     A
C596   C616    1.467   .     S
C596   O636    1.301   .     A
C596   O634    1.294   .     A
C597   C605    1.414   .     A
C597   C599    1.411   .     A
C597   H627    1.081   .     S
C598   H628    1.081   .     S
C598   C600    1.411   .     A
C598   C606    1.414   .     A
C599   N631    1.365   .     A
C599   H629    1.081   .     S
C600   N632    1.365   .     A
C600   H630    1.081   .     S
C601   C653    1.481   .     S
C601   N631    1.383   .     A
C601   C603    1.409   .     A
C602   N632    1.384   .     A
C602   C656    1.480   .     S
C602   C604    1.410   .     A
C603   C605    1.397   .     A
C603   H659    1.082   .     S
C604   C606    1.397   .     A
C604   H660    1.082   .     S
C606   C209    1.518   1_556 S
C607   O637    1.286   .     A
C607   C609    1.436   .     S
C607   O639    1.294   .     A
C608   O638    1.286   .     A
C608   C610    1.436   .     S
C608   O640    1.294   .     A
C609   C742    1.339   1_455 S
C609   H757    1.087   1_455 S
C610   C675    1.339   .     S
C610   H692    1.087   .     S
C611   C621    1.397   .     A
C611   C613    1.399   .     A
C611   H641    1.084   .     S
C612   C622    1.397   .     A
C612   C614    1.399   .     A
C612   H642    1.084   .     S
C613   C643    1.486   .     S
C613   C615    1.420   .     A
C614   C646    1.487   .     S
C614   C616    1.421   .     A
C615   C617    1.404   .     A
C616   C618    1.404   .     A
C617   H649    1.083   .     S
C617   C619    1.389   .     A
C618   H650    1.083   .     S
C618   C620    1.389   .     A
C619   H651    1.083   .     S
C619   C621    1.396   .     A
C620   H652    1.083   .     S
C620   C622    1.396   .     A
C622   C423    1.458   1_565 S
Cu623  N632    2.018   .     S
Cu623  Cu624   2.686   .     S
Cu623  O636    1.955   .     S
Cu623  O640    1.959   .     S
Cu623  O633    1.953   .     S
Cu623  O637    1.953   .     S
Cu624  O635    1.955   .     S
Cu624  O639    1.959   .     S
Cu624  O634    1.953   .     S
Cu624  O638    1.953   .     S
Cu624  N631    2.018   .     S
H625   C675    1.087   .     S
H626   C742    1.087   1_455 S
C643   H644    1.084   .     S
C643   O645    1.221   .     D
C646   H647    1.084   .     S
C646   O648    1.221   .     D
C653   O655    1.222   .     D
C653   H654    1.076   .     S
C656   H657    1.076   .     S
C656   O658    1.222   .     D
C661   C681    1.465   .     S
C661   O701    1.299   .     A
C661   O699    1.294   .     A
C662   C682    1.467   .     S
C662   O702    1.301   .     A
C662   O700    1.294   .     A
C663   C671    1.414   .     A
C663   C665    1.411   .     A
C663   H693    1.081   .     S
C664   H694    1.081   .     S
C664   C666    1.411   .     A
C664   C672    1.414   .     A
C665   N697    1.365   .     A
C665   H695    1.081   .     S
C666   N698    1.365   .     A
C666   H696    1.081   .     S
C667   C719    1.481   .     S
C667   N697    1.383   .     A
C667   C669    1.409   .     A
C668   N698    1.384   .     A
C668   C722    1.480   .     S
C668   C670    1.410   .     A
C669   C671    1.397   .     A
C669   H725    1.082   .     S
C670   C672    1.397   .     A
C670   H726    1.082   .     S
C672   C275    1.518   1_556 S
C673   O703    1.286   .     A
C673   C675    1.436   .     S
C673   O705    1.294   .     A
C674   O704    1.286   .     A
C674   C676    1.436   .     S
C674   O706    1.294   .     A
C676   C741    1.339   .     S
C676   H758    1.087   .     S
C677   C687    1.397   .     A
C677   C679    1.399   .     A
C677   H707    1.084   .     S
C678   C688    1.397   .     A
C678   C680    1.399   .     A
C678   H708    1.084   .     S
C679   C709    1.486   .     S
C679   C681    1.420   .     A
C680   C712    1.487   .     S
C680   C682    1.421   .     A
C681   C683    1.404   .     A
C682   C684    1.404   .     A
C683   H715    1.083   .     S
C683   C685    1.389   .     A
C684   H716    1.083   .     S
C684   C686    1.389   .     A
C685   H717    1.083   .     S
C685   C687    1.396   .     A
C686   H718    1.083   .     S
C686   C688    1.396   .     A
C688   C489    1.458   1_565 S
Cu689  N698    2.018   .     S
Cu689  Cu690   2.686   .     S
Cu689  O702    1.955   .     S
Cu689  O706    1.959   .     S
Cu689  O699    1.953   .     S
Cu689  O703    1.953   .     S
Cu690  O701    1.955   .     S
Cu690  O705    1.959   .     S
Cu690  O700    1.953   .     S
Cu690  O704    1.953   .     S
Cu690  N697    2.018   .     S
H691   C741    1.087   .     S
C709   H710    1.084   .     S
C709   O711    1.221   .     D
C712   H713    1.084   .     S
C712   O714    1.221   .     D
C719   O721    1.222   .     D
C719   H720    1.076   .     S
C722   H723    1.076   .     S
C722   O724    1.222   .     D
C727   C747    1.465   .     S
C727   O767    1.299   .     A
C727   O765    1.294   .     A
C728   C748    1.467   .     S
C728   O768    1.301   .     A
C728   O766    1.294   .     A
C729   C737    1.414   .     A
C729   C731    1.411   .     A
C729   H759    1.081   .     S
C730   H760    1.081   .     S
C730   C732    1.411   .     A
C730   C738    1.414   .     A
C731   N763    1.365   .     A
C731   H761    1.081   .     S
C732   N764    1.365   .     A
C732   H762    1.081   .     S
C733   C785    1.481   .     S
C733   N763    1.383   .     A
C733   C735    1.409   .     A
C734   N764    1.384   .     A
C734   C788    1.480   .     S
C734   C736    1.410   .     A
C735   C737    1.397   .     A
C735   H791    1.082   .     S
C736   C738    1.397   .     A
C736   H792    1.082   .     S
C738   C341    1.518   1_556 S
C739   O769    1.286   .     A
C739   C741    1.436   .     S
C739   O771    1.294   .     A
C740   O770    1.286   .     A
C740   C742    1.436   .     S
C740   O772    1.294   .     A
C742   C609    1.339   1_655 S
C742   H626    1.087   1_655 S
C743   C753    1.397   .     A
C743   C745    1.399   .     A
C743   H773    1.084   .     S
C744   C754    1.397   .     A
C744   C746    1.399   .     A
C744   H774    1.084   .     S
C745   C775    1.486   .     S
C745   C747    1.420   .     A
C746   C778    1.487   .     S
C746   C748    1.421   .     A
C747   C749    1.404   .     A
C748   C750    1.404   .     A
C749   H781    1.083   .     S
C749   C751    1.389   .     A
C750   H782    1.083   .     S
C750   C752    1.389   .     A
C751   H783    1.083   .     S
C751   C753    1.396   .     A
C752   H784    1.083   .     S
C752   C754    1.396   .     A
C754   C555    1.458   1_565 S
Cu755  N764    2.018   .     S
Cu755  Cu756   2.686   .     S
Cu755  O768    1.955   .     S
Cu755  O772    1.959   .     S
Cu755  O765    1.953   .     S
Cu755  O769    1.953   .     S
Cu756  O767    1.955   .     S
Cu756  O771    1.959   .     S
Cu756  O766    1.953   .     S
Cu756  O770    1.953   .     S
Cu756  N763    2.018   .     S
H757   C609    1.087   1_655 S
C775   H776    1.084   .     S
C775   O777    1.221   .     D
C778   H779    1.084   .     S
C778   O780    1.221   .     D
C785   O787    1.222   .     D
C785   H786    1.076   .     S
C788   H789    1.076   .     S
C788   O790    1.222   .     D
