data_str_m2_o2_o10_pcu_sym.173
_audit_creation_date              2020-01-03
_audit_creation_method            'Materials Studio'
_symmetry_space_group_name_H-M    'P1'
_symmetry_Int_Tables_number       1
_symmetry_cell_setting            triclinic
loop_
_symmetry_equiv_pos_as_xyz
  x,y,z
_cell_length_a                    26.2036
_cell_length_b                    30.2764
_cell_length_c                    27.7448
_cell_angle_alpha                 90.0764
_cell_angle_beta                  97.9730
_cell_angle_gamma                 90.0923
loop_
_atom_site_label
_atom_site_type_symbol
_atom_site_fract_x
_atom_site_fract_y
_atom_site_fract_z
_atom_site_U_iso_or_equiv
_atom_site_adp_type
_atom_site_occupancy
C1     C     0.16665   0.16494   0.24998   0.00000  Uiso   1.00
C2     C     0.16671   0.33505   0.25004   0.00000  Uiso   1.00
C3     C     0.20805   0.26500   0.05865   0.00000  Uiso   1.00
C4     C     0.15181   0.21357   0.44479   0.00000  Uiso   1.00
C5     C     0.20827   0.26479   0.10938   0.00000  Uiso   1.00
C6     C     0.15218   0.21342   0.39413   0.00000  Uiso   1.00
C7     C     0.12400   0.23543   0.09966   0.00000  Uiso   1.00
C8     C     0.18078   0.28741   0.39676   0.00000  Uiso   1.00
C9     C     0.12081   0.23679   0.04854   0.00000  Uiso   1.00
C10    C     0.17891   0.28999   0.44721   0.00000  Uiso   1.00
C11    C     0.16407   0.25145   0.02699   0.00000  Uiso   1.00
C12    C     0.16466   0.25203   0.47248   0.00000  Uiso   1.00
C13    C     0.06790   0.24998   0.23755   0.00000  Uiso   1.00
C14    C     0.26544   0.25001   0.26245   0.00000  Uiso   1.00
C15    C     0.01263   0.24996   0.23068   0.00000  Uiso   1.00
C16    C     0.32071   0.25002   0.26931   0.00000  Uiso   1.00
C17    C     0.18216   0.04770   0.29332   0.00000  Uiso   1.00
C18    C     0.18264   0.45237   0.21108   0.00000  Uiso   1.00
C19    C     0.18182   0.09361   0.29334   0.00000  Uiso   1.00
C20    C     0.18233   0.40646   0.21093   0.00000  Uiso   1.00
C21    C     0.16664   0.11671   0.24998   0.00000  Uiso   1.00
C22    C     0.16677   0.38328   0.25011   0.00000  Uiso   1.00
C23    C     0.15144   0.09341   0.20666   0.00000  Uiso   1.00
C24    C     0.15124   0.40649   0.28932   0.00000  Uiso   1.00
C25    C     0.15108   0.04750   0.20677   0.00000  Uiso   1.00
C26    C     0.15085   0.45240   0.28916   0.00000  Uiso   1.00
C27    C     0.16664   0.02427   0.25006   0.00000  Uiso   1.00
C28    C     0.16670   0.47571   0.25010   0.00000  Uiso   1.00
Cu29   Cu    0.16667   0.25000   0.29822   0.00000  Uiso   1.00
Cu30   Cu    0.16667   0.25001   0.20179   0.00000  Uiso   1.00
H31    H     0.32597   0.24990   0.19362   0.00000  Uiso   1.00
H32    H     0.00738   0.25006   0.30636   0.00000  Uiso   1.00
H33    H     0.19519   0.03057   0.32701   0.00000  Uiso   1.00
H34    H     0.19593   0.46957   0.18095   0.00000  Uiso   1.00
H35    H     0.19410   0.11099   0.32712   0.00000  Uiso   1.00
H36    H     0.19491   0.38914   0.18049   0.00000  Uiso   1.00
H37    H     0.13914   0.11065   0.17287   0.00000  Uiso   1.00
H38    H     0.13869   0.38918   0.31976   0.00000  Uiso   1.00
H39    H     0.13806   0.03020   0.17311   0.00000  Uiso   1.00
H40    H     0.13754   0.46963   0.31928   0.00000  Uiso   1.00
H41    H     0.24214   0.27610   0.04411   0.00000  Uiso   1.00
H42    H     0.14111   0.18366   0.46233   0.00000  Uiso   1.00
H43    H     0.24207   0.27653   0.13265   0.00000  Uiso   1.00
H44    H     0.14081   0.18371   0.37382   0.00000  Uiso   1.00
H45    H     0.09120   0.22346   0.11549   0.00000  Uiso   1.00
H46    H     0.19264   0.31632   0.37840   0.00000  Uiso   1.00
N47    N     0.16667   0.25001   0.12935   0.00000  Uiso   1.00
N48    N     0.16667   0.24999   0.37066   0.00000  Uiso   1.00
O49    O     0.16667   0.18573   0.29072   0.00000  Uiso   1.00
O50    O     0.16666   0.31428   0.20929   0.00000  Uiso   1.00
O51    O     0.16667   0.18573   0.20928   0.00000  Uiso   1.00
O52    O     0.16666   0.31427   0.29072   0.00000  Uiso   1.00
O53    O     0.09161   0.24999   0.28132   0.00000  Uiso   1.00
O54    O     0.24172   0.25001   0.21868   0.00000  Uiso   1.00
O55    O     0.09161   0.25000   0.19989   0.00000  Uiso   1.00
O56    O     0.24172   0.25000   0.30012   0.00000  Uiso   1.00
O57    O     0.07455   0.22460   0.02177   0.00000  Uiso   1.00
H58    H     0.07274   0.23654   0.48842   0.00000  Uiso   1.00
O59    O     0.19005   0.33033   0.46948   0.00000  Uiso   1.00
H60    H     0.17589   0.33110   0.00071   0.00000  Uiso   1.00
C61    C     0.49998   0.16494   0.24998   0.00000  Uiso   1.00
C62    C     0.50004   0.33505   0.25004   0.00000  Uiso   1.00
C63    C     0.54138   0.26500   0.05865   0.00000  Uiso   1.00
C64    C     0.48514   0.21357   0.44479   0.00000  Uiso   1.00
C65    C     0.54160   0.26479   0.10938   0.00000  Uiso   1.00
C66    C     0.48552   0.21342   0.39413   0.00000  Uiso   1.00
C67    C     0.45734   0.23543   0.09966   0.00000  Uiso   1.00
C68    C     0.51411   0.28741   0.39676   0.00000  Uiso   1.00
C69    C     0.45415   0.23679   0.04854   0.00000  Uiso   1.00
C70    C     0.51224   0.28999   0.44721   0.00000  Uiso   1.00
C71    C     0.49741   0.25145   0.02699   0.00000  Uiso   1.00
C72    C     0.49799   0.25203   0.47248   0.00000  Uiso   1.00
C73    C     0.40123   0.24998   0.23755   0.00000  Uiso   1.00
C74    C     0.59877   0.25001   0.26245   0.00000  Uiso   1.00
C75    C     0.34596   0.24996   0.23068   0.00000  Uiso   1.00
C76    C     0.65404   0.25002   0.26931   0.00000  Uiso   1.00
C77    C     0.51550   0.04770   0.29332   0.00000  Uiso   1.00
C78    C     0.51597   0.45237   0.21108   0.00000  Uiso   1.00
C79    C     0.51515   0.09361   0.29334   0.00000  Uiso   1.00
C80    C     0.51566   0.40646   0.21093   0.00000  Uiso   1.00
C81    C     0.49998   0.11671   0.24998   0.00000  Uiso   1.00
C82    C     0.50010   0.38328   0.25011   0.00000  Uiso   1.00
C83    C     0.48477   0.09341   0.20666   0.00000  Uiso   1.00
C84    C     0.48457   0.40649   0.28932   0.00000  Uiso   1.00
C85    C     0.48442   0.04750   0.20677   0.00000  Uiso   1.00
C86    C     0.48418   0.45240   0.28916   0.00000  Uiso   1.00
C87    C     0.49997   0.02427   0.25006   0.00000  Uiso   1.00
C88    C     0.50003   0.47571   0.25010   0.00000  Uiso   1.00
Cu89   Cu    0.50000   0.25000   0.29822   0.00000  Uiso   1.00
Cu90   Cu    0.50000   0.25001   0.20179   0.00000  Uiso   1.00
H91    H     0.65931   0.24990   0.19362   0.00000  Uiso   1.00
H92    H     0.34071   0.25006   0.30636   0.00000  Uiso   1.00
H93    H     0.52852   0.03057   0.32701   0.00000  Uiso   1.00
H94    H     0.52927   0.46957   0.18095   0.00000  Uiso   1.00
H95    H     0.52743   0.11099   0.32712   0.00000  Uiso   1.00
H96    H     0.52825   0.38914   0.18049   0.00000  Uiso   1.00
H97    H     0.47247   0.11065   0.17287   0.00000  Uiso   1.00
H98    H     0.47203   0.38918   0.31976   0.00000  Uiso   1.00
H99    H     0.47140   0.03020   0.17311   0.00000  Uiso   1.00
H100   H     0.47087   0.46963   0.31928   0.00000  Uiso   1.00
H101   H     0.57547   0.27610   0.04411   0.00000  Uiso   1.00
H102   H     0.47445   0.18366   0.46233   0.00000  Uiso   1.00
H103   H     0.57540   0.27653   0.13265   0.00000  Uiso   1.00
H104   H     0.47414   0.18371   0.37382   0.00000  Uiso   1.00
H105   H     0.42453   0.22346   0.11549   0.00000  Uiso   1.00
H106   H     0.52598   0.31632   0.37840   0.00000  Uiso   1.00
N107   N     0.50000   0.25001   0.12935   0.00000  Uiso   1.00
N108   N     0.50000   0.24999   0.37066   0.00000  Uiso   1.00
O109   O     0.50000   0.18573   0.29072   0.00000  Uiso   1.00
O110   O     0.50000   0.31428   0.20929   0.00000  Uiso   1.00
O111   O     0.50000   0.18573   0.20928   0.00000  Uiso   1.00
O112   O     0.50000   0.31427   0.29072   0.00000  Uiso   1.00
O113   O     0.42495   0.24999   0.28132   0.00000  Uiso   1.00
O114   O     0.57505   0.25001   0.21868   0.00000  Uiso   1.00
O115   O     0.42495   0.25000   0.19989   0.00000  Uiso   1.00
O116   O     0.57505   0.25000   0.30012   0.00000  Uiso   1.00
O117   O     0.40788   0.22460   0.02177   0.00000  Uiso   1.00
H118   H     0.40607   0.23654   0.48842   0.00000  Uiso   1.00
O119   O     0.52338   0.33033   0.46948   0.00000  Uiso   1.00
H120   H     0.50922   0.33110   0.00071   0.00000  Uiso   1.00
C121   C     0.83332   0.16494   0.24998   0.00000  Uiso   1.00
C122   C     0.83337   0.33505   0.25004   0.00000  Uiso   1.00
C123   C     0.87471   0.26500   0.05865   0.00000  Uiso   1.00
C124   C     0.81848   0.21357   0.44479   0.00000  Uiso   1.00
C125   C     0.87493   0.26479   0.10938   0.00000  Uiso   1.00
C126   C     0.81885   0.21342   0.39413   0.00000  Uiso   1.00
C127   C     0.79067   0.23543   0.09966   0.00000  Uiso   1.00
C128   C     0.84745   0.28741   0.39676   0.00000  Uiso   1.00
C129   C     0.78748   0.23679   0.04854   0.00000  Uiso   1.00
C130   C     0.84557   0.28999   0.44721   0.00000  Uiso   1.00
C131   C     0.83074   0.25145   0.02699   0.00000  Uiso   1.00
C132   C     0.83133   0.25203   0.47248   0.00000  Uiso   1.00
C133   C     0.73456   0.24998   0.23755   0.00000  Uiso   1.00
C134   C     0.93210   0.25001   0.26245   0.00000  Uiso   1.00
C135   C     0.67929   0.24996   0.23068   0.00000  Uiso   1.00
C136   C     0.98738   0.25002   0.26931   0.00000  Uiso   1.00
C137   C     0.84883   0.04770   0.29332   0.00000  Uiso   1.00
C138   C     0.84931   0.45237   0.21108   0.00000  Uiso   1.00
C139   C     0.84848   0.09361   0.29334   0.00000  Uiso   1.00
C140   C     0.84899   0.40646   0.21093   0.00000  Uiso   1.00
C141   C     0.83331   0.11671   0.24998   0.00000  Uiso   1.00
C142   C     0.83343   0.38328   0.25011   0.00000  Uiso   1.00
C143   C     0.81810   0.09341   0.20666   0.00000  Uiso   1.00
C144   C     0.81791   0.40649   0.28932   0.00000  Uiso   1.00
C145   C     0.81775   0.04750   0.20677   0.00000  Uiso   1.00
C146   C     0.81752   0.45240   0.28916   0.00000  Uiso   1.00
C147   C     0.83330   0.02427   0.25006   0.00000  Uiso   1.00
C148   C     0.83337   0.47571   0.25010   0.00000  Uiso   1.00
Cu149  Cu    0.83333   0.25000   0.29822   0.00000  Uiso   1.00
Cu150  Cu    0.83333   0.25001   0.20179   0.00000  Uiso   1.00
H151   H     0.99264   0.24990   0.19362   0.00000  Uiso   1.00
H152   H     0.67405   0.25006   0.30636   0.00000  Uiso   1.00
H153   H     0.86185   0.03057   0.32701   0.00000  Uiso   1.00
H154   H     0.86260   0.46957   0.18095   0.00000  Uiso   1.00
H155   H     0.86076   0.11099   0.32712   0.00000  Uiso   1.00
H156   H     0.86158   0.38914   0.18049   0.00000  Uiso   1.00
H157   H     0.80580   0.11065   0.17287   0.00000  Uiso   1.00
H158   H     0.80536   0.38918   0.31976   0.00000  Uiso   1.00
H159   H     0.80473   0.03020   0.17311   0.00000  Uiso   1.00
H160   H     0.80421   0.46963   0.31928   0.00000  Uiso   1.00
H161   H     0.90881   0.27610   0.04411   0.00000  Uiso   1.00
H162   H     0.80778   0.18366   0.46233   0.00000  Uiso   1.00
H163   H     0.90874   0.27653   0.13265   0.00000  Uiso   1.00
H164   H     0.80747   0.18371   0.37382   0.00000  Uiso   1.00
H165   H     0.75787   0.22346   0.11549   0.00000  Uiso   1.00
H166   H     0.85931   0.31632   0.37840   0.00000  Uiso   1.00
N167   N     0.83333   0.25001   0.12935   0.00000  Uiso   1.00
N168   N     0.83333   0.24999   0.37066   0.00000  Uiso   1.00
O169   O     0.83334   0.18573   0.29072   0.00000  Uiso   1.00
O170   O     0.83333   0.31428   0.20929   0.00000  Uiso   1.00
O171   O     0.83334   0.18573   0.20928   0.00000  Uiso   1.00
O172   O     0.83333   0.31427   0.29072   0.00000  Uiso   1.00
O173   O     0.75828   0.24999   0.28132   0.00000  Uiso   1.00
O174   O     0.90839   0.25001   0.21868   0.00000  Uiso   1.00
O175   O     0.75828   0.25000   0.19989   0.00000  Uiso   1.00
O176   O     0.90839   0.25000   0.30012   0.00000  Uiso   1.00
O177   O     0.74122   0.22460   0.02177   0.00000  Uiso   1.00
H178   H     0.73940   0.23654   0.48842   0.00000  Uiso   1.00
O179   O     0.85671   0.33033   0.46948   0.00000  Uiso   1.00
H180   H     0.84255   0.33110   0.00071   0.00000  Uiso   1.00
C181   C     0.16665   0.66494   0.24998   0.00000  Uiso   1.00
C182   C     0.16671   0.83505   0.25004   0.00000  Uiso   1.00
C183   C     0.20805   0.76500   0.05865   0.00000  Uiso   1.00
C184   C     0.15181   0.71357   0.44479   0.00000  Uiso   1.00
C185   C     0.20827   0.76479   0.10938   0.00000  Uiso   1.00
C186   C     0.15218   0.71342   0.39413   0.00000  Uiso   1.00
C187   C     0.12400   0.73543   0.09966   0.00000  Uiso   1.00
C188   C     0.18078   0.78741   0.39676   0.00000  Uiso   1.00
C189   C     0.12081   0.73679   0.04854   0.00000  Uiso   1.00
C190   C     0.17891   0.78999   0.44721   0.00000  Uiso   1.00
C191   C     0.16407   0.75145   0.02699   0.00000  Uiso   1.00
C192   C     0.16466   0.75203   0.47248   0.00000  Uiso   1.00
C193   C     0.06790   0.74998   0.23755   0.00000  Uiso   1.00
C194   C     0.26544   0.75001   0.26245   0.00000  Uiso   1.00
C195   C     0.01263   0.74996   0.23068   0.00000  Uiso   1.00
C196   C     0.32071   0.75002   0.26931   0.00000  Uiso   1.00
C197   C     0.18216   0.54770   0.29332   0.00000  Uiso   1.00
C198   C     0.18264   0.95237   0.21108   0.00000  Uiso   1.00
C199   C     0.18182   0.59361   0.29334   0.00000  Uiso   1.00
C200   C     0.18233   0.90646   0.21093   0.00000  Uiso   1.00
C201   C     0.16664   0.61671   0.24998   0.00000  Uiso   1.00
C202   C     0.16677   0.88328   0.25011   0.00000  Uiso   1.00
C203   C     0.15144   0.59341   0.20666   0.00000  Uiso   1.00
C204   C     0.15124   0.90649   0.28932   0.00000  Uiso   1.00
C205   C     0.15108   0.54750   0.20677   0.00000  Uiso   1.00
C206   C     0.15085   0.95240   0.28916   0.00000  Uiso   1.00
C207   C     0.16664   0.52427   0.25006   0.00000  Uiso   1.00
C208   C     0.16670   0.97571   0.25010   0.00000  Uiso   1.00
Cu209  Cu    0.16667   0.75000   0.29822   0.00000  Uiso   1.00
Cu210  Cu    0.16667   0.75001   0.20179   0.00000  Uiso   1.00
H211   H     0.32597   0.74990   0.19362   0.00000  Uiso   1.00
H212   H     0.00738   0.75006   0.30636   0.00000  Uiso   1.00
H213   H     0.19519   0.53057   0.32701   0.00000  Uiso   1.00
H214   H     0.19593   0.96957   0.18095   0.00000  Uiso   1.00
H215   H     0.19410   0.61099   0.32712   0.00000  Uiso   1.00
H216   H     0.19491   0.88914   0.18049   0.00000  Uiso   1.00
H217   H     0.13914   0.61065   0.17287   0.00000  Uiso   1.00
H218   H     0.13869   0.88918   0.31976   0.00000  Uiso   1.00
H219   H     0.13806   0.53020   0.17311   0.00000  Uiso   1.00
H220   H     0.13754   0.96963   0.31928   0.00000  Uiso   1.00
H221   H     0.24214   0.77610   0.04411   0.00000  Uiso   1.00
H222   H     0.14111   0.68366   0.46233   0.00000  Uiso   1.00
H223   H     0.24207   0.77653   0.13265   0.00000  Uiso   1.00
H224   H     0.14081   0.68371   0.37382   0.00000  Uiso   1.00
H225   H     0.09120   0.72346   0.11549   0.00000  Uiso   1.00
H226   H     0.19264   0.81632   0.37840   0.00000  Uiso   1.00
N227   N     0.16667   0.75001   0.12935   0.00000  Uiso   1.00
N228   N     0.16667   0.74999   0.37066   0.00000  Uiso   1.00
O229   O     0.16667   0.68573   0.29072   0.00000  Uiso   1.00
O230   O     0.16666   0.81428   0.20929   0.00000  Uiso   1.00
O231   O     0.16667   0.68573   0.20928   0.00000  Uiso   1.00
O232   O     0.16666   0.81427   0.29072   0.00000  Uiso   1.00
O233   O     0.09161   0.74999   0.28132   0.00000  Uiso   1.00
O234   O     0.24172   0.75001   0.21868   0.00000  Uiso   1.00
O235   O     0.09161   0.75000   0.19989   0.00000  Uiso   1.00
O236   O     0.24172   0.75000   0.30012   0.00000  Uiso   1.00
O237   O     0.07455   0.72460   0.02177   0.00000  Uiso   1.00
H238   H     0.07274   0.73654   0.48842   0.00000  Uiso   1.00
O239   O     0.19005   0.83033   0.46948   0.00000  Uiso   1.00
H240   H     0.17589   0.83110   0.00071   0.00000  Uiso   1.00
C241   C     0.49998   0.66494   0.24998   0.00000  Uiso   1.00
C242   C     0.50004   0.83505   0.25004   0.00000  Uiso   1.00
C243   C     0.54138   0.76500   0.05865   0.00000  Uiso   1.00
C244   C     0.48514   0.71357   0.44479   0.00000  Uiso   1.00
C245   C     0.54160   0.76479   0.10938   0.00000  Uiso   1.00
C246   C     0.48552   0.71342   0.39413   0.00000  Uiso   1.00
C247   C     0.45734   0.73543   0.09966   0.00000  Uiso   1.00
C248   C     0.51411   0.78741   0.39676   0.00000  Uiso   1.00
C249   C     0.45415   0.73679   0.04854   0.00000  Uiso   1.00
C250   C     0.51224   0.78999   0.44721   0.00000  Uiso   1.00
C251   C     0.49741   0.75145   0.02699   0.00000  Uiso   1.00
C252   C     0.49799   0.75203   0.47248   0.00000  Uiso   1.00
C253   C     0.40123   0.74998   0.23755   0.00000  Uiso   1.00
C254   C     0.59877   0.75001   0.26245   0.00000  Uiso   1.00
C255   C     0.34596   0.74996   0.23068   0.00000  Uiso   1.00
C256   C     0.65404   0.75002   0.26931   0.00000  Uiso   1.00
C257   C     0.51550   0.54770   0.29332   0.00000  Uiso   1.00
C258   C     0.51597   0.95237   0.21108   0.00000  Uiso   1.00
C259   C     0.51515   0.59361   0.29334   0.00000  Uiso   1.00
C260   C     0.51566   0.90646   0.21093   0.00000  Uiso   1.00
C261   C     0.49998   0.61671   0.24998   0.00000  Uiso   1.00
C262   C     0.50010   0.88328   0.25011   0.00000  Uiso   1.00
C263   C     0.48477   0.59341   0.20666   0.00000  Uiso   1.00
C264   C     0.48457   0.90649   0.28932   0.00000  Uiso   1.00
C265   C     0.48442   0.54750   0.20677   0.00000  Uiso   1.00
C266   C     0.48418   0.95240   0.28916   0.00000  Uiso   1.00
C267   C     0.49997   0.52427   0.25006   0.00000  Uiso   1.00
C268   C     0.50003   0.97571   0.25010   0.00000  Uiso   1.00
Cu269  Cu    0.50000   0.75000   0.29822   0.00000  Uiso   1.00
Cu270  Cu    0.50000   0.75001   0.20179   0.00000  Uiso   1.00
H271   H     0.65931   0.74990   0.19362   0.00000  Uiso   1.00
H272   H     0.34071   0.75006   0.30636   0.00000  Uiso   1.00
H273   H     0.52852   0.53057   0.32701   0.00000  Uiso   1.00
H274   H     0.52927   0.96957   0.18095   0.00000  Uiso   1.00
H275   H     0.52743   0.61099   0.32712   0.00000  Uiso   1.00
H276   H     0.52825   0.88914   0.18049   0.00000  Uiso   1.00
H277   H     0.47247   0.61065   0.17287   0.00000  Uiso   1.00
H278   H     0.47203   0.88918   0.31976   0.00000  Uiso   1.00
H279   H     0.47140   0.53020   0.17311   0.00000  Uiso   1.00
H280   H     0.47087   0.96963   0.31928   0.00000  Uiso   1.00
H281   H     0.57547   0.77610   0.04411   0.00000  Uiso   1.00
H282   H     0.47445   0.68366   0.46233   0.00000  Uiso   1.00
H283   H     0.57540   0.77653   0.13265   0.00000  Uiso   1.00
H284   H     0.47414   0.68371   0.37382   0.00000  Uiso   1.00
H285   H     0.42453   0.72346   0.11549   0.00000  Uiso   1.00
H286   H     0.52598   0.81632   0.37840   0.00000  Uiso   1.00
N287   N     0.50000   0.75001   0.12935   0.00000  Uiso   1.00
N288   N     0.50000   0.74999   0.37066   0.00000  Uiso   1.00
O289   O     0.50000   0.68573   0.29072   0.00000  Uiso   1.00
O290   O     0.50000   0.81428   0.20929   0.00000  Uiso   1.00
O291   O     0.50000   0.68573   0.20928   0.00000  Uiso   1.00
O292   O     0.50000   0.81427   0.29072   0.00000  Uiso   1.00
O293   O     0.42495   0.74999   0.28132   0.00000  Uiso   1.00
O294   O     0.57505   0.75001   0.21868   0.00000  Uiso   1.00
O295   O     0.42495   0.75000   0.19989   0.00000  Uiso   1.00
O296   O     0.57505   0.75000   0.30012   0.00000  Uiso   1.00
O297   O     0.40788   0.72460   0.02177   0.00000  Uiso   1.00
H298   H     0.40607   0.73654   0.48842   0.00000  Uiso   1.00
O299   O     0.52338   0.83033   0.46948   0.00000  Uiso   1.00
H300   H     0.50922   0.83110   0.00071   0.00000  Uiso   1.00
C301   C     0.83332   0.66494   0.24998   0.00000  Uiso   1.00
C302   C     0.83337   0.83505   0.25004   0.00000  Uiso   1.00
C303   C     0.87471   0.76500   0.05865   0.00000  Uiso   1.00
C304   C     0.81848   0.71357   0.44479   0.00000  Uiso   1.00
C305   C     0.87493   0.76479   0.10938   0.00000  Uiso   1.00
C306   C     0.81885   0.71342   0.39413   0.00000  Uiso   1.00
C307   C     0.79067   0.73543   0.09966   0.00000  Uiso   1.00
C308   C     0.84745   0.78741   0.39676   0.00000  Uiso   1.00
C309   C     0.78748   0.73679   0.04854   0.00000  Uiso   1.00
C310   C     0.84557   0.78999   0.44721   0.00000  Uiso   1.00
C311   C     0.83074   0.75145   0.02699   0.00000  Uiso   1.00
C312   C     0.83133   0.75203   0.47248   0.00000  Uiso   1.00
C313   C     0.73456   0.74998   0.23755   0.00000  Uiso   1.00
C314   C     0.93210   0.75001   0.26245   0.00000  Uiso   1.00
C315   C     0.67929   0.74996   0.23068   0.00000  Uiso   1.00
C316   C     0.98738   0.75002   0.26931   0.00000  Uiso   1.00
C317   C     0.84883   0.54770   0.29332   0.00000  Uiso   1.00
C318   C     0.84931   0.95237   0.21108   0.00000  Uiso   1.00
C319   C     0.84848   0.59361   0.29334   0.00000  Uiso   1.00
C320   C     0.84899   0.90646   0.21093   0.00000  Uiso   1.00
C321   C     0.83331   0.61671   0.24998   0.00000  Uiso   1.00
C322   C     0.83343   0.88328   0.25011   0.00000  Uiso   1.00
C323   C     0.81810   0.59341   0.20666   0.00000  Uiso   1.00
C324   C     0.81791   0.90649   0.28932   0.00000  Uiso   1.00
C325   C     0.81775   0.54750   0.20677   0.00000  Uiso   1.00
C326   C     0.81752   0.95240   0.28916   0.00000  Uiso   1.00
C327   C     0.83330   0.52427   0.25006   0.00000  Uiso   1.00
C328   C     0.83337   0.97571   0.25010   0.00000  Uiso   1.00
Cu329  Cu    0.83333   0.75000   0.29822   0.00000  Uiso   1.00
Cu330  Cu    0.83333   0.75001   0.20179   0.00000  Uiso   1.00
H331   H     0.99264   0.74990   0.19362   0.00000  Uiso   1.00
H332   H     0.67405   0.75006   0.30636   0.00000  Uiso   1.00
H333   H     0.86185   0.53057   0.32701   0.00000  Uiso   1.00
H334   H     0.86260   0.96957   0.18095   0.00000  Uiso   1.00
H335   H     0.86076   0.61099   0.32712   0.00000  Uiso   1.00
H336   H     0.86158   0.88914   0.18049   0.00000  Uiso   1.00
H337   H     0.80580   0.61065   0.17287   0.00000  Uiso   1.00
H338   H     0.80536   0.88918   0.31976   0.00000  Uiso   1.00
H339   H     0.80473   0.53020   0.17311   0.00000  Uiso   1.00
H340   H     0.80421   0.96963   0.31928   0.00000  Uiso   1.00
H341   H     0.90881   0.77610   0.04411   0.00000  Uiso   1.00
H342   H     0.80778   0.68366   0.46233   0.00000  Uiso   1.00
H343   H     0.90874   0.77653   0.13265   0.00000  Uiso   1.00
H344   H     0.80747   0.68371   0.37382   0.00000  Uiso   1.00
H345   H     0.75787   0.72346   0.11549   0.00000  Uiso   1.00
H346   H     0.85931   0.81632   0.37840   0.00000  Uiso   1.00
N347   N     0.83333   0.75001   0.12935   0.00000  Uiso   1.00
N348   N     0.83333   0.74999   0.37066   0.00000  Uiso   1.00
O349   O     0.83334   0.68573   0.29072   0.00000  Uiso   1.00
O350   O     0.83333   0.81428   0.20929   0.00000  Uiso   1.00
O351   O     0.83334   0.68573   0.20928   0.00000  Uiso   1.00
O352   O     0.83333   0.81427   0.29072   0.00000  Uiso   1.00
O353   O     0.75828   0.74999   0.28132   0.00000  Uiso   1.00
O354   O     0.90839   0.75001   0.21868   0.00000  Uiso   1.00
O355   O     0.75828   0.75000   0.19989   0.00000  Uiso   1.00
O356   O     0.90839   0.75000   0.30012   0.00000  Uiso   1.00
O357   O     0.74122   0.72460   0.02177   0.00000  Uiso   1.00
H358   H     0.73940   0.73654   0.48842   0.00000  Uiso   1.00
O359   O     0.85671   0.83033   0.46948   0.00000  Uiso   1.00
H360   H     0.84255   0.83110   0.00071   0.00000  Uiso   1.00
C361   C     0.16665   0.16494   0.74998   0.00000  Uiso   1.00
C362   C     0.16671   0.33505   0.75004   0.00000  Uiso   1.00
C363   C     0.20805   0.26500   0.55865   0.00000  Uiso   1.00
C364   C     0.15181   0.21357   0.94479   0.00000  Uiso   1.00
C365   C     0.20827   0.26479   0.60938   0.00000  Uiso   1.00
C366   C     0.15218   0.21342   0.89413   0.00000  Uiso   1.00
C367   C     0.12400   0.23543   0.59966   0.00000  Uiso   1.00
C368   C     0.18078   0.28741   0.89676   0.00000  Uiso   1.00
C369   C     0.12081   0.23679   0.54854   0.00000  Uiso   1.00
C370   C     0.17891   0.28999   0.94721   0.00000  Uiso   1.00
C371   C     0.16407   0.25145   0.52699   0.00000  Uiso   1.00
C372   C     0.16466   0.25203   0.97248   0.00000  Uiso   1.00
C373   C     0.06790   0.24998   0.73755   0.00000  Uiso   1.00
C374   C     0.26544   0.25001   0.76245   0.00000  Uiso   1.00
C375   C     0.01263   0.24996   0.73068   0.00000  Uiso   1.00
C376   C     0.32071   0.25002   0.76931   0.00000  Uiso   1.00
C377   C     0.18216   0.04770   0.79332   0.00000  Uiso   1.00
C378   C     0.18264   0.45237   0.71108   0.00000  Uiso   1.00
C379   C     0.18182   0.09361   0.79334   0.00000  Uiso   1.00
C380   C     0.18233   0.40646   0.71093   0.00000  Uiso   1.00
C381   C     0.16664   0.11671   0.74998   0.00000  Uiso   1.00
C382   C     0.16677   0.38328   0.75011   0.00000  Uiso   1.00
C383   C     0.15144   0.09341   0.70666   0.00000  Uiso   1.00
C384   C     0.15124   0.40649   0.78932   0.00000  Uiso   1.00
C385   C     0.15108   0.04750   0.70677   0.00000  Uiso   1.00
C386   C     0.15085   0.45240   0.78916   0.00000  Uiso   1.00
C387   C     0.16664   0.02427   0.75006   0.00000  Uiso   1.00
C388   C     0.16670   0.47571   0.75010   0.00000  Uiso   1.00
Cu389  Cu    0.16667   0.25000   0.79822   0.00000  Uiso   1.00
Cu390  Cu    0.16667   0.25001   0.70179   0.00000  Uiso   1.00
H391   H     0.32597   0.24990   0.69362   0.00000  Uiso   1.00
H392   H     0.00738   0.25006   0.80636   0.00000  Uiso   1.00
H393   H     0.19519   0.03057   0.82701   0.00000  Uiso   1.00
H394   H     0.19593   0.46957   0.68095   0.00000  Uiso   1.00
H395   H     0.19410   0.11099   0.82712   0.00000  Uiso   1.00
H396   H     0.19491   0.38914   0.68049   0.00000  Uiso   1.00
H397   H     0.13914   0.11065   0.67287   0.00000  Uiso   1.00
H398   H     0.13869   0.38918   0.81976   0.00000  Uiso   1.00
H399   H     0.13806   0.03020   0.67311   0.00000  Uiso   1.00
H400   H     0.13754   0.46963   0.81928   0.00000  Uiso   1.00
H401   H     0.24214   0.27610   0.54411   0.00000  Uiso   1.00
H402   H     0.14111   0.18366   0.96233   0.00000  Uiso   1.00
H403   H     0.24207   0.27653   0.63265   0.00000  Uiso   1.00
H404   H     0.14081   0.18371   0.87382   0.00000  Uiso   1.00
H405   H     0.09120   0.22346   0.61549   0.00000  Uiso   1.00
H406   H     0.19264   0.31632   0.87840   0.00000  Uiso   1.00
N407   N     0.16667   0.25001   0.62935   0.00000  Uiso   1.00
N408   N     0.16667   0.24999   0.87066   0.00000  Uiso   1.00
O409   O     0.16667   0.18573   0.79072   0.00000  Uiso   1.00
O410   O     0.16666   0.31428   0.70929   0.00000  Uiso   1.00
O411   O     0.16667   0.18573   0.70928   0.00000  Uiso   1.00
O412   O     0.16666   0.31427   0.79072   0.00000  Uiso   1.00
O413   O     0.09161   0.24999   0.78132   0.00000  Uiso   1.00
O414   O     0.24172   0.25001   0.71868   0.00000  Uiso   1.00
O415   O     0.09161   0.25000   0.69989   0.00000  Uiso   1.00
O416   O     0.24172   0.25000   0.80012   0.00000  Uiso   1.00
O417   O     0.07455   0.22460   0.52177   0.00000  Uiso   1.00
H418   H     0.07274   0.23654   0.98842   0.00000  Uiso   1.00
O419   O     0.19005   0.33033   0.96948   0.00000  Uiso   1.00
H420   H     0.17589   0.33110   0.50071   0.00000  Uiso   1.00
C421   C     0.49998   0.16494   0.74998   0.00000  Uiso   1.00
C422   C     0.50004   0.33505   0.75004   0.00000  Uiso   1.00
C423   C     0.54138   0.26500   0.55865   0.00000  Uiso   1.00
C424   C     0.48514   0.21357   0.94479   0.00000  Uiso   1.00
C425   C     0.54160   0.26479   0.60938   0.00000  Uiso   1.00
C426   C     0.48552   0.21342   0.89413   0.00000  Uiso   1.00
C427   C     0.45734   0.23543   0.59966   0.00000  Uiso   1.00
C428   C     0.51411   0.28741   0.89676   0.00000  Uiso   1.00
C429   C     0.45415   0.23679   0.54854   0.00000  Uiso   1.00
C430   C     0.51224   0.28999   0.94721   0.00000  Uiso   1.00
C431   C     0.49741   0.25145   0.52699   0.00000  Uiso   1.00
C432   C     0.49799   0.25203   0.97248   0.00000  Uiso   1.00
C433   C     0.40123   0.24998   0.73755   0.00000  Uiso   1.00
C434   C     0.59877   0.25001   0.76245   0.00000  Uiso   1.00
C435   C     0.34596   0.24996   0.73068   0.00000  Uiso   1.00
C436   C     0.65404   0.25002   0.76931   0.00000  Uiso   1.00
C437   C     0.51550   0.04770   0.79332   0.00000  Uiso   1.00
C438   C     0.51597   0.45237   0.71108   0.00000  Uiso   1.00
C439   C     0.51515   0.09361   0.79334   0.00000  Uiso   1.00
C440   C     0.51566   0.40646   0.71093   0.00000  Uiso   1.00
C441   C     0.49998   0.11671   0.74998   0.00000  Uiso   1.00
C442   C     0.50010   0.38328   0.75011   0.00000  Uiso   1.00
C443   C     0.48477   0.09341   0.70666   0.00000  Uiso   1.00
C444   C     0.48457   0.40649   0.78932   0.00000  Uiso   1.00
C445   C     0.48442   0.04750   0.70677   0.00000  Uiso   1.00
C446   C     0.48418   0.45240   0.78916   0.00000  Uiso   1.00
C447   C     0.49997   0.02427   0.75006   0.00000  Uiso   1.00
C448   C     0.50003   0.47571   0.75010   0.00000  Uiso   1.00
Cu449  Cu    0.50000   0.25000   0.79822   0.00000  Uiso   1.00
Cu450  Cu    0.50000   0.25001   0.70179   0.00000  Uiso   1.00
H451   H     0.65931   0.24990   0.69362   0.00000  Uiso   1.00
H452   H     0.34071   0.25006   0.80636   0.00000  Uiso   1.00
H453   H     0.52852   0.03057   0.82701   0.00000  Uiso   1.00
H454   H     0.52927   0.46957   0.68095   0.00000  Uiso   1.00
H455   H     0.52743   0.11099   0.82712   0.00000  Uiso   1.00
H456   H     0.52825   0.38914   0.68049   0.00000  Uiso   1.00
H457   H     0.47247   0.11065   0.67287   0.00000  Uiso   1.00
H458   H     0.47203   0.38918   0.81976   0.00000  Uiso   1.00
H459   H     0.47140   0.03020   0.67311   0.00000  Uiso   1.00
H460   H     0.47087   0.46963   0.81928   0.00000  Uiso   1.00
H461   H     0.57547   0.27610   0.54411   0.00000  Uiso   1.00
H462   H     0.47445   0.18366   0.96233   0.00000  Uiso   1.00
H463   H     0.57540   0.27653   0.63265   0.00000  Uiso   1.00
H464   H     0.47414   0.18371   0.87382   0.00000  Uiso   1.00
H465   H     0.42453   0.22346   0.61549   0.00000  Uiso   1.00
H466   H     0.52598   0.31632   0.87840   0.00000  Uiso   1.00
N467   N     0.50000   0.25001   0.62935   0.00000  Uiso   1.00
N468   N     0.50000   0.24999   0.87066   0.00000  Uiso   1.00
O469   O     0.50000   0.18573   0.79072   0.00000  Uiso   1.00
O470   O     0.50000   0.31428   0.70929   0.00000  Uiso   1.00
O471   O     0.50000   0.18573   0.70928   0.00000  Uiso   1.00
O472   O     0.50000   0.31427   0.79072   0.00000  Uiso   1.00
O473   O     0.42495   0.24999   0.78132   0.00000  Uiso   1.00
O474   O     0.57505   0.25001   0.71868   0.00000  Uiso   1.00
O475   O     0.42495   0.25000   0.69989   0.00000  Uiso   1.00
O476   O     0.57505   0.25000   0.80012   0.00000  Uiso   1.00
O477   O     0.40788   0.22460   0.52177   0.00000  Uiso   1.00
H478   H     0.40607   0.23654   0.98842   0.00000  Uiso   1.00
O479   O     0.52338   0.33033   0.96948   0.00000  Uiso   1.00
H480   H     0.50922   0.33110   0.50071   0.00000  Uiso   1.00
C481   C     0.83332   0.16494   0.74998   0.00000  Uiso   1.00
C482   C     0.83337   0.33505   0.75004   0.00000  Uiso   1.00
C483   C     0.87471   0.26500   0.55865   0.00000  Uiso   1.00
C484   C     0.81848   0.21357   0.94479   0.00000  Uiso   1.00
C485   C     0.87493   0.26479   0.60938   0.00000  Uiso   1.00
C486   C     0.81885   0.21342   0.89413   0.00000  Uiso   1.00
C487   C     0.79067   0.23543   0.59966   0.00000  Uiso   1.00
C488   C     0.84745   0.28741   0.89676   0.00000  Uiso   1.00
C489   C     0.78748   0.23679   0.54854   0.00000  Uiso   1.00
C490   C     0.84557   0.28999   0.94721   0.00000  Uiso   1.00
C491   C     0.83074   0.25145   0.52699   0.00000  Uiso   1.00
C492   C     0.83133   0.25203   0.97248   0.00000  Uiso   1.00
C493   C     0.73456   0.24998   0.73755   0.00000  Uiso   1.00
C494   C     0.93210   0.25001   0.76245   0.00000  Uiso   1.00
C495   C     0.67929   0.24996   0.73068   0.00000  Uiso   1.00
C496   C     0.98738   0.25002   0.76931   0.00000  Uiso   1.00
C497   C     0.84883   0.04770   0.79332   0.00000  Uiso   1.00
C498   C     0.84931   0.45237   0.71108   0.00000  Uiso   1.00
C499   C     0.84848   0.09361   0.79334   0.00000  Uiso   1.00
C500   C     0.84899   0.40646   0.71093   0.00000  Uiso   1.00
C501   C     0.83331   0.11671   0.74998   0.00000  Uiso   1.00
C502   C     0.83343   0.38328   0.75011   0.00000  Uiso   1.00
C503   C     0.81810   0.09341   0.70666   0.00000  Uiso   1.00
C504   C     0.81791   0.40649   0.78932   0.00000  Uiso   1.00
C505   C     0.81775   0.04750   0.70677   0.00000  Uiso   1.00
C506   C     0.81752   0.45240   0.78916   0.00000  Uiso   1.00
C507   C     0.83330   0.02427   0.75006   0.00000  Uiso   1.00
C508   C     0.83337   0.47571   0.75010   0.00000  Uiso   1.00
Cu509  Cu    0.83333   0.25000   0.79822   0.00000  Uiso   1.00
Cu510  Cu    0.83333   0.25001   0.70179   0.00000  Uiso   1.00
H511   H     0.99264   0.24990   0.69362   0.00000  Uiso   1.00
H512   H     0.67405   0.25006   0.80636   0.00000  Uiso   1.00
H513   H     0.86185   0.03057   0.82701   0.00000  Uiso   1.00
H514   H     0.86260   0.46957   0.68095   0.00000  Uiso   1.00
H515   H     0.86076   0.11099   0.82712   0.00000  Uiso   1.00
H516   H     0.86158   0.38914   0.68049   0.00000  Uiso   1.00
H517   H     0.80580   0.11065   0.67287   0.00000  Uiso   1.00
H518   H     0.80536   0.38918   0.81976   0.00000  Uiso   1.00
H519   H     0.80473   0.03020   0.67311   0.00000  Uiso   1.00
H520   H     0.80421   0.46963   0.81928   0.00000  Uiso   1.00
H521   H     0.90881   0.27610   0.54411   0.00000  Uiso   1.00
H522   H     0.80778   0.18366   0.96233   0.00000  Uiso   1.00
H523   H     0.90874   0.27653   0.63265   0.00000  Uiso   1.00
H524   H     0.80747   0.18371   0.87382   0.00000  Uiso   1.00
H525   H     0.75787   0.22346   0.61549   0.00000  Uiso   1.00
H526   H     0.85931   0.31632   0.87840   0.00000  Uiso   1.00
N527   N     0.83333   0.25001   0.62935   0.00000  Uiso   1.00
N528   N     0.83333   0.24999   0.87066   0.00000  Uiso   1.00
O529   O     0.83334   0.18573   0.79072   0.00000  Uiso   1.00
O530   O     0.83333   0.31428   0.70929   0.00000  Uiso   1.00
O531   O     0.83334   0.18573   0.70928   0.00000  Uiso   1.00
O532   O     0.83333   0.31427   0.79072   0.00000  Uiso   1.00
O533   O     0.75828   0.24999   0.78132   0.00000  Uiso   1.00
O534   O     0.90839   0.25001   0.71868   0.00000  Uiso   1.00
O535   O     0.75828   0.25000   0.69989   0.00000  Uiso   1.00
O536   O     0.90839   0.25000   0.80012   0.00000  Uiso   1.00
O537   O     0.74122   0.22460   0.52177   0.00000  Uiso   1.00
H538   H     0.73940   0.23654   0.98842   0.00000  Uiso   1.00
O539   O     0.85671   0.33033   0.96948   0.00000  Uiso   1.00
H540   H     0.84255   0.33110   0.50071   0.00000  Uiso   1.00
C541   C     0.16665   0.66494   0.74998   0.00000  Uiso   1.00
C542   C     0.16671   0.83505   0.75004   0.00000  Uiso   1.00
C543   C     0.20805   0.76500   0.55865   0.00000  Uiso   1.00
C544   C     0.15181   0.71357   0.94479   0.00000  Uiso   1.00
C545   C     0.20827   0.76479   0.60938   0.00000  Uiso   1.00
C546   C     0.15218   0.71342   0.89413   0.00000  Uiso   1.00
C547   C     0.12400   0.73543   0.59966   0.00000  Uiso   1.00
C548   C     0.18078   0.78741   0.89676   0.00000  Uiso   1.00
C549   C     0.12081   0.73679   0.54854   0.00000  Uiso   1.00
C550   C     0.17891   0.78999   0.94721   0.00000  Uiso   1.00
C551   C     0.16407   0.75145   0.52699   0.00000  Uiso   1.00
C552   C     0.16466   0.75203   0.97248   0.00000  Uiso   1.00
C553   C     0.06790   0.74998   0.73755   0.00000  Uiso   1.00
C554   C     0.26544   0.75001   0.76245   0.00000  Uiso   1.00
C555   C     0.01263   0.74996   0.73068   0.00000  Uiso   1.00
C556   C     0.32071   0.75002   0.76931   0.00000  Uiso   1.00
C557   C     0.18216   0.54770   0.79332   0.00000  Uiso   1.00
C558   C     0.18264   0.95237   0.71108   0.00000  Uiso   1.00
C559   C     0.18182   0.59361   0.79334   0.00000  Uiso   1.00
C560   C     0.18233   0.90646   0.71093   0.00000  Uiso   1.00
C561   C     0.16664   0.61671   0.74998   0.00000  Uiso   1.00
C562   C     0.16677   0.88328   0.75011   0.00000  Uiso   1.00
C563   C     0.15144   0.59341   0.70666   0.00000  Uiso   1.00
C564   C     0.15124   0.90649   0.78932   0.00000  Uiso   1.00
C565   C     0.15108   0.54750   0.70677   0.00000  Uiso   1.00
C566   C     0.15085   0.95240   0.78916   0.00000  Uiso   1.00
C567   C     0.16664   0.52427   0.75006   0.00000  Uiso   1.00
C568   C     0.16670   0.97571   0.75010   0.00000  Uiso   1.00
Cu569  Cu    0.16667   0.75000   0.79822   0.00000  Uiso   1.00
Cu570  Cu    0.16667   0.75001   0.70179   0.00000  Uiso   1.00
H571   H     0.32597   0.74990   0.69362   0.00000  Uiso   1.00
H572   H     0.00738   0.75006   0.80636   0.00000  Uiso   1.00
H573   H     0.19519   0.53057   0.82701   0.00000  Uiso   1.00
H574   H     0.19593   0.96957   0.68095   0.00000  Uiso   1.00
H575   H     0.19410   0.61099   0.82712   0.00000  Uiso   1.00
H576   H     0.19491   0.88914   0.68049   0.00000  Uiso   1.00
H577   H     0.13914   0.61065   0.67287   0.00000  Uiso   1.00
H578   H     0.13869   0.88918   0.81976   0.00000  Uiso   1.00
H579   H     0.13806   0.53020   0.67311   0.00000  Uiso   1.00
H580   H     0.13754   0.96963   0.81928   0.00000  Uiso   1.00
H581   H     0.24214   0.77610   0.54411   0.00000  Uiso   1.00
H582   H     0.14111   0.68366   0.96233   0.00000  Uiso   1.00
H583   H     0.24207   0.77653   0.63265   0.00000  Uiso   1.00
H584   H     0.14081   0.68371   0.87382   0.00000  Uiso   1.00
H585   H     0.09120   0.72346   0.61549   0.00000  Uiso   1.00
H586   H     0.19264   0.81632   0.87840   0.00000  Uiso   1.00
N587   N     0.16667   0.75001   0.62935   0.00000  Uiso   1.00
N588   N     0.16667   0.74999   0.87066   0.00000  Uiso   1.00
O589   O     0.16667   0.68573   0.79072   0.00000  Uiso   1.00
O590   O     0.16666   0.81428   0.70929   0.00000  Uiso   1.00
O591   O     0.16667   0.68573   0.70928   0.00000  Uiso   1.00
O592   O     0.16666   0.81427   0.79072   0.00000  Uiso   1.00
O593   O     0.09161   0.74999   0.78132   0.00000  Uiso   1.00
O594   O     0.24172   0.75001   0.71868   0.00000  Uiso   1.00
O595   O     0.09161   0.75000   0.69989   0.00000  Uiso   1.00
O596   O     0.24172   0.75000   0.80012   0.00000  Uiso   1.00
O597   O     0.07455   0.72460   0.52177   0.00000  Uiso   1.00
H598   H     0.07274   0.73654   0.98842   0.00000  Uiso   1.00
O599   O     0.19005   0.83033   0.96948   0.00000  Uiso   1.00
H600   H     0.17589   0.83110   0.50071   0.00000  Uiso   1.00
C601   C     0.49998   0.66494   0.74998   0.00000  Uiso   1.00
C602   C     0.50004   0.83505   0.75004   0.00000  Uiso   1.00
C603   C     0.54138   0.76500   0.55865   0.00000  Uiso   1.00
C604   C     0.48514   0.71357   0.94479   0.00000  Uiso   1.00
C605   C     0.54160   0.76479   0.60938   0.00000  Uiso   1.00
C606   C     0.48552   0.71342   0.89413   0.00000  Uiso   1.00
C607   C     0.45734   0.73543   0.59966   0.00000  Uiso   1.00
C608   C     0.51411   0.78741   0.89676   0.00000  Uiso   1.00
C609   C     0.45415   0.73679   0.54854   0.00000  Uiso   1.00
C610   C     0.51224   0.78999   0.94721   0.00000  Uiso   1.00
C611   C     0.49741   0.75145   0.52699   0.00000  Uiso   1.00
C612   C     0.49799   0.75203   0.97248   0.00000  Uiso   1.00
C613   C     0.40123   0.74998   0.73755   0.00000  Uiso   1.00
C614   C     0.59877   0.75001   0.76245   0.00000  Uiso   1.00
C615   C     0.34596   0.74996   0.73068   0.00000  Uiso   1.00
C616   C     0.65404   0.75002   0.76931   0.00000  Uiso   1.00
C617   C     0.51550   0.54770   0.79332   0.00000  Uiso   1.00
C618   C     0.51597   0.95237   0.71108   0.00000  Uiso   1.00
C619   C     0.51515   0.59361   0.79334   0.00000  Uiso   1.00
C620   C     0.51566   0.90646   0.71093   0.00000  Uiso   1.00
C621   C     0.49998   0.61671   0.74998   0.00000  Uiso   1.00
C622   C     0.50010   0.88328   0.75011   0.00000  Uiso   1.00
C623   C     0.48477   0.59341   0.70666   0.00000  Uiso   1.00
C624   C     0.48457   0.90649   0.78932   0.00000  Uiso   1.00
C625   C     0.48442   0.54750   0.70677   0.00000  Uiso   1.00
C626   C     0.48418   0.95240   0.78916   0.00000  Uiso   1.00
C627   C     0.49997   0.52427   0.75006   0.00000  Uiso   1.00
C628   C     0.50003   0.97571   0.75010   0.00000  Uiso   1.00
Cu629  Cu    0.50000   0.75000   0.79822   0.00000  Uiso   1.00
Cu630  Cu    0.50000   0.75001   0.70179   0.00000  Uiso   1.00
H631   H     0.65931   0.74990   0.69362   0.00000  Uiso   1.00
H632   H     0.34071   0.75006   0.80636   0.00000  Uiso   1.00
H633   H     0.52852   0.53057   0.82701   0.00000  Uiso   1.00
H634   H     0.52927   0.96957   0.68095   0.00000  Uiso   1.00
H635   H     0.52743   0.61099   0.82712   0.00000  Uiso   1.00
H636   H     0.52825   0.88914   0.68049   0.00000  Uiso   1.00
H637   H     0.47247   0.61065   0.67287   0.00000  Uiso   1.00
H638   H     0.47203   0.88918   0.81976   0.00000  Uiso   1.00
H639   H     0.47140   0.53020   0.67311   0.00000  Uiso   1.00
H640   H     0.47087   0.96963   0.81928   0.00000  Uiso   1.00
H641   H     0.57547   0.77610   0.54411   0.00000  Uiso   1.00
H642   H     0.47445   0.68366   0.96233   0.00000  Uiso   1.00
H643   H     0.57540   0.77653   0.63265   0.00000  Uiso   1.00
H644   H     0.47414   0.68371   0.87382   0.00000  Uiso   1.00
H645   H     0.42453   0.72346   0.61549   0.00000  Uiso   1.00
H646   H     0.52598   0.81632   0.87840   0.00000  Uiso   1.00
N647   N     0.50000   0.75001   0.62935   0.00000  Uiso   1.00
N648   N     0.50000   0.74999   0.87066   0.00000  Uiso   1.00
O649   O     0.50000   0.68573   0.79072   0.00000  Uiso   1.00
O650   O     0.50000   0.81428   0.70929   0.00000  Uiso   1.00
O651   O     0.50000   0.68573   0.70928   0.00000  Uiso   1.00
O652   O     0.50000   0.81427   0.79072   0.00000  Uiso   1.00
O653   O     0.42495   0.74999   0.78132   0.00000  Uiso   1.00
O654   O     0.57505   0.75001   0.71868   0.00000  Uiso   1.00
O655   O     0.42495   0.75000   0.69989   0.00000  Uiso   1.00
O656   O     0.57505   0.75000   0.80012   0.00000  Uiso   1.00
O657   O     0.40788   0.72460   0.52177   0.00000  Uiso   1.00
H658   H     0.40607   0.73654   0.98842   0.00000  Uiso   1.00
O659   O     0.52338   0.83033   0.96948   0.00000  Uiso   1.00
H660   H     0.50922   0.83110   0.50071   0.00000  Uiso   1.00
C661   C     0.83332   0.66494   0.74998   0.00000  Uiso   1.00
C662   C     0.83337   0.83505   0.75004   0.00000  Uiso   1.00
C663   C     0.87471   0.76500   0.55865   0.00000  Uiso   1.00
C664   C     0.81848   0.71357   0.94479   0.00000  Uiso   1.00
C665   C     0.87493   0.76479   0.60938   0.00000  Uiso   1.00
C666   C     0.81885   0.71342   0.89413   0.00000  Uiso   1.00
C667   C     0.79067   0.73543   0.59966   0.00000  Uiso   1.00
C668   C     0.84745   0.78741   0.89676   0.00000  Uiso   1.00
C669   C     0.78748   0.73679   0.54854   0.00000  Uiso   1.00
C670   C     0.84557   0.78999   0.94721   0.00000  Uiso   1.00
C671   C     0.83074   0.75145   0.52699   0.00000  Uiso   1.00
C672   C     0.83133   0.75203   0.97248   0.00000  Uiso   1.00
C673   C     0.73456   0.74998   0.73755   0.00000  Uiso   1.00
C674   C     0.93210   0.75001   0.76245   0.00000  Uiso   1.00
C675   C     0.67929   0.74996   0.73068   0.00000  Uiso   1.00
C676   C     0.98738   0.75002   0.76931   0.00000  Uiso   1.00
C677   C     0.84883   0.54770   0.79332   0.00000  Uiso   1.00
C678   C     0.84931   0.95237   0.71108   0.00000  Uiso   1.00
C679   C     0.84848   0.59361   0.79334   0.00000  Uiso   1.00
C680   C     0.84899   0.90646   0.71093   0.00000  Uiso   1.00
C681   C     0.83331   0.61671   0.74998   0.00000  Uiso   1.00
C682   C     0.83343   0.88328   0.75011   0.00000  Uiso   1.00
C683   C     0.81810   0.59341   0.70666   0.00000  Uiso   1.00
C684   C     0.81791   0.90649   0.78932   0.00000  Uiso   1.00
C685   C     0.81775   0.54750   0.70677   0.00000  Uiso   1.00
C686   C     0.81752   0.95240   0.78916   0.00000  Uiso   1.00
C687   C     0.83330   0.52427   0.75006   0.00000  Uiso   1.00
C688   C     0.83337   0.97571   0.75010   0.00000  Uiso   1.00
Cu689  Cu    0.83333   0.75000   0.79822   0.00000  Uiso   1.00
Cu690  Cu    0.83333   0.75001   0.70179   0.00000  Uiso   1.00
H691   H     0.99264   0.74990   0.69362   0.00000  Uiso   1.00
H692   H     0.67405   0.75006   0.80636   0.00000  Uiso   1.00
H693   H     0.86185   0.53057   0.82701   0.00000  Uiso   1.00
H694   H     0.86260   0.96957   0.68095   0.00000  Uiso   1.00
H695   H     0.86076   0.61099   0.82712   0.00000  Uiso   1.00
H696   H     0.86158   0.88914   0.68049   0.00000  Uiso   1.00
H697   H     0.80580   0.61065   0.67287   0.00000  Uiso   1.00
H698   H     0.80536   0.88918   0.81976   0.00000  Uiso   1.00
H699   H     0.80473   0.53020   0.67311   0.00000  Uiso   1.00
H700   H     0.80421   0.96963   0.81928   0.00000  Uiso   1.00
H701   H     0.90881   0.77610   0.54411   0.00000  Uiso   1.00
H702   H     0.80778   0.68366   0.96233   0.00000  Uiso   1.00
H703   H     0.90874   0.77653   0.63265   0.00000  Uiso   1.00
H704   H     0.80747   0.68371   0.87382   0.00000  Uiso   1.00
H705   H     0.75787   0.72346   0.61549   0.00000  Uiso   1.00
H706   H     0.85931   0.81632   0.87840   0.00000  Uiso   1.00
N707   N     0.83333   0.75001   0.62935   0.00000  Uiso   1.00
N708   N     0.83333   0.74999   0.87066   0.00000  Uiso   1.00
O709   O     0.83334   0.68573   0.79072   0.00000  Uiso   1.00
O710   O     0.83333   0.81428   0.70929   0.00000  Uiso   1.00
O711   O     0.83334   0.68573   0.70928   0.00000  Uiso   1.00
O712   O     0.83333   0.81427   0.79072   0.00000  Uiso   1.00
O713   O     0.75828   0.74999   0.78132   0.00000  Uiso   1.00
O714   O     0.90839   0.75001   0.71868   0.00000  Uiso   1.00
O715   O     0.75828   0.75000   0.69989   0.00000  Uiso   1.00
O716   O     0.90839   0.75000   0.80012   0.00000  Uiso   1.00
O717   O     0.74122   0.72460   0.52177   0.00000  Uiso   1.00
H718   H     0.73940   0.73654   0.98842   0.00000  Uiso   1.00
O719   O     0.85671   0.83033   0.96948   0.00000  Uiso   1.00
H720   H     0.84255   0.83110   0.50071   0.00000  Uiso   1.00
loop_
_geom_bond_atom_site_label_1
_geom_bond_atom_site_label_2
_geom_bond_distance
_geom_bond_site_symmetry_2
_ccdc_geom_bond_type
C1     C21     1.460   .     S
C1     O51     1.293   .     A
C1     O49     1.293   .     A
C2     C22     1.460   .     S
C2     O52     1.293   .     A
C2     O50     1.293   .     A
C3     C5      1.407   .     A
C3     C11     1.409   .     A
C3     H41     1.083   .     S
C4     C12     1.408   .     A
C4     H42     1.083   .     S
C4     C6      1.407   .     A
C5     H43     1.080   .     S
C5     N47     1.364   .     A
C6     N48     1.365   .     A
C6     H44     1.080   .     S
C7     N47     1.366   .     A
C7     H45     1.080   .     S
C7     C9      1.410   .     A
C8     N48     1.366   .     A
C8     C10     1.410   .     A
C8     H46     1.080   .     S
C9     C11     1.424   .     A
C9     O57     1.380   .     S
C10    O59     1.380   .     S
C10    C12     1.423   .     A
C11    C372    1.515   1_554 S
C12    C371    1.515   .     S
C13    O53     1.285   .     A
C13    C15     1.434   .     S
C13    O55     1.288   .     A
C14    O56     1.288   .     A
C14    O54     1.285   .     A
C14    C16     1.434   .     S
C15    C136    1.335   1_455 S
C15    H151    1.087   1_455 S
C16    C75     1.335   .     S
C16    H92     1.087   .     S
C17    H33     1.083   .     S
C17    C27     1.404   .     A
C17    C19     1.390   .     A
C18    C28     1.404   .     A
C18    H34     1.083   .     S
C18    C20     1.390   .     A
C19    C21     1.402   .     A
C19    H35     1.083   .     S
C20    H36     1.083   .     S
C20    C22     1.402   .     A
C21    C23     1.402   .     A
C22    C24     1.402   .     A
C23    C25     1.390   .     A
C23    H37     1.083   .     S
C24    C26     1.390   .     A
C24    H38     1.083   .     S
C25    H39     1.083   .     S
C25    C27     1.404   .     A
C26    H40     1.083   .     S
C26    C28     1.404   .     A
C27    C208    1.470   1_545 S
C28    C207    1.470   .     S
Cu29   Cu30    2.675   .     S
Cu29   O56     1.960   .     S
Cu29   O49     1.957   .     S
Cu29   O53     1.957   .     S
Cu29   N48     2.010   .     S
Cu29   O52     1.957   .     S
Cu30   O51     1.957   .     S
Cu30   O55     1.960   .     S
Cu30   O50     1.957   .     S
Cu30   O54     1.957   .     S
Cu30   N47     2.010   .     S
H31    C75     1.087   .     S
H32    C136    1.087   1_455 S
O57    H418    0.989   1_554 S
H58    O417    0.989   .     S
O59    H420    0.989   .     S
H60    O419    0.989   1_554 S
C61    C81     1.460   .     S
C61    O111    1.293   .     A
C61    O109    1.293   .     A
C62    C82     1.460   .     S
C62    O112    1.293   .     A
C62    O110    1.293   .     A
C63    C65     1.407   .     A
C63    C71     1.409   .     A
C63    H101    1.083   .     S
C64    C72     1.408   .     A
C64    H102    1.083   .     S
C64    C66     1.407   .     A
C65    H103    1.080   .     S
C65    N107    1.364   .     A
C66    N108    1.365   .     A
C66    H104    1.080   .     S
C67    N107    1.366   .     A
C67    H105    1.080   .     S
C67    C69     1.410   .     A
C68    N108    1.366   .     A
C68    C70     1.410   .     A
C68    H106    1.080   .     S
C69    C71     1.424   .     A
C69    O117    1.380   .     S
C70    O119    1.380   .     S
C70    C72     1.423   .     A
C71    C432    1.515   1_554 S
C72    C431    1.515   .     S
C73    O113    1.285   .     A
C73    C75     1.434   .     S
C73    O115    1.288   .     A
C74    O116    1.288   .     A
C74    O114    1.285   .     A
C74    C76     1.434   .     S
C76    C135    1.335   .     S
C76    H152    1.087   .     S
C77    H93     1.083   .     S
C77    C87     1.404   .     A
C77    C79     1.390   .     A
C78    C88     1.404   .     A
C78    H94     1.083   .     S
C78    C80     1.390   .     A
C79    C81     1.402   .     A
C79    H95     1.083   .     S
C80    H96     1.083   .     S
C80    C82     1.402   .     A
C81    C83     1.402   .     A
C82    C84     1.402   .     A
C83    C85     1.390   .     A
C83    H97     1.083   .     S
C84    C86     1.390   .     A
C84    H98     1.083   .     S
C85    H99     1.083   .     S
C85    C87     1.404   .     A
C86    H100    1.083   .     S
C86    C88     1.404   .     A
C87    C268    1.470   1_545 S
C88    C267    1.470   .     S
Cu89   Cu90    2.675   .     S
Cu89   O116    1.960   .     S
Cu89   O109    1.957   .     S
Cu89   O113    1.957   .     S
Cu89   N108    2.010   .     S
Cu89   O112    1.957   .     S
Cu90   O111    1.957   .     S
Cu90   O115    1.960   .     S
Cu90   O110    1.957   .     S
Cu90   O114    1.957   .     S
Cu90   N107    2.010   .     S
H91    C135    1.087   .     S
O117   H478    0.989   1_554 S
H118   O477    0.989   .     S
O119   H480    0.989   .     S
H120   O479    0.989   1_554 S
C121   C141    1.460   .     S
C121   O171    1.293   .     A
C121   O169    1.293   .     A
C122   C142    1.460   .     S
C122   O172    1.293   .     A
C122   O170    1.293   .     A
C123   C125    1.407   .     A
C123   C131    1.409   .     A
C123   H161    1.083   .     S
C124   C132    1.408   .     A
C124   H162    1.083   .     S
C124   C126    1.407   .     A
C125   H163    1.080   .     S
C125   N167    1.364   .     A
C126   N168    1.365   .     A
C126   H164    1.080   .     S
C127   N167    1.366   .     A
C127   H165    1.080   .     S
C127   C129    1.410   .     A
C128   N168    1.366   .     A
C128   C130    1.410   .     A
C128   H166    1.080   .     S
C129   C131    1.424   .     A
C129   O177    1.380   .     S
C130   O179    1.380   .     S
C130   C132    1.423   .     A
C131   C492    1.515   1_554 S
C132   C491    1.515   .     S
C133   O173    1.285   .     A
C133   C135    1.434   .     S
C133   O175    1.288   .     A
C134   O176    1.288   .     A
C134   O174    1.285   .     A
C134   C136    1.434   .     S
C136   C15     1.335   1_655 S
C136   H32     1.087   1_655 S
C137   H153    1.083   .     S
C137   C147    1.404   .     A
C137   C139    1.390   .     A
C138   C148    1.404   .     A
C138   H154    1.083   .     S
C138   C140    1.390   .     A
C139   C141    1.402   .     A
C139   H155    1.083   .     S
C140   H156    1.083   .     S
C140   C142    1.402   .     A
C141   C143    1.402   .     A
C142   C144    1.402   .     A
C143   C145    1.390   .     A
C143   H157    1.083   .     S
C144   C146    1.390   .     A
C144   H158    1.083   .     S
C145   H159    1.083   .     S
C145   C147    1.404   .     A
C146   H160    1.083   .     S
C146   C148    1.404   .     A
C147   C328    1.470   1_545 S
C148   C327    1.470   .     S
Cu149  Cu150   2.675   .     S
Cu149  O176    1.960   .     S
Cu149  O169    1.957   .     S
Cu149  O173    1.957   .     S
Cu149  N168    2.010   .     S
Cu149  O172    1.957   .     S
Cu150  O171    1.957   .     S
Cu150  O175    1.960   .     S
Cu150  O170    1.957   .     S
Cu150  O174    1.957   .     S
Cu150  N167    2.010   .     S
H151   C15     1.087   1_655 S
O177   H538    0.989   1_554 S
H178   O537    0.989   .     S
O179   H540    0.989   .     S
H180   O539    0.989   1_554 S
C181   C201    1.460   .     S
C181   O231    1.293   .     A
C181   O229    1.293   .     A
C182   C202    1.460   .     S
C182   O232    1.293   .     A
C182   O230    1.293   .     A
C183   C185    1.407   .     A
C183   C191    1.409   .     A
C183   H221    1.083   .     S
C184   C192    1.408   .     A
C184   H222    1.083   .     S
C184   C186    1.407   .     A
C185   H223    1.080   .     S
C185   N227    1.364   .     A
C186   N228    1.365   .     A
C186   H224    1.080   .     S
C187   N227    1.366   .     A
C187   H225    1.080   .     S
C187   C189    1.410   .     A
C188   N228    1.366   .     A
C188   C190    1.410   .     A
C188   H226    1.080   .     S
C189   C191    1.424   .     A
C189   O237    1.380   .     S
C190   O239    1.380   .     S
C190   C192    1.423   .     A
C191   C552    1.515   1_554 S
C192   C551    1.515   .     S
C193   O233    1.285   .     A
C193   C195    1.434   .     S
C193   O235    1.288   .     A
C194   O236    1.288   .     A
C194   O234    1.285   .     A
C194   C196    1.434   .     S
C195   C316    1.335   1_455 S
C195   H331    1.087   1_455 S
C196   C255    1.335   .     S
C196   H272    1.087   .     S
C197   H213    1.083   .     S
C197   C207    1.404   .     A
C197   C199    1.390   .     A
C198   C208    1.404   .     A
C198   H214    1.083   .     S
C198   C200    1.390   .     A
C199   C201    1.402   .     A
C199   H215    1.083   .     S
C200   H216    1.083   .     S
C200   C202    1.402   .     A
C201   C203    1.402   .     A
C202   C204    1.402   .     A
C203   C205    1.390   .     A
C203   H217    1.083   .     S
C204   C206    1.390   .     A
C204   H218    1.083   .     S
C205   H219    1.083   .     S
C205   C207    1.404   .     A
C206   H220    1.083   .     S
C206   C208    1.404   .     A
C208   C27     1.470   1_565 S
Cu209  Cu210   2.675   .     S
Cu209  O236    1.960   .     S
Cu209  O229    1.957   .     S
Cu209  O233    1.957   .     S
Cu209  N228    2.010   .     S
Cu209  O232    1.957   .     S
Cu210  O231    1.957   .     S
Cu210  O235    1.960   .     S
Cu210  O230    1.957   .     S
Cu210  O234    1.957   .     S
Cu210  N227    2.010   .     S
H211   C255    1.087   .     S
H212   C316    1.087   1_455 S
O237   H598    0.989   1_554 S
H238   O597    0.989   .     S
O239   H600    0.989   .     S
H240   O599    0.989   1_554 S
C241   C261    1.460   .     S
C241   O291    1.293   .     A
C241   O289    1.293   .     A
C242   C262    1.460   .     S
C242   O292    1.293   .     A
C242   O290    1.293   .     A
C243   C245    1.407   .     A
C243   C251    1.409   .     A
C243   H281    1.083   .     S
C244   C252    1.408   .     A
C244   H282    1.083   .     S
C244   C246    1.407   .     A
C245   H283    1.080   .     S
C245   N287    1.364   .     A
C246   N288    1.365   .     A
C246   H284    1.080   .     S
C247   N287    1.366   .     A
C247   H285    1.080   .     S
C247   C249    1.410   .     A
C248   N288    1.366   .     A
C248   C250    1.410   .     A
C248   H286    1.080   .     S
C249   C251    1.424   .     A
C249   O297    1.380   .     S
C250   O299    1.380   .     S
C250   C252    1.423   .     A
C251   C612    1.515   1_554 S
C252   C611    1.515   .     S
C253   O293    1.285   .     A
C253   C255    1.434   .     S
C253   O295    1.288   .     A
C254   O296    1.288   .     A
C254   O294    1.285   .     A
C254   C256    1.434   .     S
C256   C315    1.335   .     S
C256   H332    1.087   .     S
C257   H273    1.083   .     S
C257   C267    1.404   .     A
C257   C259    1.390   .     A
C258   C268    1.404   .     A
C258   H274    1.083   .     S
C258   C260    1.390   .     A
C259   C261    1.402   .     A
C259   H275    1.083   .     S
C260   H276    1.083   .     S
C260   C262    1.402   .     A
C261   C263    1.402   .     A
C262   C264    1.402   .     A
C263   C265    1.390   .     A
C263   H277    1.083   .     S
C264   C266    1.390   .     A
C264   H278    1.083   .     S
C265   H279    1.083   .     S
C265   C267    1.404   .     A
C266   H280    1.083   .     S
C266   C268    1.404   .     A
C268   C87     1.470   1_565 S
Cu269  Cu270   2.675   .     S
Cu269  O296    1.960   .     S
Cu269  O289    1.957   .     S
Cu269  O293    1.957   .     S
Cu269  N288    2.010   .     S
Cu269  O292    1.957   .     S
Cu270  O291    1.957   .     S
Cu270  O295    1.960   .     S
Cu270  O290    1.957   .     S
Cu270  O294    1.957   .     S
Cu270  N287    2.010   .     S
H271   C315    1.087   .     S
O297   H658    0.989   1_554 S
H298   O657    0.989   .     S
O299   H660    0.989   .     S
H300   O659    0.989   1_554 S
C301   C321    1.460   .     S
C301   O351    1.293   .     A
C301   O349    1.293   .     A
C302   C322    1.460   .     S
C302   O352    1.293   .     A
C302   O350    1.293   .     A
C303   C305    1.407   .     A
C303   C311    1.409   .     A
C303   H341    1.083   .     S
C304   C312    1.408   .     A
C304   H342    1.083   .     S
C304   C306    1.407   .     A
C305   H343    1.080   .     S
C305   N347    1.364   .     A
C306   N348    1.365   .     A
C306   H344    1.080   .     S
C307   N347    1.366   .     A
C307   H345    1.080   .     S
C307   C309    1.410   .     A
C308   N348    1.366   .     A
C308   C310    1.410   .     A
C308   H346    1.080   .     S
C309   C311    1.424   .     A
C309   O357    1.380   .     S
C310   O359    1.380   .     S
C310   C312    1.423   .     A
C311   C672    1.515   1_554 S
C312   C671    1.515   .     S
C313   O353    1.285   .     A
C313   C315    1.434   .     S
C313   O355    1.288   .     A
C314   O356    1.288   .     A
C314   O354    1.285   .     A
C314   C316    1.434   .     S
C316   C195    1.335   1_655 S
C316   H212    1.087   1_655 S
C317   H333    1.083   .     S
C317   C327    1.404   .     A
C317   C319    1.390   .     A
C318   C328    1.404   .     A
C318   H334    1.083   .     S
C318   C320    1.390   .     A
C319   C321    1.402   .     A
C319   H335    1.083   .     S
C320   H336    1.083   .     S
C320   C322    1.402   .     A
C321   C323    1.402   .     A
C322   C324    1.402   .     A
C323   C325    1.390   .     A
C323   H337    1.083   .     S
C324   C326    1.390   .     A
C324   H338    1.083   .     S
C325   H339    1.083   .     S
C325   C327    1.404   .     A
C326   H340    1.083   .     S
C326   C328    1.404   .     A
C328   C147    1.470   1_565 S
Cu329  Cu330   2.675   .     S
Cu329  O356    1.960   .     S
Cu329  O349    1.957   .     S
Cu329  O353    1.957   .     S
Cu329  N348    2.010   .     S
Cu329  O352    1.957   .     S
Cu330  O351    1.957   .     S
Cu330  O355    1.960   .     S
Cu330  O350    1.957   .     S
Cu330  O354    1.957   .     S
Cu330  N347    2.010   .     S
H331   C195    1.087   1_655 S
O357   H718    0.989   1_554 S
H358   O717    0.989   .     S
O359   H720    0.989   .     S
H360   O719    0.989   1_554 S
C361   C381    1.460   .     S
C361   O411    1.293   .     A
C361   O409    1.293   .     A
C362   C382    1.460   .     S
C362   O412    1.293   .     A
C362   O410    1.293   .     A
C363   C365    1.407   .     A
C363   C371    1.409   .     A
C363   H401    1.083   .     S
C364   C372    1.408   .     A
C364   H402    1.083   .     S
C364   C366    1.407   .     A
C365   H403    1.080   .     S
C365   N407    1.364   .     A
C366   N408    1.365   .     A
C366   H404    1.080   .     S
C367   N407    1.366   .     A
C367   H405    1.080   .     S
C367   C369    1.410   .     A
C368   N408    1.366   .     A
C368   C370    1.410   .     A
C368   H406    1.080   .     S
C369   C371    1.424   .     A
C369   O417    1.380   .     S
C370   O419    1.380   .     S
C370   C372    1.423   .     A
C372   C11     1.515   1_556 S
C373   O413    1.285   .     A
C373   C375    1.434   .     S
C373   O415    1.288   .     A
C374   O416    1.288   .     A
C374   O414    1.285   .     A
C374   C376    1.434   .     S
C375   C496    1.335   1_455 S
C375   H511    1.087   1_455 S
C376   C435    1.335   .     S
C376   H452    1.087   .     S
C377   H393    1.083   .     S
C377   C387    1.404   .     A
C377   C379    1.390   .     A
C378   C388    1.404   .     A
C378   H394    1.083   .     S
C378   C380    1.390   .     A
C379   C381    1.402   .     A
C379   H395    1.083   .     S
C380   H396    1.083   .     S
C380   C382    1.402   .     A
C381   C383    1.402   .     A
C382   C384    1.402   .     A
C383   C385    1.390   .     A
C383   H397    1.083   .     S
C384   C386    1.390   .     A
C384   H398    1.083   .     S
C385   H399    1.083   .     S
C385   C387    1.404   .     A
C386   H400    1.083   .     S
C386   C388    1.404   .     A
C387   C568    1.470   1_545 S
C388   C567    1.470   .     S
Cu389  Cu390   2.675   .     S
Cu389  O416    1.960   .     S
Cu389  O409    1.957   .     S
Cu389  O413    1.957   .     S
Cu389  N408    2.010   .     S
Cu389  O412    1.957   .     S
Cu390  O411    1.957   .     S
Cu390  O415    1.960   .     S
Cu390  O410    1.957   .     S
Cu390  O414    1.957   .     S
Cu390  N407    2.010   .     S
H391   C435    1.087   .     S
H392   C496    1.087   1_455 S
H418   O57     0.989   1_556 S
O419   H60     0.989   1_556 S
C421   C441    1.460   .     S
C421   O471    1.293   .     A
C421   O469    1.293   .     A
C422   C442    1.460   .     S
C422   O472    1.293   .     A
C422   O470    1.293   .     A
C423   C425    1.407   .     A
C423   C431    1.409   .     A
C423   H461    1.083   .     S
C424   C432    1.408   .     A
C424   H462    1.083   .     S
C424   C426    1.407   .     A
C425   H463    1.080   .     S
C425   N467    1.364   .     A
C426   N468    1.365   .     A
C426   H464    1.080   .     S
C427   N467    1.366   .     A
C427   H465    1.080   .     S
C427   C429    1.410   .     A
C428   N468    1.366   .     A
C428   C430    1.410   .     A
C428   H466    1.080   .     S
C429   C431    1.424   .     A
C429   O477    1.380   .     S
C430   O479    1.380   .     S
C430   C432    1.423   .     A
C432   C71     1.515   1_556 S
C433   O473    1.285   .     A
C433   C435    1.434   .     S
C433   O475    1.288   .     A
C434   O476    1.288   .     A
C434   O474    1.285   .     A
C434   C436    1.434   .     S
C436   C495    1.335   .     S
C436   H512    1.087   .     S
C437   H453    1.083   .     S
C437   C447    1.404   .     A
C437   C439    1.390   .     A
C438   C448    1.404   .     A
C438   H454    1.083   .     S
C438   C440    1.390   .     A
C439   C441    1.402   .     A
C439   H455    1.083   .     S
C440   H456    1.083   .     S
C440   C442    1.402   .     A
C441   C443    1.402   .     A
C442   C444    1.402   .     A
C443   C445    1.390   .     A
C443   H457    1.083   .     S
C444   C446    1.390   .     A
C444   H458    1.083   .     S
C445   H459    1.083   .     S
C445   C447    1.404   .     A
C446   H460    1.083   .     S
C446   C448    1.404   .     A
C447   C628    1.470   1_545 S
C448   C627    1.470   .     S
Cu449  Cu450   2.675   .     S
Cu449  O476    1.960   .     S
Cu449  O469    1.957   .     S
Cu449  O473    1.957   .     S
Cu449  N468    2.010   .     S
Cu449  O472    1.957   .     S
Cu450  O471    1.957   .     S
Cu450  O475    1.960   .     S
Cu450  O470    1.957   .     S
Cu450  O474    1.957   .     S
Cu450  N467    2.010   .     S
H451   C495    1.087   .     S
H478   O117    0.989   1_556 S
O479   H120    0.989   1_556 S
C481   C501    1.460   .     S
C481   O531    1.293   .     A
C481   O529    1.293   .     A
C482   C502    1.460   .     S
C482   O532    1.293   .     A
C482   O530    1.293   .     A
C483   C485    1.407   .     A
C483   C491    1.409   .     A
C483   H521    1.083   .     S
C484   C492    1.408   .     A
C484   H522    1.083   .     S
C484   C486    1.407   .     A
C485   H523    1.080   .     S
C485   N527    1.364   .     A
C486   N528    1.365   .     A
C486   H524    1.080   .     S
C487   N527    1.366   .     A
C487   H525    1.080   .     S
C487   C489    1.410   .     A
C488   N528    1.366   .     A
C488   C490    1.410   .     A
C488   H526    1.080   .     S
C489   C491    1.424   .     A
C489   O537    1.380   .     S
C490   O539    1.380   .     S
C490   C492    1.423   .     A
C492   C131    1.515   1_556 S
C493   O533    1.285   .     A
C493   C495    1.434   .     S
C493   O535    1.288   .     A
C494   O536    1.288   .     A
C494   O534    1.285   .     A
C494   C496    1.434   .     S
C496   C375    1.335   1_655 S
C496   H392    1.087   1_655 S
C497   H513    1.083   .     S
C497   C507    1.404   .     A
C497   C499    1.390   .     A
C498   C508    1.404   .     A
C498   H514    1.083   .     S
C498   C500    1.390   .     A
C499   C501    1.402   .     A
C499   H515    1.083   .     S
C500   H516    1.083   .     S
C500   C502    1.402   .     A
C501   C503    1.402   .     A
C502   C504    1.402   .     A
C503   C505    1.390   .     A
C503   H517    1.083   .     S
C504   C506    1.390   .     A
C504   H518    1.083   .     S
C505   H519    1.083   .     S
C505   C507    1.404   .     A
C506   H520    1.083   .     S
C506   C508    1.404   .     A
C507   C688    1.470   1_545 S
C508   C687    1.470   .     S
Cu509  Cu510   2.675   .     S
Cu509  O536    1.960   .     S
Cu509  O529    1.957   .     S
Cu509  O533    1.957   .     S
Cu509  N528    2.010   .     S
Cu509  O532    1.957   .     S
Cu510  O531    1.957   .     S
Cu510  O535    1.960   .     S
Cu510  O530    1.957   .     S
Cu510  O534    1.957   .     S
Cu510  N527    2.010   .     S
H511   C375    1.087   1_655 S
H538   O177    0.989   1_556 S
O539   H180    0.989   1_556 S
C541   C561    1.460   .     S
C541   O591    1.293   .     A
C541   O589    1.293   .     A
C542   C562    1.460   .     S
C542   O592    1.293   .     A
C542   O590    1.293   .     A
C543   C545    1.407   .     A
C543   C551    1.409   .     A
C543   H581    1.083   .     S
C544   C552    1.408   .     A
C544   H582    1.083   .     S
C544   C546    1.407   .     A
C545   H583    1.080   .     S
C545   N587    1.364   .     A
C546   N588    1.365   .     A
C546   H584    1.080   .     S
C547   N587    1.366   .     A
C547   H585    1.080   .     S
C547   C549    1.410   .     A
C548   N588    1.366   .     A
C548   C550    1.410   .     A
C548   H586    1.080   .     S
C549   C551    1.424   .     A
C549   O597    1.380   .     S
C550   O599    1.380   .     S
C550   C552    1.423   .     A
C552   C191    1.515   1_556 S
C553   O593    1.285   .     A
C553   C555    1.434   .     S
C553   O595    1.288   .     A
C554   O596    1.288   .     A
C554   O594    1.285   .     A
C554   C556    1.434   .     S
C555   C676    1.335   1_455 S
C555   H691    1.087   1_455 S
C556   C615    1.335   .     S
C556   H632    1.087   .     S
C557   H573    1.083   .     S
C557   C567    1.404   .     A
C557   C559    1.390   .     A
C558   C568    1.404   .     A
C558   H574    1.083   .     S
C558   C560    1.390   .     A
C559   C561    1.402   .     A
C559   H575    1.083   .     S
C560   H576    1.083   .     S
C560   C562    1.402   .     A
C561   C563    1.402   .     A
C562   C564    1.402   .     A
C563   C565    1.390   .     A
C563   H577    1.083   .     S
C564   C566    1.390   .     A
C564   H578    1.083   .     S
C565   H579    1.083   .     S
C565   C567    1.404   .     A
C566   H580    1.083   .     S
C566   C568    1.404   .     A
C568   C387    1.470   1_565 S
Cu569  Cu570   2.675   .     S
Cu569  O596    1.960   .     S
Cu569  O589    1.957   .     S
Cu569  O593    1.957   .     S
Cu569  N588    2.010   .     S
Cu569  O592    1.957   .     S
Cu570  O591    1.957   .     S
Cu570  O595    1.960   .     S
Cu570  O590    1.957   .     S
Cu570  O594    1.957   .     S
Cu570  N587    2.010   .     S
H571   C615    1.087   .     S
H572   C676    1.087   1_455 S
H598   O237    0.989   1_556 S
O599   H240    0.989   1_556 S
C601   C621    1.460   .     S
C601   O651    1.293   .     A
C601   O649    1.293   .     A
C602   C622    1.460   .     S
C602   O652    1.293   .     A
C602   O650    1.293   .     A
C603   C605    1.407   .     A
C603   C611    1.409   .     A
C603   H641    1.083   .     S
C604   C612    1.408   .     A
C604   H642    1.083   .     S
C604   C606    1.407   .     A
C605   H643    1.080   .     S
C605   N647    1.364   .     A
C606   N648    1.365   .     A
C606   H644    1.080   .     S
C607   N647    1.366   .     A
C607   H645    1.080   .     S
C607   C609    1.410   .     A
C608   N648    1.366   .     A
C608   C610    1.410   .     A
C608   H646    1.080   .     S
C609   C611    1.424   .     A
C609   O657    1.380   .     S
C610   O659    1.380   .     S
C610   C612    1.423   .     A
C612   C251    1.515   1_556 S
C613   O653    1.285   .     A
C613   C615    1.434   .     S
C613   O655    1.288   .     A
C614   O656    1.288   .     A
C614   O654    1.285   .     A
C614   C616    1.434   .     S
C616   C675    1.335   .     S
C616   H692    1.087   .     S
C617   H633    1.083   .     S
C617   C627    1.404   .     A
C617   C619    1.390   .     A
C618   C628    1.404   .     A
C618   H634    1.083   .     S
C618   C620    1.390   .     A
C619   C621    1.402   .     A
C619   H635    1.083   .     S
C620   H636    1.083   .     S
C620   C622    1.402   .     A
C621   C623    1.402   .     A
C622   C624    1.402   .     A
C623   C625    1.390   .     A
C623   H637    1.083   .     S
C624   C626    1.390   .     A
C624   H638    1.083   .     S
C625   H639    1.083   .     S
C625   C627    1.404   .     A
C626   H640    1.083   .     S
C626   C628    1.404   .     A
C628   C447    1.470   1_565 S
Cu629  Cu630   2.675   .     S
Cu629  O656    1.960   .     S
Cu629  O649    1.957   .     S
Cu629  O653    1.957   .     S
Cu629  N648    2.010   .     S
Cu629  O652    1.957   .     S
Cu630  O651    1.957   .     S
Cu630  O655    1.960   .     S
Cu630  O650    1.957   .     S
Cu630  O654    1.957   .     S
Cu630  N647    2.010   .     S
H631   C675    1.087   .     S
H658   O297    0.989   1_556 S
O659   H300    0.989   1_556 S
C661   C681    1.460   .     S
C661   O711    1.293   .     A
C661   O709    1.293   .     A
C662   C682    1.460   .     S
C662   O712    1.293   .     A
C662   O710    1.293   .     A
C663   C665    1.407   .     A
C663   C671    1.409   .     A
C663   H701    1.083   .     S
C664   C672    1.408   .     A
C664   H702    1.083   .     S
C664   C666    1.407   .     A
C665   H703    1.080   .     S
C665   N707    1.364   .     A
C666   N708    1.365   .     A
C666   H704    1.080   .     S
C667   N707    1.366   .     A
C667   H705    1.080   .     S
C667   C669    1.410   .     A
C668   N708    1.366   .     A
C668   C670    1.410   .     A
C668   H706    1.080   .     S
C669   C671    1.424   .     A
C669   O717    1.380   .     S
C670   O719    1.380   .     S
C670   C672    1.423   .     A
C672   C311    1.515   1_556 S
C673   O713    1.285   .     A
C673   C675    1.434   .     S
C673   O715    1.288   .     A
C674   O716    1.288   .     A
C674   O714    1.285   .     A
C674   C676    1.434   .     S
C676   C555    1.335   1_655 S
C676   H572    1.087   1_655 S
C677   H693    1.083   .     S
C677   C687    1.404   .     A
C677   C679    1.390   .     A
C678   C688    1.404   .     A
C678   H694    1.083   .     S
C678   C680    1.390   .     A
C679   C681    1.402   .     A
C679   H695    1.083   .     S
C680   H696    1.083   .     S
C680   C682    1.402   .     A
C681   C683    1.402   .     A
C682   C684    1.402   .     A
C683   C685    1.390   .     A
C683   H697    1.083   .     S
C684   C686    1.390   .     A
C684   H698    1.083   .     S
C685   H699    1.083   .     S
C685   C687    1.404   .     A
C686   H700    1.083   .     S
C686   C688    1.404   .     A
C688   C507    1.470   1_565 S
Cu689  Cu690   2.675   .     S
Cu689  O716    1.960   .     S
Cu689  O709    1.957   .     S
Cu689  O713    1.957   .     S
Cu689  N708    2.010   .     S
Cu689  O712    1.957   .     S
Cu690  O711    1.957   .     S
Cu690  O715    1.960   .     S
Cu690  O710    1.957   .     S
Cu690  O714    1.957   .     S
Cu690  N707    2.010   .     S
H691   C555    1.087   1_655 S
H718   O357    0.989   1_556 S
O719   H360    0.989   1_556 S
