data_str_m2_o1_o5_pcu_sym.41
_audit_creation_date              2020-01-03
_audit_creation_method            'Materials Studio'
_symmetry_space_group_name_H-M    'P1'
_symmetry_Int_Tables_number       1
_symmetry_cell_setting            triclinic
loop_
_symmetry_equiv_pos_as_xyz
  x,y,z
_cell_length_a                    32.3121
_cell_length_b                    28.9002
_cell_length_c                    27.1550
_cell_angle_alpha                 90.0719
_cell_angle_beta                  91.8135
_cell_angle_gamma                 90.0903
loop_
_atom_site_label
_atom_site_type_symbol
_atom_site_fract_x
_atom_site_fract_y
_atom_site_fract_z
_atom_site_U_iso_or_equiv
_atom_site_adp_type
_atom_site_occupancy
C1     C     0.08765   0.16661   0.16629   0.00000  Uiso   1.00
C2     C     0.02039   0.17718   0.12246   0.00000  Uiso   1.00
C3     C     0.29045   0.16700   0.16698   0.00000  Uiso   1.00
C4     C     0.04289   0.16634   0.16636   0.00000  Uiso   1.00
C5     C     0.14289   0.02468   0.13288   0.00000  Uiso   1.00
C6     C     0.19045   0.30866   0.20046   0.00000  Uiso   1.00
C7     C     0.19046   0.02482   0.20043   0.00000  Uiso   1.00
C8     C     0.14287   0.30851   0.13290   0.00000  Uiso   1.00
C9     C     0.04867   0.14601   0.25608   0.00000  Uiso   1.00
C10    C     0.28467   0.18734   0.07726   0.00000  Uiso   1.00
C11    C     0.29100   0.14866   0.25763   0.00000  Uiso   1.00
C12    C     0.24569   0.16673   0.16704   0.00000  Uiso   1.00
C13    C     0.04233   0.18466   0.07570   0.00000  Uiso   1.00
C14    C     0.11588   0.04935   0.09684   0.00000  Uiso   1.00
C15    C     0.21745   0.28398   0.23650   0.00000  Uiso   1.00
C16    C     0.21782   0.04963   0.23606   0.00000  Uiso   1.00
C17    C     0.11551   0.28370   0.09727   0.00000  Uiso   1.00
C18    C     0.16662   0.16665   0.07366   0.00000  Uiso   1.00
C19    C     0.16671   0.16668   0.25967   0.00000  Uiso   1.00
C20    C     0.16666   0.16664   0.02189   0.00000  Uiso   1.00
C21    C     0.16668   0.16669   0.31145   0.00000  Uiso   1.00
C22    C     0.02308   0.15527   0.21041   0.00000  Uiso   1.00
C23    C     0.31025   0.17806   0.12292   0.00000  Uiso   1.00
C24    C     0.31294   0.15616   0.21087   0.00000  Uiso   1.00
Cu25   Cu    0.16667   0.21355   0.16667   0.00000  Uiso   1.00
Cu26   Cu    0.16667   0.11978   0.16667   0.00000  Uiso   1.00
H27    H     0.07698   0.16539   0.26324   0.00000  Uiso   1.00
H28    H     0.25637   0.16793   0.07008   0.00000  Uiso   1.00
H29    H     0.29853   0.11946   0.28116   0.00000  Uiso   1.00
H30    H     0.03479   0.21385   0.05215   0.00000  Uiso   1.00
H31    H     0.08830   0.06681   0.10862   0.00000  Uiso   1.00
H32    H     0.24503   0.26652   0.22472   0.00000  Uiso   1.00
H33    H     0.24586   0.06598   0.22397   0.00000  Uiso   1.00
H34    H     0.08748   0.26734   0.10936   0.00000  Uiso   1.00
N35    N     0.16667   0.28402   0.16667   0.00000  Uiso   1.00
N36    N     0.16667   0.04931   0.16667   0.00000  Uiso   1.00
O37    O     0.10655   0.20625   0.16666   0.00000  Uiso   1.00
O38    O     0.29382   0.21775   0.04843   0.00000  Uiso   1.00
O39    O     0.26438   0.17563   0.27050   0.00000  Uiso   1.00
O40    O     0.06896   0.15771   0.06285   0.00000  Uiso   1.00
O41    O     0.12372   0.04903   0.05316   0.00000  Uiso   1.00
O42    O     0.20961   0.28431   0.28018   0.00000  Uiso   1.00
O43    O     0.20985   0.05048   0.27970   0.00000  Uiso   1.00
O44    O     0.12349   0.28287   0.05363   0.00000  Uiso   1.00
O45    O     0.22679   0.12709   0.16667   0.00000  Uiso   1.00
O46    O     0.22679   0.20625   0.16667   0.00000  Uiso   1.00
O47    O     0.10655   0.12709   0.16666   0.00000  Uiso   1.00
O48    O     0.16667   0.20625   0.09613   0.00000  Uiso   1.00
O49    O     0.16667   0.12708   0.23720   0.00000  Uiso   1.00
O50    O     0.16667   0.20625   0.23720   0.00000  Uiso   1.00
O51    O     0.16667   0.12708   0.09613   0.00000  Uiso   1.00
O52    O     0.03950   0.11563   0.28494   0.00000  Uiso   1.00
C53    C     0.42098   0.16661   0.16629   0.00000  Uiso   1.00
C54    C     0.35373   0.17718   0.12246   0.00000  Uiso   1.00
C55    C     0.62378   0.16700   0.16698   0.00000  Uiso   1.00
C56    C     0.37622   0.16634   0.16636   0.00000  Uiso   1.00
C57    C     0.47622   0.02468   0.13288   0.00000  Uiso   1.00
C58    C     0.52378   0.30866   0.20046   0.00000  Uiso   1.00
C59    C     0.52379   0.02482   0.20043   0.00000  Uiso   1.00
C60    C     0.47621   0.30851   0.13290   0.00000  Uiso   1.00
C61    C     0.38200   0.14601   0.25608   0.00000  Uiso   1.00
C62    C     0.61800   0.18734   0.07726   0.00000  Uiso   1.00
C63    C     0.62433   0.14866   0.25763   0.00000  Uiso   1.00
C64    C     0.57902   0.16673   0.16704   0.00000  Uiso   1.00
C65    C     0.37567   0.18466   0.07570   0.00000  Uiso   1.00
C66    C     0.44921   0.04935   0.09684   0.00000  Uiso   1.00
C67    C     0.55079   0.28398   0.23650   0.00000  Uiso   1.00
C68    C     0.55116   0.04963   0.23606   0.00000  Uiso   1.00
C69    C     0.44885   0.28370   0.09727   0.00000  Uiso   1.00
C70    C     0.49996   0.16665   0.07366   0.00000  Uiso   1.00
C71    C     0.50004   0.16668   0.25967   0.00000  Uiso   1.00
C72    C     0.49999   0.16664   0.02189   0.00000  Uiso   1.00
C73    C     0.50001   0.16669   0.31145   0.00000  Uiso   1.00
C74    C     0.35642   0.15527   0.21041   0.00000  Uiso   1.00
C75    C     0.64358   0.17806   0.12292   0.00000  Uiso   1.00
C76    C     0.64627   0.15616   0.21087   0.00000  Uiso   1.00
Cu77   Cu    0.50000   0.21355   0.16667   0.00000  Uiso   1.00
Cu78   Cu    0.50000   0.11978   0.16667   0.00000  Uiso   1.00
H79    H     0.41032   0.16539   0.26324   0.00000  Uiso   1.00
H80    H     0.58970   0.16793   0.07008   0.00000  Uiso   1.00
H81    H     0.63186   0.11946   0.28116   0.00000  Uiso   1.00
H82    H     0.36812   0.21385   0.05215   0.00000  Uiso   1.00
H83    H     0.42163   0.06681   0.10862   0.00000  Uiso   1.00
H84    H     0.57837   0.26652   0.22472   0.00000  Uiso   1.00
H85    H     0.57920   0.06598   0.22397   0.00000  Uiso   1.00
H86    H     0.42081   0.26734   0.10936   0.00000  Uiso   1.00
N87    N     0.50000   0.28402   0.16667   0.00000  Uiso   1.00
N88    N     0.50000   0.04931   0.16667   0.00000  Uiso   1.00
O89    O     0.43988   0.20625   0.16666   0.00000  Uiso   1.00
O90    O     0.62715   0.21775   0.04843   0.00000  Uiso   1.00
O91    O     0.59772   0.17563   0.27050   0.00000  Uiso   1.00
O92    O     0.40230   0.15771   0.06285   0.00000  Uiso   1.00
O93    O     0.45706   0.04903   0.05316   0.00000  Uiso   1.00
O94    O     0.54294   0.28431   0.28018   0.00000  Uiso   1.00
O95    O     0.54318   0.05048   0.27970   0.00000  Uiso   1.00
O96    O     0.45682   0.28287   0.05363   0.00000  Uiso   1.00
O97    O     0.56012   0.12709   0.16667   0.00000  Uiso   1.00
O98    O     0.56012   0.20625   0.16667   0.00000  Uiso   1.00
O99    O     0.43988   0.12709   0.16666   0.00000  Uiso   1.00
O100   O     0.50000   0.20625   0.09613   0.00000  Uiso   1.00
O101   O     0.50000   0.12708   0.23720   0.00000  Uiso   1.00
O102   O     0.50000   0.20625   0.23720   0.00000  Uiso   1.00
O103   O     0.50000   0.12708   0.09613   0.00000  Uiso   1.00
O104   O     0.37283   0.11563   0.28494   0.00000  Uiso   1.00
C105   C     0.75431   0.16661   0.16629   0.00000  Uiso   1.00
C106   C     0.68706   0.17718   0.12246   0.00000  Uiso   1.00
C107   C     0.95712   0.16700   0.16698   0.00000  Uiso   1.00
C108   C     0.70955   0.16634   0.16636   0.00000  Uiso   1.00
C109   C     0.80955   0.02468   0.13288   0.00000  Uiso   1.00
C110   C     0.85711   0.30866   0.20046   0.00000  Uiso   1.00
C111   C     0.85713   0.02482   0.20043   0.00000  Uiso   1.00
C112   C     0.80954   0.30851   0.13290   0.00000  Uiso   1.00
C113   C     0.71533   0.14601   0.25608   0.00000  Uiso   1.00
C114   C     0.95133   0.18734   0.07726   0.00000  Uiso   1.00
C115   C     0.95766   0.14866   0.25763   0.00000  Uiso   1.00
C116   C     0.91235   0.16673   0.16704   0.00000  Uiso   1.00
C117   C     0.70900   0.18466   0.07570   0.00000  Uiso   1.00
C118   C     0.78255   0.04935   0.09684   0.00000  Uiso   1.00
C119   C     0.88412   0.28398   0.23650   0.00000  Uiso   1.00
C120   C     0.88449   0.04963   0.23606   0.00000  Uiso   1.00
C121   C     0.78218   0.28370   0.09727   0.00000  Uiso   1.00
C122   C     0.83329   0.16665   0.07366   0.00000  Uiso   1.00
C123   C     0.83338   0.16668   0.25967   0.00000  Uiso   1.00
C124   C     0.83332   0.16664   0.02189   0.00000  Uiso   1.00
C125   C     0.83335   0.16669   0.31145   0.00000  Uiso   1.00
C126   C     0.68975   0.15527   0.21041   0.00000  Uiso   1.00
C127   C     0.97692   0.17806   0.12292   0.00000  Uiso   1.00
C128   C     0.97961   0.15616   0.21087   0.00000  Uiso   1.00
Cu129  Cu    0.83333   0.21355   0.16667   0.00000  Uiso   1.00
Cu130  Cu    0.83333   0.11978   0.16667   0.00000  Uiso   1.00
H131   H     0.74365   0.16539   0.26324   0.00000  Uiso   1.00
H132   H     0.92303   0.16793   0.07008   0.00000  Uiso   1.00
H133   H     0.96519   0.11946   0.28116   0.00000  Uiso   1.00
H134   H     0.70145   0.21385   0.05215   0.00000  Uiso   1.00
H135   H     0.75496   0.06681   0.10862   0.00000  Uiso   1.00
H136   H     0.91170   0.26652   0.22472   0.00000  Uiso   1.00
H137   H     0.91253   0.06598   0.22397   0.00000  Uiso   1.00
H138   H     0.75414   0.26734   0.10936   0.00000  Uiso   1.00
N139   N     0.83333   0.28402   0.16667   0.00000  Uiso   1.00
N140   N     0.83333   0.04931   0.16667   0.00000  Uiso   1.00
O141   O     0.77321   0.20625   0.16666   0.00000  Uiso   1.00
O142   O     0.96048   0.21775   0.04843   0.00000  Uiso   1.00
O143   O     0.93105   0.17563   0.27050   0.00000  Uiso   1.00
O144   O     0.73563   0.15771   0.06285   0.00000  Uiso   1.00
O145   O     0.79039   0.04903   0.05316   0.00000  Uiso   1.00
O146   O     0.87628   0.28431   0.28018   0.00000  Uiso   1.00
O147   O     0.87651   0.05048   0.27970   0.00000  Uiso   1.00
O148   O     0.79016   0.28287   0.05363   0.00000  Uiso   1.00
O149   O     0.89345   0.12709   0.16667   0.00000  Uiso   1.00
O150   O     0.89345   0.20625   0.16667   0.00000  Uiso   1.00
O151   O     0.77321   0.12709   0.16666   0.00000  Uiso   1.00
O152   O     0.83333   0.20625   0.09613   0.00000  Uiso   1.00
O153   O     0.83333   0.12708   0.23720   0.00000  Uiso   1.00
O154   O     0.83333   0.20625   0.23720   0.00000  Uiso   1.00
O155   O     0.83333   0.12708   0.09613   0.00000  Uiso   1.00
O156   O     0.70617   0.11563   0.28494   0.00000  Uiso   1.00
C157   C     0.08765   0.49994   0.16629   0.00000  Uiso   1.00
C158   C     0.02039   0.51051   0.12246   0.00000  Uiso   1.00
C159   C     0.29045   0.50033   0.16698   0.00000  Uiso   1.00
C160   C     0.04289   0.49967   0.16636   0.00000  Uiso   1.00
C161   C     0.14289   0.35801   0.13288   0.00000  Uiso   1.00
C162   C     0.19045   0.64199   0.20046   0.00000  Uiso   1.00
C163   C     0.19046   0.35815   0.20043   0.00000  Uiso   1.00
C164   C     0.14287   0.64185   0.13290   0.00000  Uiso   1.00
C165   C     0.04867   0.47934   0.25608   0.00000  Uiso   1.00
C166   C     0.28467   0.52067   0.07726   0.00000  Uiso   1.00
C167   C     0.29100   0.48200   0.25763   0.00000  Uiso   1.00
C168   C     0.24569   0.50006   0.16704   0.00000  Uiso   1.00
C169   C     0.04233   0.51800   0.07570   0.00000  Uiso   1.00
C170   C     0.11588   0.38268   0.09684   0.00000  Uiso   1.00
C171   C     0.21745   0.61732   0.23650   0.00000  Uiso   1.00
C172   C     0.21782   0.38297   0.23606   0.00000  Uiso   1.00
C173   C     0.11551   0.61703   0.09727   0.00000  Uiso   1.00
C174   C     0.16662   0.49998   0.07366   0.00000  Uiso   1.00
C175   C     0.16671   0.50002   0.25967   0.00000  Uiso   1.00
C176   C     0.16666   0.49998   0.02189   0.00000  Uiso   1.00
C177   C     0.16668   0.50002   0.31145   0.00000  Uiso   1.00
C178   C     0.02308   0.48861   0.21041   0.00000  Uiso   1.00
C179   C     0.31025   0.51140   0.12292   0.00000  Uiso   1.00
C180   C     0.31294   0.48949   0.21087   0.00000  Uiso   1.00
Cu181  Cu    0.16667   0.54689   0.16667   0.00000  Uiso   1.00
Cu182  Cu    0.16667   0.45311   0.16667   0.00000  Uiso   1.00
H183   H     0.07698   0.49873   0.26324   0.00000  Uiso   1.00
H184   H     0.25637   0.50126   0.07008   0.00000  Uiso   1.00
H185   H     0.29853   0.45279   0.28116   0.00000  Uiso   1.00
H186   H     0.03479   0.54719   0.05215   0.00000  Uiso   1.00
H187   H     0.08830   0.40015   0.10862   0.00000  Uiso   1.00
H188   H     0.24503   0.59985   0.22472   0.00000  Uiso   1.00
H189   H     0.24586   0.39932   0.22397   0.00000  Uiso   1.00
H190   H     0.08748   0.60067   0.10936   0.00000  Uiso   1.00
N191   N     0.16667   0.61736   0.16667   0.00000  Uiso   1.00
N192   N     0.16667   0.38264   0.16667   0.00000  Uiso   1.00
O193   O     0.10655   0.53958   0.16666   0.00000  Uiso   1.00
O194   O     0.29382   0.55109   0.04843   0.00000  Uiso   1.00
O195   O     0.26438   0.50896   0.27050   0.00000  Uiso   1.00
O196   O     0.06896   0.49104   0.06285   0.00000  Uiso   1.00
O197   O     0.12372   0.38236   0.05316   0.00000  Uiso   1.00
O198   O     0.20961   0.61765   0.28018   0.00000  Uiso   1.00
O199   O     0.20985   0.38381   0.27970   0.00000  Uiso   1.00
O200   O     0.12349   0.61620   0.05363   0.00000  Uiso   1.00
O201   O     0.22679   0.46042   0.16667   0.00000  Uiso   1.00
O202   O     0.22679   0.53958   0.16667   0.00000  Uiso   1.00
O203   O     0.10655   0.46042   0.16666   0.00000  Uiso   1.00
O204   O     0.16667   0.53959   0.09613   0.00000  Uiso   1.00
O205   O     0.16667   0.46041   0.23720   0.00000  Uiso   1.00
O206   O     0.16667   0.53959   0.23720   0.00000  Uiso   1.00
O207   O     0.16667   0.46041   0.09613   0.00000  Uiso   1.00
O208   O     0.03950   0.44896   0.28494   0.00000  Uiso   1.00
C209   C     0.42098   0.49994   0.16629   0.00000  Uiso   1.00
C210   C     0.35373   0.51051   0.12246   0.00000  Uiso   1.00
C211   C     0.62378   0.50033   0.16698   0.00000  Uiso   1.00
C212   C     0.37622   0.49967   0.16636   0.00000  Uiso   1.00
C213   C     0.47622   0.35801   0.13288   0.00000  Uiso   1.00
C214   C     0.52378   0.64199   0.20046   0.00000  Uiso   1.00
C215   C     0.52379   0.35815   0.20043   0.00000  Uiso   1.00
C216   C     0.47621   0.64185   0.13290   0.00000  Uiso   1.00
C217   C     0.38200   0.47934   0.25608   0.00000  Uiso   1.00
C218   C     0.61800   0.52067   0.07726   0.00000  Uiso   1.00
C219   C     0.62433   0.48200   0.25763   0.00000  Uiso   1.00
C220   C     0.57902   0.50006   0.16704   0.00000  Uiso   1.00
C221   C     0.37567   0.51800   0.07570   0.00000  Uiso   1.00
C222   C     0.44921   0.38268   0.09684   0.00000  Uiso   1.00
C223   C     0.55079   0.61732   0.23650   0.00000  Uiso   1.00
C224   C     0.55116   0.38297   0.23606   0.00000  Uiso   1.00
C225   C     0.44885   0.61703   0.09727   0.00000  Uiso   1.00
C226   C     0.49996   0.49998   0.07366   0.00000  Uiso   1.00
C227   C     0.50004   0.50002   0.25967   0.00000  Uiso   1.00
C228   C     0.49999   0.49998   0.02189   0.00000  Uiso   1.00
C229   C     0.50001   0.50002   0.31145   0.00000  Uiso   1.00
C230   C     0.35642   0.48861   0.21041   0.00000  Uiso   1.00
C231   C     0.64358   0.51140   0.12292   0.00000  Uiso   1.00
C232   C     0.64627   0.48949   0.21087   0.00000  Uiso   1.00
Cu233  Cu    0.50000   0.54689   0.16667   0.00000  Uiso   1.00
Cu234  Cu    0.50000   0.45311   0.16667   0.00000  Uiso   1.00
H235   H     0.41032   0.49873   0.26324   0.00000  Uiso   1.00
H236   H     0.58970   0.50126   0.07008   0.00000  Uiso   1.00
H237   H     0.63186   0.45279   0.28116   0.00000  Uiso   1.00
H238   H     0.36812   0.54719   0.05215   0.00000  Uiso   1.00
H239   H     0.42163   0.40015   0.10862   0.00000  Uiso   1.00
H240   H     0.57837   0.59985   0.22472   0.00000  Uiso   1.00
H241   H     0.57920   0.39932   0.22397   0.00000  Uiso   1.00
H242   H     0.42081   0.60067   0.10936   0.00000  Uiso   1.00
N243   N     0.50000   0.61736   0.16667   0.00000  Uiso   1.00
N244   N     0.50000   0.38264   0.16667   0.00000  Uiso   1.00
O245   O     0.43988   0.53958   0.16666   0.00000  Uiso   1.00
O246   O     0.62715   0.55109   0.04843   0.00000  Uiso   1.00
O247   O     0.59772   0.50896   0.27050   0.00000  Uiso   1.00
O248   O     0.40230   0.49104   0.06285   0.00000  Uiso   1.00
O249   O     0.45706   0.38236   0.05316   0.00000  Uiso   1.00
O250   O     0.54294   0.61765   0.28018   0.00000  Uiso   1.00
O251   O     0.54318   0.38381   0.27970   0.00000  Uiso   1.00
O252   O     0.45682   0.61620   0.05363   0.00000  Uiso   1.00
O253   O     0.56012   0.46042   0.16667   0.00000  Uiso   1.00
O254   O     0.56012   0.53958   0.16667   0.00000  Uiso   1.00
O255   O     0.43988   0.46042   0.16666   0.00000  Uiso   1.00
O256   O     0.50000   0.53959   0.09613   0.00000  Uiso   1.00
O257   O     0.50000   0.46041   0.23720   0.00000  Uiso   1.00
O258   O     0.50000   0.53959   0.23720   0.00000  Uiso   1.00
O259   O     0.50000   0.46041   0.09613   0.00000  Uiso   1.00
O260   O     0.37283   0.44896   0.28494   0.00000  Uiso   1.00
C261   C     0.75431   0.49994   0.16629   0.00000  Uiso   1.00
C262   C     0.68706   0.51051   0.12246   0.00000  Uiso   1.00
C263   C     0.95712   0.50033   0.16698   0.00000  Uiso   1.00
C264   C     0.70955   0.49967   0.16636   0.00000  Uiso   1.00
C265   C     0.80955   0.35801   0.13288   0.00000  Uiso   1.00
C266   C     0.85711   0.64199   0.20046   0.00000  Uiso   1.00
C267   C     0.85713   0.35815   0.20043   0.00000  Uiso   1.00
C268   C     0.80954   0.64185   0.13290   0.00000  Uiso   1.00
C269   C     0.71533   0.47934   0.25608   0.00000  Uiso   1.00
C270   C     0.95133   0.52067   0.07726   0.00000  Uiso   1.00
C271   C     0.95766   0.48200   0.25763   0.00000  Uiso   1.00
C272   C     0.91235   0.50006   0.16704   0.00000  Uiso   1.00
C273   C     0.70900   0.51800   0.07570   0.00000  Uiso   1.00
C274   C     0.78255   0.38268   0.09684   0.00000  Uiso   1.00
C275   C     0.88412   0.61732   0.23650   0.00000  Uiso   1.00
C276   C     0.88449   0.38297   0.23606   0.00000  Uiso   1.00
C277   C     0.78218   0.61703   0.09727   0.00000  Uiso   1.00
C278   C     0.83329   0.49998   0.07366   0.00000  Uiso   1.00
C279   C     0.83338   0.50002   0.25967   0.00000  Uiso   1.00
C280   C     0.83332   0.49998   0.02189   0.00000  Uiso   1.00
C281   C     0.83335   0.50002   0.31145   0.00000  Uiso   1.00
C282   C     0.68975   0.48861   0.21041   0.00000  Uiso   1.00
C283   C     0.97692   0.51140   0.12292   0.00000  Uiso   1.00
C284   C     0.97961   0.48949   0.21087   0.00000  Uiso   1.00
Cu285  Cu    0.83333   0.54689   0.16667   0.00000  Uiso   1.00
Cu286  Cu    0.83333   0.45311   0.16667   0.00000  Uiso   1.00
H287   H     0.74365   0.49873   0.26324   0.00000  Uiso   1.00
H288   H     0.92303   0.50126   0.07008   0.00000  Uiso   1.00
H289   H     0.96519   0.45279   0.28116   0.00000  Uiso   1.00
H290   H     0.70145   0.54719   0.05215   0.00000  Uiso   1.00
H291   H     0.75496   0.40015   0.10862   0.00000  Uiso   1.00
H292   H     0.91170   0.59985   0.22472   0.00000  Uiso   1.00
H293   H     0.91253   0.39932   0.22397   0.00000  Uiso   1.00
H294   H     0.75414   0.60067   0.10936   0.00000  Uiso   1.00
N295   N     0.83333   0.61736   0.16667   0.00000  Uiso   1.00
N296   N     0.83333   0.38264   0.16667   0.00000  Uiso   1.00
O297   O     0.77321   0.53958   0.16666   0.00000  Uiso   1.00
O298   O     0.96048   0.55109   0.04843   0.00000  Uiso   1.00
O299   O     0.93105   0.50896   0.27050   0.00000  Uiso   1.00
O300   O     0.73563   0.49104   0.06285   0.00000  Uiso   1.00
O301   O     0.79039   0.38236   0.05316   0.00000  Uiso   1.00
O302   O     0.87628   0.61765   0.28018   0.00000  Uiso   1.00
O303   O     0.87651   0.38381   0.27970   0.00000  Uiso   1.00
O304   O     0.79016   0.61620   0.05363   0.00000  Uiso   1.00
O305   O     0.89345   0.46042   0.16667   0.00000  Uiso   1.00
O306   O     0.89345   0.53958   0.16667   0.00000  Uiso   1.00
O307   O     0.77321   0.46042   0.16666   0.00000  Uiso   1.00
O308   O     0.83333   0.53959   0.09613   0.00000  Uiso   1.00
O309   O     0.83333   0.46041   0.23720   0.00000  Uiso   1.00
O310   O     0.83333   0.53959   0.23720   0.00000  Uiso   1.00
O311   O     0.83333   0.46041   0.09613   0.00000  Uiso   1.00
O312   O     0.70617   0.44896   0.28494   0.00000  Uiso   1.00
C313   C     0.08765   0.83327   0.16629   0.00000  Uiso   1.00
C314   C     0.02039   0.84384   0.12246   0.00000  Uiso   1.00
C315   C     0.29045   0.83366   0.16698   0.00000  Uiso   1.00
C316   C     0.04289   0.83300   0.16636   0.00000  Uiso   1.00
C317   C     0.14289   0.69134   0.13288   0.00000  Uiso   1.00
C318   C     0.19045   0.97532   0.20046   0.00000  Uiso   1.00
C319   C     0.19046   0.69149   0.20043   0.00000  Uiso   1.00
C320   C     0.14287   0.97518   0.13290   0.00000  Uiso   1.00
C321   C     0.04867   0.81268   0.25608   0.00000  Uiso   1.00
C322   C     0.28467   0.85400   0.07726   0.00000  Uiso   1.00
C323   C     0.29100   0.81533   0.25763   0.00000  Uiso   1.00
C324   C     0.24569   0.83339   0.16704   0.00000  Uiso   1.00
C325   C     0.04233   0.85133   0.07570   0.00000  Uiso   1.00
C326   C     0.11588   0.71602   0.09684   0.00000  Uiso   1.00
C327   C     0.21745   0.95065   0.23650   0.00000  Uiso   1.00
C328   C     0.21782   0.71630   0.23606   0.00000  Uiso   1.00
C329   C     0.11551   0.95036   0.09727   0.00000  Uiso   1.00
C330   C     0.16662   0.83332   0.07366   0.00000  Uiso   1.00
C331   C     0.16671   0.83335   0.25967   0.00000  Uiso   1.00
C332   C     0.16666   0.83331   0.02189   0.00000  Uiso   1.00
C333   C     0.16668   0.83336   0.31145   0.00000  Uiso   1.00
C334   C     0.02308   0.82194   0.21041   0.00000  Uiso   1.00
C335   C     0.31025   0.84473   0.12292   0.00000  Uiso   1.00
C336   C     0.31294   0.82282   0.21087   0.00000  Uiso   1.00
Cu337  Cu    0.16667   0.88022   0.16667   0.00000  Uiso   1.00
Cu338  Cu    0.16667   0.78645   0.16667   0.00000  Uiso   1.00
H339   H     0.07698   0.83206   0.26324   0.00000  Uiso   1.00
H340   H     0.25637   0.83460   0.07008   0.00000  Uiso   1.00
H341   H     0.29853   0.78612   0.28116   0.00000  Uiso   1.00
H342   H     0.03479   0.88052   0.05215   0.00000  Uiso   1.00
H343   H     0.08830   0.73348   0.10862   0.00000  Uiso   1.00
H344   H     0.24503   0.93318   0.22472   0.00000  Uiso   1.00
H345   H     0.24586   0.73265   0.22397   0.00000  Uiso   1.00
H346   H     0.08748   0.93401   0.10936   0.00000  Uiso   1.00
N347   N     0.16667   0.95069   0.16667   0.00000  Uiso   1.00
N348   N     0.16667   0.71598   0.16667   0.00000  Uiso   1.00
O349   O     0.10655   0.87291   0.16666   0.00000  Uiso   1.00
O350   O     0.29382   0.88442   0.04843   0.00000  Uiso   1.00
O351   O     0.26438   0.84229   0.27050   0.00000  Uiso   1.00
O352   O     0.06896   0.82438   0.06285   0.00000  Uiso   1.00
O353   O     0.12372   0.71569   0.05316   0.00000  Uiso   1.00
O354   O     0.20961   0.95098   0.28018   0.00000  Uiso   1.00
O355   O     0.20985   0.71714   0.27970   0.00000  Uiso   1.00
O356   O     0.12349   0.94953   0.05363   0.00000  Uiso   1.00
O357   O     0.22679   0.79375   0.16667   0.00000  Uiso   1.00
O358   O     0.22679   0.87291   0.16667   0.00000  Uiso   1.00
O359   O     0.10655   0.79375   0.16666   0.00000  Uiso   1.00
O360   O     0.16667   0.87292   0.09613   0.00000  Uiso   1.00
O361   O     0.16667   0.79375   0.23720   0.00000  Uiso   1.00
O362   O     0.16667   0.87292   0.23720   0.00000  Uiso   1.00
O363   O     0.16667   0.79375   0.09613   0.00000  Uiso   1.00
O364   O     0.03950   0.78229   0.28494   0.00000  Uiso   1.00
C365   C     0.42098   0.83327   0.16629   0.00000  Uiso   1.00
C366   C     0.35373   0.84384   0.12246   0.00000  Uiso   1.00
C367   C     0.62378   0.83366   0.16698   0.00000  Uiso   1.00
C368   C     0.37622   0.83300   0.16636   0.00000  Uiso   1.00
C369   C     0.47622   0.69134   0.13288   0.00000  Uiso   1.00
C370   C     0.52378   0.97532   0.20046   0.00000  Uiso   1.00
C371   C     0.52379   0.69149   0.20043   0.00000  Uiso   1.00
C372   C     0.47621   0.97518   0.13290   0.00000  Uiso   1.00
C373   C     0.38200   0.81268   0.25608   0.00000  Uiso   1.00
C374   C     0.61800   0.85400   0.07726   0.00000  Uiso   1.00
C375   C     0.62433   0.81533   0.25763   0.00000  Uiso   1.00
C376   C     0.57902   0.83339   0.16704   0.00000  Uiso   1.00
C377   C     0.37567   0.85133   0.07570   0.00000  Uiso   1.00
C378   C     0.44921   0.71602   0.09684   0.00000  Uiso   1.00
C379   C     0.55079   0.95065   0.23650   0.00000  Uiso   1.00
C380   C     0.55116   0.71630   0.23606   0.00000  Uiso   1.00
C381   C     0.44885   0.95036   0.09727   0.00000  Uiso   1.00
C382   C     0.49996   0.83332   0.07366   0.00000  Uiso   1.00
C383   C     0.50004   0.83335   0.25967   0.00000  Uiso   1.00
C384   C     0.49999   0.83331   0.02189   0.00000  Uiso   1.00
C385   C     0.50001   0.83336   0.31145   0.00000  Uiso   1.00
C386   C     0.35642   0.82194   0.21041   0.00000  Uiso   1.00
C387   C     0.64358   0.84473   0.12292   0.00000  Uiso   1.00
C388   C     0.64627   0.82282   0.21087   0.00000  Uiso   1.00
Cu389  Cu    0.50000   0.88022   0.16667   0.00000  Uiso   1.00
Cu390  Cu    0.50000   0.78645   0.16667   0.00000  Uiso   1.00
H391   H     0.41032   0.83206   0.26324   0.00000  Uiso   1.00
H392   H     0.58970   0.83460   0.07008   0.00000  Uiso   1.00
H393   H     0.63186   0.78612   0.28116   0.00000  Uiso   1.00
H394   H     0.36812   0.88052   0.05215   0.00000  Uiso   1.00
H395   H     0.42163   0.73348   0.10862   0.00000  Uiso   1.00
H396   H     0.57837   0.93318   0.22472   0.00000  Uiso   1.00
H397   H     0.57920   0.73265   0.22397   0.00000  Uiso   1.00
H398   H     0.42081   0.93401   0.10936   0.00000  Uiso   1.00
N399   N     0.50000   0.95069   0.16667   0.00000  Uiso   1.00
N400   N     0.50000   0.71598   0.16667   0.00000  Uiso   1.00
O401   O     0.43988   0.87291   0.16666   0.00000  Uiso   1.00
O402   O     0.62715   0.88442   0.04843   0.00000  Uiso   1.00
O403   O     0.59772   0.84229   0.27050   0.00000  Uiso   1.00
O404   O     0.40230   0.82438   0.06285   0.00000  Uiso   1.00
O405   O     0.45706   0.71569   0.05316   0.00000  Uiso   1.00
O406   O     0.54294   0.95098   0.28018   0.00000  Uiso   1.00
O407   O     0.54318   0.71714   0.27970   0.00000  Uiso   1.00
O408   O     0.45682   0.94953   0.05363   0.00000  Uiso   1.00
O409   O     0.56012   0.79375   0.16667   0.00000  Uiso   1.00
O410   O     0.56012   0.87291   0.16667   0.00000  Uiso   1.00
O411   O     0.43988   0.79375   0.16666   0.00000  Uiso   1.00
O412   O     0.50000   0.87292   0.09613   0.00000  Uiso   1.00
O413   O     0.50000   0.79375   0.23720   0.00000  Uiso   1.00
O414   O     0.50000   0.87292   0.23720   0.00000  Uiso   1.00
O415   O     0.50000   0.79375   0.09613   0.00000  Uiso   1.00
O416   O     0.37283   0.78229   0.28494   0.00000  Uiso   1.00
C417   C     0.75431   0.83327   0.16629   0.00000  Uiso   1.00
C418   C     0.68706   0.84384   0.12246   0.00000  Uiso   1.00
C419   C     0.95712   0.83366   0.16698   0.00000  Uiso   1.00
C420   C     0.70955   0.83300   0.16636   0.00000  Uiso   1.00
C421   C     0.80955   0.69134   0.13288   0.00000  Uiso   1.00
C422   C     0.85711   0.97532   0.20046   0.00000  Uiso   1.00
C423   C     0.85713   0.69149   0.20043   0.00000  Uiso   1.00
C424   C     0.80954   0.97518   0.13290   0.00000  Uiso   1.00
C425   C     0.71533   0.81268   0.25608   0.00000  Uiso   1.00
C426   C     0.95133   0.85400   0.07726   0.00000  Uiso   1.00
C427   C     0.95766   0.81533   0.25763   0.00000  Uiso   1.00
C428   C     0.91235   0.83339   0.16704   0.00000  Uiso   1.00
C429   C     0.70900   0.85133   0.07570   0.00000  Uiso   1.00
C430   C     0.78255   0.71602   0.09684   0.00000  Uiso   1.00
C431   C     0.88412   0.95065   0.23650   0.00000  Uiso   1.00
C432   C     0.88449   0.71630   0.23606   0.00000  Uiso   1.00
C433   C     0.78218   0.95036   0.09727   0.00000  Uiso   1.00
C434   C     0.83329   0.83332   0.07366   0.00000  Uiso   1.00
C435   C     0.83338   0.83335   0.25967   0.00000  Uiso   1.00
C436   C     0.83332   0.83331   0.02189   0.00000  Uiso   1.00
C437   C     0.83335   0.83336   0.31145   0.00000  Uiso   1.00
C438   C     0.68975   0.82194   0.21041   0.00000  Uiso   1.00
C439   C     0.97692   0.84473   0.12292   0.00000  Uiso   1.00
C440   C     0.97961   0.82282   0.21087   0.00000  Uiso   1.00
Cu441  Cu    0.83333   0.88022   0.16667   0.00000  Uiso   1.00
Cu442  Cu    0.83333   0.78645   0.16667   0.00000  Uiso   1.00
H443   H     0.74365   0.83206   0.26324   0.00000  Uiso   1.00
H444   H     0.92303   0.83460   0.07008   0.00000  Uiso   1.00
H445   H     0.96519   0.78612   0.28116   0.00000  Uiso   1.00
H446   H     0.70145   0.88052   0.05215   0.00000  Uiso   1.00
H447   H     0.75496   0.73348   0.10862   0.00000  Uiso   1.00
H448   H     0.91170   0.93318   0.22472   0.00000  Uiso   1.00
H449   H     0.91253   0.73265   0.22397   0.00000  Uiso   1.00
H450   H     0.75414   0.93401   0.10936   0.00000  Uiso   1.00
N451   N     0.83333   0.95069   0.16667   0.00000  Uiso   1.00
N452   N     0.83333   0.71598   0.16667   0.00000  Uiso   1.00
O453   O     0.77321   0.87291   0.16666   0.00000  Uiso   1.00
O454   O     0.96048   0.88442   0.04843   0.00000  Uiso   1.00
O455   O     0.93105   0.84229   0.27050   0.00000  Uiso   1.00
O456   O     0.73563   0.82438   0.06285   0.00000  Uiso   1.00
O457   O     0.79039   0.71569   0.05316   0.00000  Uiso   1.00
O458   O     0.87628   0.95098   0.28018   0.00000  Uiso   1.00
O459   O     0.87651   0.71714   0.27970   0.00000  Uiso   1.00
O460   O     0.79016   0.94953   0.05363   0.00000  Uiso   1.00
O461   O     0.89345   0.79375   0.16667   0.00000  Uiso   1.00
O462   O     0.89345   0.87291   0.16667   0.00000  Uiso   1.00
O463   O     0.77321   0.79375   0.16666   0.00000  Uiso   1.00
O464   O     0.83333   0.87292   0.09613   0.00000  Uiso   1.00
O465   O     0.83333   0.79375   0.23720   0.00000  Uiso   1.00
O466   O     0.83333   0.87292   0.23720   0.00000  Uiso   1.00
O467   O     0.83333   0.79375   0.09613   0.00000  Uiso   1.00
O468   O     0.70617   0.78229   0.28494   0.00000  Uiso   1.00
C469   C     0.08765   0.16661   0.49963   0.00000  Uiso   1.00
C470   C     0.02039   0.17718   0.45580   0.00000  Uiso   1.00
C471   C     0.29045   0.16700   0.50031   0.00000  Uiso   1.00
C472   C     0.04289   0.16634   0.49969   0.00000  Uiso   1.00
C473   C     0.14289   0.02468   0.46621   0.00000  Uiso   1.00
C474   C     0.19045   0.30866   0.53379   0.00000  Uiso   1.00
C475   C     0.19046   0.02482   0.53376   0.00000  Uiso   1.00
C476   C     0.14287   0.30851   0.46624   0.00000  Uiso   1.00
C477   C     0.04867   0.14601   0.58941   0.00000  Uiso   1.00
C478   C     0.28467   0.18734   0.41059   0.00000  Uiso   1.00
C479   C     0.29100   0.14866   0.59096   0.00000  Uiso   1.00
C480   C     0.24569   0.16673   0.50037   0.00000  Uiso   1.00
C481   C     0.04233   0.18466   0.40904   0.00000  Uiso   1.00
C482   C     0.11588   0.04935   0.43017   0.00000  Uiso   1.00
C483   C     0.21745   0.28398   0.56983   0.00000  Uiso   1.00
C484   C     0.21782   0.04963   0.56940   0.00000  Uiso   1.00
C485   C     0.11551   0.28370   0.43060   0.00000  Uiso   1.00
C486   C     0.16662   0.16665   0.40700   0.00000  Uiso   1.00
C487   C     0.16671   0.16668   0.59300   0.00000  Uiso   1.00
C488   C     0.16666   0.16664   0.35522   0.00000  Uiso   1.00
C489   C     0.16668   0.16669   0.64478   0.00000  Uiso   1.00
C490   C     0.02308   0.15527   0.54375   0.00000  Uiso   1.00
C491   C     0.31025   0.17806   0.45625   0.00000  Uiso   1.00
C492   C     0.31294   0.15616   0.54420   0.00000  Uiso   1.00
Cu493  Cu    0.16667   0.21355   0.50000   0.00000  Uiso   1.00
Cu494  Cu    0.16667   0.11978   0.50000   0.00000  Uiso   1.00
H495   H     0.07698   0.16539   0.59657   0.00000  Uiso   1.00
H496   H     0.25637   0.16793   0.40341   0.00000  Uiso   1.00
H497   H     0.29853   0.11946   0.61450   0.00000  Uiso   1.00
H498   H     0.03479   0.21385   0.38548   0.00000  Uiso   1.00
H499   H     0.08830   0.06681   0.44195   0.00000  Uiso   1.00
H500   H     0.24503   0.26652   0.55805   0.00000  Uiso   1.00
H501   H     0.24586   0.06598   0.55731   0.00000  Uiso   1.00
H502   H     0.08748   0.26734   0.44269   0.00000  Uiso   1.00
N503   N     0.16667   0.28402   0.50000   0.00000  Uiso   1.00
N504   N     0.16667   0.04931   0.50000   0.00000  Uiso   1.00
O505   O     0.10655   0.20625   0.50000   0.00000  Uiso   1.00
O506   O     0.29382   0.21775   0.38176   0.00000  Uiso   1.00
O507   O     0.26438   0.17563   0.60383   0.00000  Uiso   1.00
O508   O     0.06896   0.15771   0.39618   0.00000  Uiso   1.00
O509   O     0.12372   0.04903   0.38649   0.00000  Uiso   1.00
O510   O     0.20961   0.28431   0.61351   0.00000  Uiso   1.00
O511   O     0.20985   0.05048   0.61303   0.00000  Uiso   1.00
O512   O     0.12349   0.28287   0.38696   0.00000  Uiso   1.00
O513   O     0.22679   0.12709   0.50000   0.00000  Uiso   1.00
O514   O     0.22679   0.20625   0.50000   0.00000  Uiso   1.00
O515   O     0.10655   0.12709   0.50000   0.00000  Uiso   1.00
O516   O     0.16667   0.20625   0.42946   0.00000  Uiso   1.00
O517   O     0.16667   0.12708   0.57054   0.00000  Uiso   1.00
O518   O     0.16667   0.20625   0.57054   0.00000  Uiso   1.00
O519   O     0.16667   0.12708   0.42946   0.00000  Uiso   1.00
O520   O     0.03950   0.11563   0.61827   0.00000  Uiso   1.00
C521   C     0.42098   0.16661   0.49963   0.00000  Uiso   1.00
C522   C     0.35373   0.17718   0.45580   0.00000  Uiso   1.00
C523   C     0.62378   0.16700   0.50031   0.00000  Uiso   1.00
C524   C     0.37622   0.16634   0.49969   0.00000  Uiso   1.00
C525   C     0.47622   0.02468   0.46621   0.00000  Uiso   1.00
C526   C     0.52378   0.30866   0.53379   0.00000  Uiso   1.00
C527   C     0.52379   0.02482   0.53376   0.00000  Uiso   1.00
C528   C     0.47621   0.30851   0.46624   0.00000  Uiso   1.00
C529   C     0.38200   0.14601   0.58941   0.00000  Uiso   1.00
C530   C     0.61800   0.18734   0.41059   0.00000  Uiso   1.00
C531   C     0.62433   0.14866   0.59096   0.00000  Uiso   1.00
C532   C     0.57902   0.16673   0.50037   0.00000  Uiso   1.00
C533   C     0.37567   0.18466   0.40904   0.00000  Uiso   1.00
C534   C     0.44921   0.04935   0.43017   0.00000  Uiso   1.00
C535   C     0.55079   0.28398   0.56983   0.00000  Uiso   1.00
C536   C     0.55116   0.04963   0.56940   0.00000  Uiso   1.00
C537   C     0.44885   0.28370   0.43060   0.00000  Uiso   1.00
C538   C     0.49996   0.16665   0.40700   0.00000  Uiso   1.00
C539   C     0.50004   0.16668   0.59300   0.00000  Uiso   1.00
C540   C     0.49999   0.16664   0.35522   0.00000  Uiso   1.00
C541   C     0.50001   0.16669   0.64478   0.00000  Uiso   1.00
C542   C     0.35642   0.15527   0.54375   0.00000  Uiso   1.00
C543   C     0.64358   0.17806   0.45625   0.00000  Uiso   1.00
C544   C     0.64627   0.15616   0.54420   0.00000  Uiso   1.00
Cu545  Cu    0.50000   0.21355   0.50000   0.00000  Uiso   1.00
Cu546  Cu    0.50000   0.11978   0.50000   0.00000  Uiso   1.00
H547   H     0.41032   0.16539   0.59657   0.00000  Uiso   1.00
H548   H     0.58970   0.16793   0.40341   0.00000  Uiso   1.00
H549   H     0.63186   0.11946   0.61450   0.00000  Uiso   1.00
H550   H     0.36812   0.21385   0.38548   0.00000  Uiso   1.00
H551   H     0.42163   0.06681   0.44195   0.00000  Uiso   1.00
H552   H     0.57837   0.26652   0.55805   0.00000  Uiso   1.00
H553   H     0.57920   0.06598   0.55731   0.00000  Uiso   1.00
H554   H     0.42081   0.26734   0.44269   0.00000  Uiso   1.00
N555   N     0.50000   0.28402   0.50000   0.00000  Uiso   1.00
N556   N     0.50000   0.04931   0.50000   0.00000  Uiso   1.00
O557   O     0.43988   0.20625   0.50000   0.00000  Uiso   1.00
O558   O     0.62715   0.21775   0.38176   0.00000  Uiso   1.00
O559   O     0.59772   0.17563   0.60383   0.00000  Uiso   1.00
O560   O     0.40230   0.15771   0.39618   0.00000  Uiso   1.00
O561   O     0.45706   0.04903   0.38649   0.00000  Uiso   1.00
O562   O     0.54294   0.28431   0.61351   0.00000  Uiso   1.00
O563   O     0.54318   0.05048   0.61303   0.00000  Uiso   1.00
O564   O     0.45682   0.28287   0.38696   0.00000  Uiso   1.00
O565   O     0.56012   0.12709   0.50000   0.00000  Uiso   1.00
O566   O     0.56012   0.20625   0.50000   0.00000  Uiso   1.00
O567   O     0.43988   0.12709   0.50000   0.00000  Uiso   1.00
O568   O     0.50000   0.20625   0.42946   0.00000  Uiso   1.00
O569   O     0.50000   0.12708   0.57054   0.00000  Uiso   1.00
O570   O     0.50000   0.20625   0.57054   0.00000  Uiso   1.00
O571   O     0.50000   0.12708   0.42946   0.00000  Uiso   1.00
O572   O     0.37283   0.11563   0.61827   0.00000  Uiso   1.00
C573   C     0.75431   0.16661   0.49963   0.00000  Uiso   1.00
C574   C     0.68706   0.17718   0.45580   0.00000  Uiso   1.00
C575   C     0.95712   0.16700   0.50031   0.00000  Uiso   1.00
C576   C     0.70955   0.16634   0.49969   0.00000  Uiso   1.00
C577   C     0.80955   0.02468   0.46621   0.00000  Uiso   1.00
C578   C     0.85711   0.30866   0.53379   0.00000  Uiso   1.00
C579   C     0.85713   0.02482   0.53376   0.00000  Uiso   1.00
C580   C     0.80954   0.30851   0.46624   0.00000  Uiso   1.00
C581   C     0.71533   0.14601   0.58941   0.00000  Uiso   1.00
C582   C     0.95133   0.18734   0.41059   0.00000  Uiso   1.00
C583   C     0.95766   0.14866   0.59096   0.00000  Uiso   1.00
C584   C     0.91235   0.16673   0.50037   0.00000  Uiso   1.00
C585   C     0.70900   0.18466   0.40904   0.00000  Uiso   1.00
C586   C     0.78255   0.04935   0.43017   0.00000  Uiso   1.00
C587   C     0.88412   0.28398   0.56983   0.00000  Uiso   1.00
C588   C     0.88449   0.04963   0.56940   0.00000  Uiso   1.00
C589   C     0.78218   0.28370   0.43060   0.00000  Uiso   1.00
C590   C     0.83329   0.16665   0.40700   0.00000  Uiso   1.00
C591   C     0.83338   0.16668   0.59300   0.00000  Uiso   1.00
C592   C     0.83332   0.16664   0.35522   0.00000  Uiso   1.00
C593   C     0.83335   0.16669   0.64478   0.00000  Uiso   1.00
C594   C     0.68975   0.15527   0.54375   0.00000  Uiso   1.00
C595   C     0.97692   0.17806   0.45625   0.00000  Uiso   1.00
C596   C     0.97961   0.15616   0.54420   0.00000  Uiso   1.00
Cu597  Cu    0.83333   0.21355   0.50000   0.00000  Uiso   1.00
Cu598  Cu    0.83333   0.11978   0.50000   0.00000  Uiso   1.00
H599   H     0.74365   0.16539   0.59657   0.00000  Uiso   1.00
H600   H     0.92303   0.16793   0.40341   0.00000  Uiso   1.00
H601   H     0.96519   0.11946   0.61450   0.00000  Uiso   1.00
H602   H     0.70145   0.21385   0.38548   0.00000  Uiso   1.00
H603   H     0.75496   0.06681   0.44195   0.00000  Uiso   1.00
H604   H     0.91170   0.26652   0.55805   0.00000  Uiso   1.00
H605   H     0.91253   0.06598   0.55731   0.00000  Uiso   1.00
H606   H     0.75414   0.26734   0.44269   0.00000  Uiso   1.00
N607   N     0.83333   0.28402   0.50000   0.00000  Uiso   1.00
N608   N     0.83333   0.04931   0.50000   0.00000  Uiso   1.00
O609   O     0.77321   0.20625   0.50000   0.00000  Uiso   1.00
O610   O     0.96048   0.21775   0.38176   0.00000  Uiso   1.00
O611   O     0.93105   0.17563   0.60383   0.00000  Uiso   1.00
O612   O     0.73563   0.15771   0.39618   0.00000  Uiso   1.00
O613   O     0.79039   0.04903   0.38649   0.00000  Uiso   1.00
O614   O     0.87628   0.28431   0.61351   0.00000  Uiso   1.00
O615   O     0.87651   0.05048   0.61303   0.00000  Uiso   1.00
O616   O     0.79016   0.28287   0.38696   0.00000  Uiso   1.00
O617   O     0.89345   0.12709   0.50000   0.00000  Uiso   1.00
O618   O     0.89345   0.20625   0.50000   0.00000  Uiso   1.00
O619   O     0.77321   0.12709   0.50000   0.00000  Uiso   1.00
O620   O     0.83333   0.20625   0.42946   0.00000  Uiso   1.00
O621   O     0.83333   0.12708   0.57054   0.00000  Uiso   1.00
O622   O     0.83333   0.20625   0.57054   0.00000  Uiso   1.00
O623   O     0.83333   0.12708   0.42946   0.00000  Uiso   1.00
O624   O     0.70617   0.11563   0.61827   0.00000  Uiso   1.00
C625   C     0.08765   0.49994   0.49963   0.00000  Uiso   1.00
C626   C     0.02039   0.51051   0.45580   0.00000  Uiso   1.00
C627   C     0.29045   0.50033   0.50031   0.00000  Uiso   1.00
C628   C     0.04289   0.49967   0.49969   0.00000  Uiso   1.00
C629   C     0.14289   0.35801   0.46621   0.00000  Uiso   1.00
C630   C     0.19045   0.64199   0.53379   0.00000  Uiso   1.00
C631   C     0.19046   0.35815   0.53376   0.00000  Uiso   1.00
C632   C     0.14287   0.64185   0.46624   0.00000  Uiso   1.00
C633   C     0.04867   0.47934   0.58941   0.00000  Uiso   1.00
C634   C     0.28467   0.52067   0.41059   0.00000  Uiso   1.00
C635   C     0.29100   0.48200   0.59096   0.00000  Uiso   1.00
C636   C     0.24569   0.50006   0.50037   0.00000  Uiso   1.00
C637   C     0.04233   0.51800   0.40904   0.00000  Uiso   1.00
C638   C     0.11588   0.38268   0.43017   0.00000  Uiso   1.00
C639   C     0.21745   0.61732   0.56983   0.00000  Uiso   1.00
C640   C     0.21782   0.38297   0.56940   0.00000  Uiso   1.00
C641   C     0.11551   0.61703   0.43060   0.00000  Uiso   1.00
C642   C     0.16662   0.49998   0.40700   0.00000  Uiso   1.00
C643   C     0.16671   0.50002   0.59300   0.00000  Uiso   1.00
C644   C     0.16666   0.49998   0.35522   0.00000  Uiso   1.00
C645   C     0.16668   0.50002   0.64478   0.00000  Uiso   1.00
C646   C     0.02308   0.48861   0.54375   0.00000  Uiso   1.00
C647   C     0.31025   0.51140   0.45625   0.00000  Uiso   1.00
C648   C     0.31294   0.48949   0.54420   0.00000  Uiso   1.00
Cu649  Cu    0.16667   0.54689   0.50000   0.00000  Uiso   1.00
Cu650  Cu    0.16667   0.45311   0.50000   0.00000  Uiso   1.00
H651   H     0.07698   0.49873   0.59657   0.00000  Uiso   1.00
H652   H     0.25637   0.50126   0.40341   0.00000  Uiso   1.00
H653   H     0.29853   0.45279   0.61450   0.00000  Uiso   1.00
H654   H     0.03479   0.54719   0.38548   0.00000  Uiso   1.00
H655   H     0.08830   0.40015   0.44195   0.00000  Uiso   1.00
H656   H     0.24503   0.59985   0.55805   0.00000  Uiso   1.00
H657   H     0.24586   0.39932   0.55731   0.00000  Uiso   1.00
H658   H     0.08748   0.60067   0.44269   0.00000  Uiso   1.00
N659   N     0.16667   0.61736   0.50000   0.00000  Uiso   1.00
N660   N     0.16667   0.38264   0.50000   0.00000  Uiso   1.00
O661   O     0.10655   0.53958   0.50000   0.00000  Uiso   1.00
O662   O     0.29382   0.55109   0.38176   0.00000  Uiso   1.00
O663   O     0.26438   0.50896   0.60383   0.00000  Uiso   1.00
O664   O     0.06896   0.49104   0.39618   0.00000  Uiso   1.00
O665   O     0.12372   0.38236   0.38649   0.00000  Uiso   1.00
O666   O     0.20961   0.61765   0.61351   0.00000  Uiso   1.00
O667   O     0.20985   0.38381   0.61303   0.00000  Uiso   1.00
O668   O     0.12349   0.61620   0.38696   0.00000  Uiso   1.00
O669   O     0.22679   0.46042   0.50000   0.00000  Uiso   1.00
O670   O     0.22679   0.53958   0.50000   0.00000  Uiso   1.00
O671   O     0.10655   0.46042   0.50000   0.00000  Uiso   1.00
O672   O     0.16667   0.53959   0.42946   0.00000  Uiso   1.00
O673   O     0.16667   0.46041   0.57054   0.00000  Uiso   1.00
O674   O     0.16667   0.53959   0.57054   0.00000  Uiso   1.00
O675   O     0.16667   0.46041   0.42946   0.00000  Uiso   1.00
O676   O     0.03950   0.44896   0.61827   0.00000  Uiso   1.00
C677   C     0.42098   0.49994   0.49963   0.00000  Uiso   1.00
C678   C     0.35373   0.51051   0.45580   0.00000  Uiso   1.00
C679   C     0.62378   0.50033   0.50031   0.00000  Uiso   1.00
C680   C     0.37622   0.49967   0.49969   0.00000  Uiso   1.00
C681   C     0.47622   0.35801   0.46621   0.00000  Uiso   1.00
C682   C     0.52378   0.64199   0.53379   0.00000  Uiso   1.00
C683   C     0.52379   0.35815   0.53376   0.00000  Uiso   1.00
C684   C     0.47621   0.64185   0.46624   0.00000  Uiso   1.00
C685   C     0.38200   0.47934   0.58941   0.00000  Uiso   1.00
C686   C     0.61800   0.52067   0.41059   0.00000  Uiso   1.00
C687   C     0.62433   0.48200   0.59096   0.00000  Uiso   1.00
C688   C     0.57902   0.50006   0.50037   0.00000  Uiso   1.00
C689   C     0.37567   0.51800   0.40904   0.00000  Uiso   1.00
C690   C     0.44921   0.38268   0.43017   0.00000  Uiso   1.00
C691   C     0.55079   0.61732   0.56983   0.00000  Uiso   1.00
C692   C     0.55116   0.38297   0.56940   0.00000  Uiso   1.00
C693   C     0.44885   0.61703   0.43060   0.00000  Uiso   1.00
C694   C     0.49996   0.49998   0.40700   0.00000  Uiso   1.00
C695   C     0.50004   0.50002   0.59300   0.00000  Uiso   1.00
C696   C     0.49999   0.49998   0.35522   0.00000  Uiso   1.00
C697   C     0.50001   0.50002   0.64478   0.00000  Uiso   1.00
C698   C     0.35642   0.48861   0.54375   0.00000  Uiso   1.00
C699   C     0.64358   0.51140   0.45625   0.00000  Uiso   1.00
C700   C     0.64627   0.48949   0.54420   0.00000  Uiso   1.00
Cu701  Cu    0.50000   0.54689   0.50000   0.00000  Uiso   1.00
Cu702  Cu    0.50000   0.45311   0.50000   0.00000  Uiso   1.00
H703   H     0.41032   0.49873   0.59657   0.00000  Uiso   1.00
H704   H     0.58970   0.50126   0.40341   0.00000  Uiso   1.00
H705   H     0.63186   0.45279   0.61450   0.00000  Uiso   1.00
H706   H     0.36812   0.54719   0.38548   0.00000  Uiso   1.00
H707   H     0.42163   0.40015   0.44195   0.00000  Uiso   1.00
H708   H     0.57837   0.59985   0.55805   0.00000  Uiso   1.00
H709   H     0.57920   0.39932   0.55731   0.00000  Uiso   1.00
H710   H     0.42081   0.60067   0.44269   0.00000  Uiso   1.00
N711   N     0.50000   0.61736   0.50000   0.00000  Uiso   1.00
N712   N     0.50000   0.38264   0.50000   0.00000  Uiso   1.00
O713   O     0.43988   0.53958   0.50000   0.00000  Uiso   1.00
O714   O     0.62715   0.55109   0.38176   0.00000  Uiso   1.00
O715   O     0.59772   0.50896   0.60383   0.00000  Uiso   1.00
O716   O     0.40230   0.49104   0.39618   0.00000  Uiso   1.00
O717   O     0.45706   0.38236   0.38649   0.00000  Uiso   1.00
O718   O     0.54294   0.61765   0.61351   0.00000  Uiso   1.00
O719   O     0.54318   0.38381   0.61303   0.00000  Uiso   1.00
O720   O     0.45682   0.61620   0.38696   0.00000  Uiso   1.00
O721   O     0.56012   0.46042   0.50000   0.00000  Uiso   1.00
O722   O     0.56012   0.53958   0.50000   0.00000  Uiso   1.00
O723   O     0.43988   0.46042   0.50000   0.00000  Uiso   1.00
O724   O     0.50000   0.53959   0.42946   0.00000  Uiso   1.00
O725   O     0.50000   0.46041   0.57054   0.00000  Uiso   1.00
O726   O     0.50000   0.53959   0.57054   0.00000  Uiso   1.00
O727   O     0.50000   0.46041   0.42946   0.00000  Uiso   1.00
O728   O     0.37283   0.44896   0.61827   0.00000  Uiso   1.00
C729   C     0.75431   0.49994   0.49963   0.00000  Uiso   1.00
C730   C     0.68706   0.51051   0.45580   0.00000  Uiso   1.00
C731   C     0.95712   0.50033   0.50031   0.00000  Uiso   1.00
C732   C     0.70955   0.49967   0.49969   0.00000  Uiso   1.00
C733   C     0.80955   0.35801   0.46621   0.00000  Uiso   1.00
C734   C     0.85711   0.64199   0.53379   0.00000  Uiso   1.00
C735   C     0.85713   0.35815   0.53376   0.00000  Uiso   1.00
C736   C     0.80954   0.64185   0.46624   0.00000  Uiso   1.00
C737   C     0.71533   0.47934   0.58941   0.00000  Uiso   1.00
C738   C     0.95133   0.52067   0.41059   0.00000  Uiso   1.00
C739   C     0.95766   0.48200   0.59096   0.00000  Uiso   1.00
C740   C     0.91235   0.50006   0.50037   0.00000  Uiso   1.00
C741   C     0.70900   0.51800   0.40904   0.00000  Uiso   1.00
C742   C     0.78255   0.38268   0.43017   0.00000  Uiso   1.00
C743   C     0.88412   0.61732   0.56983   0.00000  Uiso   1.00
C744   C     0.88449   0.38297   0.56940   0.00000  Uiso   1.00
C745   C     0.78218   0.61703   0.43060   0.00000  Uiso   1.00
C746   C     0.83329   0.49998   0.40700   0.00000  Uiso   1.00
C747   C     0.83338   0.50002   0.59300   0.00000  Uiso   1.00
C748   C     0.83332   0.49998   0.35522   0.00000  Uiso   1.00
C749   C     0.83335   0.50002   0.64478   0.00000  Uiso   1.00
C750   C     0.68975   0.48861   0.54375   0.00000  Uiso   1.00
C751   C     0.97692   0.51140   0.45625   0.00000  Uiso   1.00
C752   C     0.97961   0.48949   0.54420   0.00000  Uiso   1.00
Cu753  Cu    0.83333   0.54689   0.50000   0.00000  Uiso   1.00
Cu754  Cu    0.83333   0.45311   0.50000   0.00000  Uiso   1.00
H755   H     0.74365   0.49873   0.59657   0.00000  Uiso   1.00
H756   H     0.92303   0.50126   0.40341   0.00000  Uiso   1.00
H757   H     0.96519   0.45279   0.61450   0.00000  Uiso   1.00
H758   H     0.70145   0.54719   0.38548   0.00000  Uiso   1.00
H759   H     0.75496   0.40015   0.44195   0.00000  Uiso   1.00
H760   H     0.91170   0.59985   0.55805   0.00000  Uiso   1.00
H761   H     0.91253   0.39932   0.55731   0.00000  Uiso   1.00
H762   H     0.75414   0.60067   0.44269   0.00000  Uiso   1.00
N763   N     0.83333   0.61736   0.50000   0.00000  Uiso   1.00
N764   N     0.83333   0.38264   0.50000   0.00000  Uiso   1.00
O765   O     0.77321   0.53958   0.50000   0.00000  Uiso   1.00
O766   O     0.96048   0.55109   0.38176   0.00000  Uiso   1.00
O767   O     0.93105   0.50896   0.60383   0.00000  Uiso   1.00
O768   O     0.73563   0.49104   0.39618   0.00000  Uiso   1.00
O769   O     0.79039   0.38236   0.38649   0.00000  Uiso   1.00
O770   O     0.87628   0.61765   0.61351   0.00000  Uiso   1.00
O771   O     0.87651   0.38381   0.61303   0.00000  Uiso   1.00
O772   O     0.79016   0.61620   0.38696   0.00000  Uiso   1.00
O773   O     0.89345   0.46042   0.50000   0.00000  Uiso   1.00
O774   O     0.89345   0.53958   0.50000   0.00000  Uiso   1.00
O775   O     0.77321   0.46042   0.50000   0.00000  Uiso   1.00
O776   O     0.83333   0.53959   0.42946   0.00000  Uiso   1.00
O777   O     0.83333   0.46041   0.57054   0.00000  Uiso   1.00
O778   O     0.83333   0.53959   0.57054   0.00000  Uiso   1.00
O779   O     0.83333   0.46041   0.42946   0.00000  Uiso   1.00
O780   O     0.70617   0.44896   0.61827   0.00000  Uiso   1.00
C781   C     0.08765   0.83327   0.49963   0.00000  Uiso   1.00
C782   C     0.02039   0.84384   0.45580   0.00000  Uiso   1.00
C783   C     0.29045   0.83366   0.50031   0.00000  Uiso   1.00
C784   C     0.04289   0.83300   0.49969   0.00000  Uiso   1.00
C785   C     0.14289   0.69134   0.46621   0.00000  Uiso   1.00
C786   C     0.19045   0.97532   0.53379   0.00000  Uiso   1.00
C787   C     0.19046   0.69149   0.53376   0.00000  Uiso   1.00
C788   C     0.14287   0.97518   0.46624   0.00000  Uiso   1.00
C789   C     0.04867   0.81268   0.58941   0.00000  Uiso   1.00
C790   C     0.28467   0.85400   0.41059   0.00000  Uiso   1.00
C791   C     0.29100   0.81533   0.59096   0.00000  Uiso   1.00
C792   C     0.24569   0.83339   0.50037   0.00000  Uiso   1.00
C793   C     0.04233   0.85133   0.40904   0.00000  Uiso   1.00
C794   C     0.11588   0.71602   0.43017   0.00000  Uiso   1.00
C795   C     0.21745   0.95065   0.56983   0.00000  Uiso   1.00
C796   C     0.21782   0.71630   0.56940   0.00000  Uiso   1.00
C797   C     0.11551   0.95036   0.43060   0.00000  Uiso   1.00
C798   C     0.16662   0.83332   0.40700   0.00000  Uiso   1.00
C799   C     0.16671   0.83335   0.59300   0.00000  Uiso   1.00
C800   C     0.16666   0.83331   0.35522   0.00000  Uiso   1.00
C801   C     0.16668   0.83336   0.64478   0.00000  Uiso   1.00
C802   C     0.02308   0.82194   0.54375   0.00000  Uiso   1.00
C803   C     0.31025   0.84473   0.45625   0.00000  Uiso   1.00
C804   C     0.31294   0.82282   0.54420   0.00000  Uiso   1.00
Cu805  Cu    0.16667   0.88022   0.50000   0.00000  Uiso   1.00
Cu806  Cu    0.16667   0.78645   0.50000   0.00000  Uiso   1.00
H807   H     0.07698   0.83206   0.59657   0.00000  Uiso   1.00
H808   H     0.25637   0.83460   0.40341   0.00000  Uiso   1.00
H809   H     0.29853   0.78612   0.61450   0.00000  Uiso   1.00
H810   H     0.03479   0.88052   0.38548   0.00000  Uiso   1.00
H811   H     0.08830   0.73348   0.44195   0.00000  Uiso   1.00
H812   H     0.24503   0.93318   0.55805   0.00000  Uiso   1.00
H813   H     0.24586   0.73265   0.55731   0.00000  Uiso   1.00
H814   H     0.08748   0.93401   0.44269   0.00000  Uiso   1.00
N815   N     0.16667   0.95069   0.50000   0.00000  Uiso   1.00
N816   N     0.16667   0.71598   0.50000   0.00000  Uiso   1.00
O817   O     0.10655   0.87291   0.50000   0.00000  Uiso   1.00
O818   O     0.29382   0.88442   0.38176   0.00000  Uiso   1.00
O819   O     0.26438   0.84229   0.60383   0.00000  Uiso   1.00
O820   O     0.06896   0.82438   0.39618   0.00000  Uiso   1.00
O821   O     0.12372   0.71569   0.38649   0.00000  Uiso   1.00
O822   O     0.20961   0.95098   0.61351   0.00000  Uiso   1.00
O823   O     0.20985   0.71714   0.61303   0.00000  Uiso   1.00
O824   O     0.12349   0.94953   0.38696   0.00000  Uiso   1.00
O825   O     0.22679   0.79375   0.50000   0.00000  Uiso   1.00
O826   O     0.22679   0.87291   0.50000   0.00000  Uiso   1.00
O827   O     0.10655   0.79375   0.50000   0.00000  Uiso   1.00
O828   O     0.16667   0.87292   0.42946   0.00000  Uiso   1.00
O829   O     0.16667   0.79375   0.57054   0.00000  Uiso   1.00
O830   O     0.16667   0.87292   0.57054   0.00000  Uiso   1.00
O831   O     0.16667   0.79375   0.42946   0.00000  Uiso   1.00
O832   O     0.03950   0.78229   0.61827   0.00000  Uiso   1.00
C833   C     0.42098   0.83327   0.49963   0.00000  Uiso   1.00
C834   C     0.35373   0.84384   0.45580   0.00000  Uiso   1.00
C835   C     0.62378   0.83366   0.50031   0.00000  Uiso   1.00
C836   C     0.37622   0.83300   0.49969   0.00000  Uiso   1.00
C837   C     0.47622   0.69134   0.46621   0.00000  Uiso   1.00
C838   C     0.52378   0.97532   0.53379   0.00000  Uiso   1.00
C839   C     0.52379   0.69149   0.53376   0.00000  Uiso   1.00
C840   C     0.47621   0.97518   0.46624   0.00000  Uiso   1.00
C841   C     0.38200   0.81268   0.58941   0.00000  Uiso   1.00
C842   C     0.61800   0.85400   0.41059   0.00000  Uiso   1.00
C843   C     0.62433   0.81533   0.59096   0.00000  Uiso   1.00
C844   C     0.57902   0.83339   0.50037   0.00000  Uiso   1.00
C845   C     0.37567   0.85133   0.40904   0.00000  Uiso   1.00
C846   C     0.44921   0.71602   0.43017   0.00000  Uiso   1.00
C847   C     0.55079   0.95065   0.56983   0.00000  Uiso   1.00
C848   C     0.55116   0.71630   0.56940   0.00000  Uiso   1.00
C849   C     0.44885   0.95036   0.43060   0.00000  Uiso   1.00
C850   C     0.49996   0.83332   0.40700   0.00000  Uiso   1.00
C851   C     0.50004   0.83335   0.59300   0.00000  Uiso   1.00
C852   C     0.49999   0.83331   0.35522   0.00000  Uiso   1.00
C853   C     0.50001   0.83336   0.64478   0.00000  Uiso   1.00
C854   C     0.35642   0.82194   0.54375   0.00000  Uiso   1.00
C855   C     0.64358   0.84473   0.45625   0.00000  Uiso   1.00
C856   C     0.64627   0.82282   0.54420   0.00000  Uiso   1.00
Cu857  Cu    0.50000   0.88022   0.50000   0.00000  Uiso   1.00
Cu858  Cu    0.50000   0.78645   0.50000   0.00000  Uiso   1.00
H859   H     0.41032   0.83206   0.59657   0.00000  Uiso   1.00
H860   H     0.58970   0.83460   0.40341   0.00000  Uiso   1.00
H861   H     0.63186   0.78612   0.61450   0.00000  Uiso   1.00
H862   H     0.36812   0.88052   0.38548   0.00000  Uiso   1.00
H863   H     0.42163   0.73348   0.44195   0.00000  Uiso   1.00
H864   H     0.57837   0.93318   0.55805   0.00000  Uiso   1.00
H865   H     0.57920   0.73265   0.55731   0.00000  Uiso   1.00
H866   H     0.42081   0.93401   0.44269   0.00000  Uiso   1.00
N867   N     0.50000   0.95069   0.50000   0.00000  Uiso   1.00
N868   N     0.50000   0.71598   0.50000   0.00000  Uiso   1.00
O869   O     0.43988   0.87291   0.50000   0.00000  Uiso   1.00
O870   O     0.62715   0.88442   0.38176   0.00000  Uiso   1.00
O871   O     0.59772   0.84229   0.60383   0.00000  Uiso   1.00
O872   O     0.40230   0.82438   0.39618   0.00000  Uiso   1.00
O873   O     0.45706   0.71569   0.38649   0.00000  Uiso   1.00
O874   O     0.54294   0.95098   0.61351   0.00000  Uiso   1.00
O875   O     0.54318   0.71714   0.61303   0.00000  Uiso   1.00
O876   O     0.45682   0.94953   0.38696   0.00000  Uiso   1.00
O877   O     0.56012   0.79375   0.50000   0.00000  Uiso   1.00
O878   O     0.56012   0.87291   0.50000   0.00000  Uiso   1.00
O879   O     0.43988   0.79375   0.50000   0.00000  Uiso   1.00
O880   O     0.50000   0.87292   0.42946   0.00000  Uiso   1.00
O881   O     0.50000   0.79375   0.57054   0.00000  Uiso   1.00
O882   O     0.50000   0.87292   0.57054   0.00000  Uiso   1.00
O883   O     0.50000   0.79375   0.42946   0.00000  Uiso   1.00
O884   O     0.37283   0.78229   0.61827   0.00000  Uiso   1.00
C885   C     0.75431   0.83327   0.49963   0.00000  Uiso   1.00
C886   C     0.68706   0.84384   0.45580   0.00000  Uiso   1.00
C887   C     0.95712   0.83366   0.50031   0.00000  Uiso   1.00
C888   C     0.70955   0.83300   0.49969   0.00000  Uiso   1.00
C889   C     0.80955   0.69134   0.46621   0.00000  Uiso   1.00
C890   C     0.85711   0.97532   0.53379   0.00000  Uiso   1.00
C891   C     0.85713   0.69149   0.53376   0.00000  Uiso   1.00
C892   C     0.80954   0.97518   0.46624   0.00000  Uiso   1.00
C893   C     0.71533   0.81268   0.58941   0.00000  Uiso   1.00
C894   C     0.95133   0.85400   0.41059   0.00000  Uiso   1.00
C895   C     0.95766   0.81533   0.59096   0.00000  Uiso   1.00
C896   C     0.91235   0.83339   0.50037   0.00000  Uiso   1.00
C897   C     0.70900   0.85133   0.40904   0.00000  Uiso   1.00
C898   C     0.78255   0.71602   0.43017   0.00000  Uiso   1.00
C899   C     0.88412   0.95065   0.56983   0.00000  Uiso   1.00
C900   C     0.88449   0.71630   0.56940   0.00000  Uiso   1.00
C901   C     0.78218   0.95036   0.43060   0.00000  Uiso   1.00
C902   C     0.83329   0.83332   0.40700   0.00000  Uiso   1.00
C903   C     0.83338   0.83335   0.59300   0.00000  Uiso   1.00
C904   C     0.83332   0.83331   0.35522   0.00000  Uiso   1.00
C905   C     0.83335   0.83336   0.64478   0.00000  Uiso   1.00
C906   C     0.68975   0.82194   0.54375   0.00000  Uiso   1.00
C907   C     0.97692   0.84473   0.45625   0.00000  Uiso   1.00
C908   C     0.97961   0.82282   0.54420   0.00000  Uiso   1.00
Cu909  Cu    0.83333   0.88022   0.50000   0.00000  Uiso   1.00
Cu910  Cu    0.83333   0.78645   0.50000   0.00000  Uiso   1.00
H911   H     0.74365   0.83206   0.59657   0.00000  Uiso   1.00
H912   H     0.92303   0.83460   0.40341   0.00000  Uiso   1.00
H913   H     0.96519   0.78612   0.61450   0.00000  Uiso   1.00
H914   H     0.70145   0.88052   0.38548   0.00000  Uiso   1.00
H915   H     0.75496   0.73348   0.44195   0.00000  Uiso   1.00
H916   H     0.91170   0.93318   0.55805   0.00000  Uiso   1.00
H917   H     0.91253   0.73265   0.55731   0.00000  Uiso   1.00
H918   H     0.75414   0.93401   0.44269   0.00000  Uiso   1.00
N919   N     0.83333   0.95069   0.50000   0.00000  Uiso   1.00
N920   N     0.83333   0.71598   0.50000   0.00000  Uiso   1.00
O921   O     0.77321   0.87291   0.50000   0.00000  Uiso   1.00
O922   O     0.96048   0.88442   0.38176   0.00000  Uiso   1.00
O923   O     0.93105   0.84229   0.60383   0.00000  Uiso   1.00
O924   O     0.73563   0.82438   0.39618   0.00000  Uiso   1.00
O925   O     0.79039   0.71569   0.38649   0.00000  Uiso   1.00
O926   O     0.87628   0.95098   0.61351   0.00000  Uiso   1.00
O927   O     0.87651   0.71714   0.61303   0.00000  Uiso   1.00
O928   O     0.79016   0.94953   0.38696   0.00000  Uiso   1.00
O929   O     0.89345   0.79375   0.50000   0.00000  Uiso   1.00
O930   O     0.89345   0.87291   0.50000   0.00000  Uiso   1.00
O931   O     0.77321   0.79375   0.50000   0.00000  Uiso   1.00
O932   O     0.83333   0.87292   0.42946   0.00000  Uiso   1.00
O933   O     0.83333   0.79375   0.57054   0.00000  Uiso   1.00
O934   O     0.83333   0.87292   0.57054   0.00000  Uiso   1.00
O935   O     0.83333   0.79375   0.42946   0.00000  Uiso   1.00
O936   O     0.70617   0.78229   0.61827   0.00000  Uiso   1.00
C937   C     0.08765   0.16661   0.83296   0.00000  Uiso   1.00
C938   C     0.02039   0.17718   0.78913   0.00000  Uiso   1.00
C939   C     0.29045   0.16700   0.83364   0.00000  Uiso   1.00
C940   C     0.04289   0.16634   0.83302   0.00000  Uiso   1.00
C941   C     0.14289   0.02468   0.79954   0.00000  Uiso   1.00
C942   C     0.19045   0.30866   0.86712   0.00000  Uiso   1.00
C943   C     0.19046   0.02482   0.86710   0.00000  Uiso   1.00
C944   C     0.14287   0.30851   0.79957   0.00000  Uiso   1.00
C945   C     0.04867   0.14601   0.92275   0.00000  Uiso   1.00
C946   C     0.28467   0.18734   0.74392   0.00000  Uiso   1.00
C947   C     0.29100   0.14866   0.92429   0.00000  Uiso   1.00
C948   C     0.24569   0.16673   0.83371   0.00000  Uiso   1.00
C949   C     0.04233   0.18466   0.74237   0.00000  Uiso   1.00
C950   C     0.11588   0.04935   0.76350   0.00000  Uiso   1.00
C951   C     0.21745   0.28398   0.90316   0.00000  Uiso   1.00
C952   C     0.21782   0.04963   0.90273   0.00000  Uiso   1.00
C953   C     0.11551   0.28370   0.76393   0.00000  Uiso   1.00
C954   C     0.16662   0.16665   0.74033   0.00000  Uiso   1.00
C955   C     0.16671   0.16668   0.92634   0.00000  Uiso   1.00
C956   C     0.16666   0.16664   0.68855   0.00000  Uiso   1.00
C957   C     0.16668   0.16669   0.97812   0.00000  Uiso   1.00
C958   C     0.02308   0.15527   0.87708   0.00000  Uiso   1.00
C959   C     0.31025   0.17806   0.78959   0.00000  Uiso   1.00
C960   C     0.31294   0.15616   0.87754   0.00000  Uiso   1.00
Cu961  Cu    0.16667   0.21355   0.83333   0.00000  Uiso   1.00
Cu962  Cu    0.16667   0.11978   0.83333   0.00000  Uiso   1.00
H963   H     0.07698   0.16539   0.92991   0.00000  Uiso   1.00
H964   H     0.25637   0.16793   0.73674   0.00000  Uiso   1.00
H965   H     0.29853   0.11946   0.94783   0.00000  Uiso   1.00
H966   H     0.03479   0.21385   0.71882   0.00000  Uiso   1.00
H967   H     0.08830   0.06681   0.77528   0.00000  Uiso   1.00
H968   H     0.24503   0.26652   0.89139   0.00000  Uiso   1.00
H969   H     0.24586   0.06598   0.89064   0.00000  Uiso   1.00
H970   H     0.08748   0.26734   0.77602   0.00000  Uiso   1.00
N971   N     0.16667   0.28402   0.83333   0.00000  Uiso   1.00
N972   N     0.16667   0.04931   0.83333   0.00000  Uiso   1.00
O973   O     0.10655   0.20625   0.83333   0.00000  Uiso   1.00
O974   O     0.29382   0.21775   0.71510   0.00000  Uiso   1.00
O975   O     0.26438   0.17563   0.93716   0.00000  Uiso   1.00
O976   O     0.06896   0.15771   0.72951   0.00000  Uiso   1.00
O977   O     0.12372   0.04903   0.71982   0.00000  Uiso   1.00
O978   O     0.20961   0.28431   0.94685   0.00000  Uiso   1.00
O979   O     0.20985   0.05048   0.94636   0.00000  Uiso   1.00
O980   O     0.12349   0.28287   0.72030   0.00000  Uiso   1.00
O981   O     0.22679   0.12709   0.83334   0.00000  Uiso   1.00
O982   O     0.22679   0.20625   0.83334   0.00000  Uiso   1.00
O983   O     0.10655   0.12709   0.83333   0.00000  Uiso   1.00
O984   O     0.16667   0.20625   0.76280   0.00000  Uiso   1.00
O985   O     0.16667   0.12708   0.90387   0.00000  Uiso   1.00
O986   O     0.16667   0.20625   0.90387   0.00000  Uiso   1.00
O987   O     0.16667   0.12708   0.76280   0.00000  Uiso   1.00
O988   O     0.03950   0.11563   0.95161   0.00000  Uiso   1.00
C989   C     0.42098   0.16661   0.83296   0.00000  Uiso   1.00
C990   C     0.35373   0.17718   0.78913   0.00000  Uiso   1.00
C991   C     0.62378   0.16700   0.83364   0.00000  Uiso   1.00
C992   C     0.37622   0.16634   0.83302   0.00000  Uiso   1.00
C993   C     0.47622   0.02468   0.79954   0.00000  Uiso   1.00
C994   C     0.52378   0.30866   0.86712   0.00000  Uiso   1.00
C995   C     0.52379   0.02482   0.86710   0.00000  Uiso   1.00
C996   C     0.47621   0.30851   0.79957   0.00000  Uiso   1.00
C997   C     0.38200   0.14601   0.92275   0.00000  Uiso   1.00
C998   C     0.61800   0.18734   0.74392   0.00000  Uiso   1.00
C999   C     0.62433   0.14866   0.92429   0.00000  Uiso   1.00
C1000  C     0.57902   0.16673   0.83371   0.00000  Uiso   1.00
C1001  C     0.37567   0.18466   0.74237   0.00000  Uiso   1.00
C1002  C     0.44921   0.04935   0.76350   0.00000  Uiso   1.00
C1003  C     0.55079   0.28398   0.90316   0.00000  Uiso   1.00
C1004  C     0.55116   0.04963   0.90273   0.00000  Uiso   1.00
C1005  C     0.44885   0.28370   0.76393   0.00000  Uiso   1.00
C1006  C     0.49996   0.16665   0.74033   0.00000  Uiso   1.00
C1007  C     0.50004   0.16668   0.92634   0.00000  Uiso   1.00
C1008  C     0.49999   0.16664   0.68855   0.00000  Uiso   1.00
C1009  C     0.50001   0.16669   0.97812   0.00000  Uiso   1.00
C1010  C     0.35642   0.15527   0.87708   0.00000  Uiso   1.00
C1011  C     0.64358   0.17806   0.78959   0.00000  Uiso   1.00
C1012  C     0.64627   0.15616   0.87754   0.00000  Uiso   1.00
Cu1013 Cu    0.50000   0.21355   0.83333   0.00000  Uiso   1.00
Cu1014 Cu    0.50000   0.11978   0.83333   0.00000  Uiso   1.00
H1015  H     0.41032   0.16539   0.92991   0.00000  Uiso   1.00
H1016  H     0.58970   0.16793   0.73674   0.00000  Uiso   1.00
H1017  H     0.63186   0.11946   0.94783   0.00000  Uiso   1.00
H1018  H     0.36812   0.21385   0.71882   0.00000  Uiso   1.00
H1019  H     0.42163   0.06681   0.77528   0.00000  Uiso   1.00
H1020  H     0.57837   0.26652   0.89139   0.00000  Uiso   1.00
H1021  H     0.57920   0.06598   0.89064   0.00000  Uiso   1.00
H1022  H     0.42081   0.26734   0.77602   0.00000  Uiso   1.00
N1023  N     0.50000   0.28402   0.83333   0.00000  Uiso   1.00
N1024  N     0.50000   0.04931   0.83333   0.00000  Uiso   1.00
O1025  O     0.43988   0.20625   0.83333   0.00000  Uiso   1.00
O1026  O     0.62715   0.21775   0.71510   0.00000  Uiso   1.00
O1027  O     0.59772   0.17563   0.93716   0.00000  Uiso   1.00
O1028  O     0.40230   0.15771   0.72951   0.00000  Uiso   1.00
O1029  O     0.45706   0.04903   0.71982   0.00000  Uiso   1.00
O1030  O     0.54294   0.28431   0.94685   0.00000  Uiso   1.00
O1031  O     0.54318   0.05048   0.94636   0.00000  Uiso   1.00
O1032  O     0.45682   0.28287   0.72030   0.00000  Uiso   1.00
O1033  O     0.56012   0.12709   0.83334   0.00000  Uiso   1.00
O1034  O     0.56012   0.20625   0.83334   0.00000  Uiso   1.00
O1035  O     0.43988   0.12709   0.83333   0.00000  Uiso   1.00
O1036  O     0.50000   0.20625   0.76280   0.00000  Uiso   1.00
O1037  O     0.50000   0.12708   0.90387   0.00000  Uiso   1.00
O1038  O     0.50000   0.20625   0.90387   0.00000  Uiso   1.00
O1039  O     0.50000   0.12708   0.76280   0.00000  Uiso   1.00
O1040  O     0.37283   0.11563   0.95161   0.00000  Uiso   1.00
C1041  C     0.75431   0.16661   0.83296   0.00000  Uiso   1.00
C1042  C     0.68706   0.17718   0.78913   0.00000  Uiso   1.00
C1043  C     0.95712   0.16700   0.83364   0.00000  Uiso   1.00
C1044  C     0.70955   0.16634   0.83302   0.00000  Uiso   1.00
C1045  C     0.80955   0.02468   0.79954   0.00000  Uiso   1.00
C1046  C     0.85711   0.30866   0.86712   0.00000  Uiso   1.00
C1047  C     0.85713   0.02482   0.86710   0.00000  Uiso   1.00
C1048  C     0.80954   0.30851   0.79957   0.00000  Uiso   1.00
C1049  C     0.71533   0.14601   0.92275   0.00000  Uiso   1.00
C1050  C     0.95133   0.18734   0.74392   0.00000  Uiso   1.00
C1051  C     0.95766   0.14866   0.92429   0.00000  Uiso   1.00
C1052  C     0.91235   0.16673   0.83371   0.00000  Uiso   1.00
C1053  C     0.70900   0.18466   0.74237   0.00000  Uiso   1.00
C1054  C     0.78255   0.04935   0.76350   0.00000  Uiso   1.00
C1055  C     0.88412   0.28398   0.90316   0.00000  Uiso   1.00
C1056  C     0.88449   0.04963   0.90273   0.00000  Uiso   1.00
C1057  C     0.78218   0.28370   0.76393   0.00000  Uiso   1.00
C1058  C     0.83329   0.16665   0.74033   0.00000  Uiso   1.00
C1059  C     0.83338   0.16668   0.92634   0.00000  Uiso   1.00
C1060  C     0.83332   0.16664   0.68855   0.00000  Uiso   1.00
C1061  C     0.83335   0.16669   0.97812   0.00000  Uiso   1.00
C1062  C     0.68975   0.15527   0.87708   0.00000  Uiso   1.00
C1063  C     0.97692   0.17806   0.78959   0.00000  Uiso   1.00
C1064  C     0.97961   0.15616   0.87754   0.00000  Uiso   1.00
Cu1065 Cu    0.83333   0.21355   0.83333   0.00000  Uiso   1.00
Cu1066 Cu    0.83333   0.11978   0.83333   0.00000  Uiso   1.00
H1067  H     0.74365   0.16539   0.92991   0.00000  Uiso   1.00
H1068  H     0.92303   0.16793   0.73674   0.00000  Uiso   1.00
H1069  H     0.96519   0.11946   0.94783   0.00000  Uiso   1.00
H1070  H     0.70145   0.21385   0.71882   0.00000  Uiso   1.00
H1071  H     0.75496   0.06681   0.77528   0.00000  Uiso   1.00
H1072  H     0.91170   0.26652   0.89139   0.00000  Uiso   1.00
H1073  H     0.91253   0.06598   0.89064   0.00000  Uiso   1.00
H1074  H     0.75414   0.26734   0.77602   0.00000  Uiso   1.00
N1075  N     0.83333   0.28402   0.83333   0.00000  Uiso   1.00
N1076  N     0.83333   0.04931   0.83333   0.00000  Uiso   1.00
O1077  O     0.77321   0.20625   0.83333   0.00000  Uiso   1.00
O1078  O     0.96048   0.21775   0.71510   0.00000  Uiso   1.00
O1079  O     0.93105   0.17563   0.93716   0.00000  Uiso   1.00
O1080  O     0.73563   0.15771   0.72951   0.00000  Uiso   1.00
O1081  O     0.79039   0.04903   0.71982   0.00000  Uiso   1.00
O1082  O     0.87628   0.28431   0.94685   0.00000  Uiso   1.00
O1083  O     0.87651   0.05048   0.94636   0.00000  Uiso   1.00
O1084  O     0.79016   0.28287   0.72030   0.00000  Uiso   1.00
O1085  O     0.89345   0.12709   0.83334   0.00000  Uiso   1.00
O1086  O     0.89345   0.20625   0.83334   0.00000  Uiso   1.00
O1087  O     0.77321   0.12709   0.83333   0.00000  Uiso   1.00
O1088  O     0.83333   0.20625   0.76280   0.00000  Uiso   1.00
O1089  O     0.83333   0.12708   0.90387   0.00000  Uiso   1.00
O1090  O     0.83333   0.20625   0.90387   0.00000  Uiso   1.00
O1091  O     0.83333   0.12708   0.76280   0.00000  Uiso   1.00
O1092  O     0.70617   0.11563   0.95161   0.00000  Uiso   1.00
C1093  C     0.08765   0.49994   0.83296   0.00000  Uiso   1.00
C1094  C     0.02039   0.51051   0.78913   0.00000  Uiso   1.00
C1095  C     0.29045   0.50033   0.83364   0.00000  Uiso   1.00
C1096  C     0.04289   0.49967   0.83302   0.00000  Uiso   1.00
C1097  C     0.14289   0.35801   0.79954   0.00000  Uiso   1.00
C1098  C     0.19045   0.64199   0.86712   0.00000  Uiso   1.00
C1099  C     0.19046   0.35815   0.86710   0.00000  Uiso   1.00
C1100  C     0.14287   0.64185   0.79957   0.00000  Uiso   1.00
C1101  C     0.04867   0.47934   0.92275   0.00000  Uiso   1.00
C1102  C     0.28467   0.52067   0.74392   0.00000  Uiso   1.00
C1103  C     0.29100   0.48200   0.92429   0.00000  Uiso   1.00
C1104  C     0.24569   0.50006   0.83371   0.00000  Uiso   1.00
C1105  C     0.04233   0.51800   0.74237   0.00000  Uiso   1.00
C1106  C     0.11588   0.38268   0.76350   0.00000  Uiso   1.00
C1107  C     0.21745   0.61732   0.90316   0.00000  Uiso   1.00
C1108  C     0.21782   0.38297   0.90273   0.00000  Uiso   1.00
C1109  C     0.11551   0.61703   0.76393   0.00000  Uiso   1.00
C1110  C     0.16662   0.49998   0.74033   0.00000  Uiso   1.00
C1111  C     0.16671   0.50002   0.92634   0.00000  Uiso   1.00
C1112  C     0.16666   0.49998   0.68855   0.00000  Uiso   1.00
C1113  C     0.16668   0.50002   0.97812   0.00000  Uiso   1.00
C1114  C     0.02308   0.48861   0.87708   0.00000  Uiso   1.00
C1115  C     0.31025   0.51140   0.78959   0.00000  Uiso   1.00
C1116  C     0.31294   0.48949   0.87754   0.00000  Uiso   1.00
Cu1117 Cu    0.16667   0.54689   0.83333   0.00000  Uiso   1.00
Cu1118 Cu    0.16667   0.45311   0.83333   0.00000  Uiso   1.00
H1119  H     0.07698   0.49873   0.92991   0.00000  Uiso   1.00
H1120  H     0.25637   0.50126   0.73674   0.00000  Uiso   1.00
H1121  H     0.29853   0.45279   0.94783   0.00000  Uiso   1.00
H1122  H     0.03479   0.54719   0.71882   0.00000  Uiso   1.00
H1123  H     0.08830   0.40015   0.77528   0.00000  Uiso   1.00
H1124  H     0.24503   0.59985   0.89139   0.00000  Uiso   1.00
H1125  H     0.24586   0.39932   0.89064   0.00000  Uiso   1.00
H1126  H     0.08748   0.60067   0.77602   0.00000  Uiso   1.00
N1127  N     0.16667   0.61736   0.83333   0.00000  Uiso   1.00
N1128  N     0.16667   0.38264   0.83333   0.00000  Uiso   1.00
O1129  O     0.10655   0.53958   0.83333   0.00000  Uiso   1.00
O1130  O     0.29382   0.55109   0.71510   0.00000  Uiso   1.00
O1131  O     0.26438   0.50896   0.93716   0.00000  Uiso   1.00
O1132  O     0.06896   0.49104   0.72951   0.00000  Uiso   1.00
O1133  O     0.12372   0.38236   0.71982   0.00000  Uiso   1.00
O1134  O     0.20961   0.61765   0.94685   0.00000  Uiso   1.00
O1135  O     0.20985   0.38381   0.94636   0.00000  Uiso   1.00
O1136  O     0.12349   0.61620   0.72030   0.00000  Uiso   1.00
O1137  O     0.22679   0.46042   0.83334   0.00000  Uiso   1.00
O1138  O     0.22679   0.53958   0.83334   0.00000  Uiso   1.00
O1139  O     0.10655   0.46042   0.83333   0.00000  Uiso   1.00
O1140  O     0.16667   0.53959   0.76280   0.00000  Uiso   1.00
O1141  O     0.16667   0.46041   0.90387   0.00000  Uiso   1.00
O1142  O     0.16667   0.53959   0.90387   0.00000  Uiso   1.00
O1143  O     0.16667   0.46041   0.76280   0.00000  Uiso   1.00
O1144  O     0.03950   0.44896   0.95161   0.00000  Uiso   1.00
C1145  C     0.42098   0.49994   0.83296   0.00000  Uiso   1.00
C1146  C     0.35373   0.51051   0.78913   0.00000  Uiso   1.00
C1147  C     0.62378   0.50033   0.83364   0.00000  Uiso   1.00
C1148  C     0.37622   0.49967   0.83302   0.00000  Uiso   1.00
C1149  C     0.47622   0.35801   0.79954   0.00000  Uiso   1.00
C1150  C     0.52378   0.64199   0.86712   0.00000  Uiso   1.00
C1151  C     0.52379   0.35815   0.86710   0.00000  Uiso   1.00
C1152  C     0.47621   0.64185   0.79957   0.00000  Uiso   1.00
C1153  C     0.38200   0.47934   0.92275   0.00000  Uiso   1.00
C1154  C     0.61800   0.52067   0.74392   0.00000  Uiso   1.00
C1155  C     0.62433   0.48200   0.92429   0.00000  Uiso   1.00
C1156  C     0.57902   0.50006   0.83371   0.00000  Uiso   1.00
C1157  C     0.37567   0.51800   0.74237   0.00000  Uiso   1.00
C1158  C     0.44921   0.38268   0.76350   0.00000  Uiso   1.00
C1159  C     0.55079   0.61732   0.90316   0.00000  Uiso   1.00
C1160  C     0.55116   0.38297   0.90273   0.00000  Uiso   1.00
C1161  C     0.44885   0.61703   0.76393   0.00000  Uiso   1.00
C1162  C     0.49996   0.49998   0.74033   0.00000  Uiso   1.00
C1163  C     0.50004   0.50002   0.92634   0.00000  Uiso   1.00
C1164  C     0.49999   0.49998   0.68855   0.00000  Uiso   1.00
C1165  C     0.50001   0.50002   0.97812   0.00000  Uiso   1.00
C1166  C     0.35642   0.48861   0.87708   0.00000  Uiso   1.00
C1167  C     0.64358   0.51140   0.78959   0.00000  Uiso   1.00
C1168  C     0.64627   0.48949   0.87754   0.00000  Uiso   1.00
Cu1169 Cu    0.50000   0.54689   0.83333   0.00000  Uiso   1.00
Cu1170 Cu    0.50000   0.45311   0.83333   0.00000  Uiso   1.00
H1171  H     0.41032   0.49873   0.92991   0.00000  Uiso   1.00
H1172  H     0.58970   0.50126   0.73674   0.00000  Uiso   1.00
H1173  H     0.63186   0.45279   0.94783   0.00000  Uiso   1.00
H1174  H     0.36812   0.54719   0.71882   0.00000  Uiso   1.00
H1175  H     0.42163   0.40015   0.77528   0.00000  Uiso   1.00
H1176  H     0.57837   0.59985   0.89139   0.00000  Uiso   1.00
H1177  H     0.57920   0.39932   0.89064   0.00000  Uiso   1.00
H1178  H     0.42081   0.60067   0.77602   0.00000  Uiso   1.00
N1179  N     0.50000   0.61736   0.83333   0.00000  Uiso   1.00
N1180  N     0.50000   0.38264   0.83333   0.00000  Uiso   1.00
O1181  O     0.43988   0.53958   0.83333   0.00000  Uiso   1.00
O1182  O     0.62715   0.55109   0.71510   0.00000  Uiso   1.00
O1183  O     0.59772   0.50896   0.93716   0.00000  Uiso   1.00
O1184  O     0.40230   0.49104   0.72951   0.00000  Uiso   1.00
O1185  O     0.45706   0.38236   0.71982   0.00000  Uiso   1.00
O1186  O     0.54294   0.61765   0.94685   0.00000  Uiso   1.00
O1187  O     0.54318   0.38381   0.94636   0.00000  Uiso   1.00
O1188  O     0.45682   0.61620   0.72030   0.00000  Uiso   1.00
O1189  O     0.56012   0.46042   0.83334   0.00000  Uiso   1.00
O1190  O     0.56012   0.53958   0.83334   0.00000  Uiso   1.00
O1191  O     0.43988   0.46042   0.83333   0.00000  Uiso   1.00
O1192  O     0.50000   0.53959   0.76280   0.00000  Uiso   1.00
O1193  O     0.50000   0.46041   0.90387   0.00000  Uiso   1.00
O1194  O     0.50000   0.53959   0.90387   0.00000  Uiso   1.00
O1195  O     0.50000   0.46041   0.76280   0.00000  Uiso   1.00
O1196  O     0.37283   0.44896   0.95161   0.00000  Uiso   1.00
C1197  C     0.75431   0.49994   0.83296   0.00000  Uiso   1.00
C1198  C     0.68706   0.51051   0.78913   0.00000  Uiso   1.00
C1199  C     0.95712   0.50033   0.83364   0.00000  Uiso   1.00
C1200  C     0.70955   0.49967   0.83302   0.00000  Uiso   1.00
C1201  C     0.80955   0.35801   0.79954   0.00000  Uiso   1.00
C1202  C     0.85711   0.64199   0.86712   0.00000  Uiso   1.00
C1203  C     0.85713   0.35815   0.86710   0.00000  Uiso   1.00
C1204  C     0.80954   0.64185   0.79957   0.00000  Uiso   1.00
C1205  C     0.71533   0.47934   0.92275   0.00000  Uiso   1.00
C1206  C     0.95133   0.52067   0.74392   0.00000  Uiso   1.00
C1207  C     0.95766   0.48200   0.92429   0.00000  Uiso   1.00
C1208  C     0.91235   0.50006   0.83371   0.00000  Uiso   1.00
C1209  C     0.70900   0.51800   0.74237   0.00000  Uiso   1.00
C1210  C     0.78255   0.38268   0.76350   0.00000  Uiso   1.00
C1211  C     0.88412   0.61732   0.90316   0.00000  Uiso   1.00
C1212  C     0.88449   0.38297   0.90273   0.00000  Uiso   1.00
C1213  C     0.78218   0.61703   0.76393   0.00000  Uiso   1.00
C1214  C     0.83329   0.49998   0.74033   0.00000  Uiso   1.00
C1215  C     0.83338   0.50002   0.92634   0.00000  Uiso   1.00
C1216  C     0.83332   0.49998   0.68855   0.00000  Uiso   1.00
C1217  C     0.83335   0.50002   0.97812   0.00000  Uiso   1.00
C1218  C     0.68975   0.48861   0.87708   0.00000  Uiso   1.00
C1219  C     0.97692   0.51140   0.78959   0.00000  Uiso   1.00
C1220  C     0.97961   0.48949   0.87754   0.00000  Uiso   1.00
Cu1221 Cu    0.83333   0.54689   0.83333   0.00000  Uiso   1.00
Cu1222 Cu    0.83333   0.45311   0.83333   0.00000  Uiso   1.00
H1223  H     0.74365   0.49873   0.92991   0.00000  Uiso   1.00
H1224  H     0.92303   0.50126   0.73674   0.00000  Uiso   1.00
H1225  H     0.96519   0.45279   0.94783   0.00000  Uiso   1.00
H1226  H     0.70145   0.54719   0.71882   0.00000  Uiso   1.00
H1227  H     0.75496   0.40015   0.77528   0.00000  Uiso   1.00
H1228  H     0.91170   0.59985   0.89139   0.00000  Uiso   1.00
H1229  H     0.91253   0.39932   0.89064   0.00000  Uiso   1.00
H1230  H     0.75414   0.60067   0.77602   0.00000  Uiso   1.00
N1231  N     0.83333   0.61736   0.83333   0.00000  Uiso   1.00
N1232  N     0.83333   0.38264   0.83333   0.00000  Uiso   1.00
O1233  O     0.77321   0.53958   0.83333   0.00000  Uiso   1.00
O1234  O     0.96048   0.55109   0.71510   0.00000  Uiso   1.00
O1235  O     0.93105   0.50896   0.93716   0.00000  Uiso   1.00
O1236  O     0.73563   0.49104   0.72951   0.00000  Uiso   1.00
O1237  O     0.79039   0.38236   0.71982   0.00000  Uiso   1.00
O1238  O     0.87628   0.61765   0.94685   0.00000  Uiso   1.00
O1239  O     0.87651   0.38381   0.94636   0.00000  Uiso   1.00
O1240  O     0.79016   0.61620   0.72030   0.00000  Uiso   1.00
O1241  O     0.89345   0.46042   0.83334   0.00000  Uiso   1.00
O1242  O     0.89345   0.53958   0.83334   0.00000  Uiso   1.00
O1243  O     0.77321   0.46042   0.83333   0.00000  Uiso   1.00
O1244  O     0.83333   0.53959   0.76280   0.00000  Uiso   1.00
O1245  O     0.83333   0.46041   0.90387   0.00000  Uiso   1.00
O1246  O     0.83333   0.53959   0.90387   0.00000  Uiso   1.00
O1247  O     0.83333   0.46041   0.76280   0.00000  Uiso   1.00
O1248  O     0.70617   0.44896   0.95161   0.00000  Uiso   1.00
C1249  C     0.08765   0.83327   0.83296   0.00000  Uiso   1.00
C1250  C     0.02039   0.84384   0.78913   0.00000  Uiso   1.00
C1251  C     0.29045   0.83366   0.83364   0.00000  Uiso   1.00
C1252  C     0.04289   0.83300   0.83302   0.00000  Uiso   1.00
C1253  C     0.14289   0.69134   0.79954   0.00000  Uiso   1.00
C1254  C     0.19045   0.97532   0.86712   0.00000  Uiso   1.00
C1255  C     0.19046   0.69149   0.86710   0.00000  Uiso   1.00
C1256  C     0.14287   0.97518   0.79957   0.00000  Uiso   1.00
C1257  C     0.04867   0.81268   0.92275   0.00000  Uiso   1.00
C1258  C     0.28467   0.85400   0.74392   0.00000  Uiso   1.00
C1259  C     0.29100   0.81533   0.92429   0.00000  Uiso   1.00
C1260  C     0.24569   0.83339   0.83371   0.00000  Uiso   1.00
C1261  C     0.04233   0.85133   0.74237   0.00000  Uiso   1.00
C1262  C     0.11588   0.71602   0.76350   0.00000  Uiso   1.00
C1263  C     0.21745   0.95065   0.90316   0.00000  Uiso   1.00
C1264  C     0.21782   0.71630   0.90273   0.00000  Uiso   1.00
C1265  C     0.11551   0.95036   0.76393   0.00000  Uiso   1.00
C1266  C     0.16662   0.83332   0.74033   0.00000  Uiso   1.00
C1267  C     0.16671   0.83335   0.92634   0.00000  Uiso   1.00
C1268  C     0.16666   0.83331   0.68855   0.00000  Uiso   1.00
C1269  C     0.16668   0.83336   0.97812   0.00000  Uiso   1.00
C1270  C     0.02308   0.82194   0.87708   0.00000  Uiso   1.00
C1271  C     0.31025   0.84473   0.78959   0.00000  Uiso   1.00
C1272  C     0.31294   0.82282   0.87754   0.00000  Uiso   1.00
Cu1273 Cu    0.16667   0.88022   0.83333   0.00000  Uiso   1.00
Cu1274 Cu    0.16667   0.78645   0.83333   0.00000  Uiso   1.00
H1275  H     0.07698   0.83206   0.92991   0.00000  Uiso   1.00
H1276  H     0.25637   0.83460   0.73674   0.00000  Uiso   1.00
H1277  H     0.29853   0.78612   0.94783   0.00000  Uiso   1.00
H1278  H     0.03479   0.88052   0.71882   0.00000  Uiso   1.00
H1279  H     0.08830   0.73348   0.77528   0.00000  Uiso   1.00
H1280  H     0.24503   0.93318   0.89139   0.00000  Uiso   1.00
H1281  H     0.24586   0.73265   0.89064   0.00000  Uiso   1.00
H1282  H     0.08748   0.93401   0.77602   0.00000  Uiso   1.00
N1283  N     0.16667   0.95069   0.83333   0.00000  Uiso   1.00
N1284  N     0.16667   0.71598   0.83333   0.00000  Uiso   1.00
O1285  O     0.10655   0.87291   0.83333   0.00000  Uiso   1.00
O1286  O     0.29382   0.88442   0.71510   0.00000  Uiso   1.00
O1287  O     0.26438   0.84229   0.93716   0.00000  Uiso   1.00
O1288  O     0.06896   0.82438   0.72951   0.00000  Uiso   1.00
O1289  O     0.12372   0.71569   0.71982   0.00000  Uiso   1.00
O1290  O     0.20961   0.95098   0.94685   0.00000  Uiso   1.00
O1291  O     0.20985   0.71714   0.94636   0.00000  Uiso   1.00
O1292  O     0.12349   0.94953   0.72030   0.00000  Uiso   1.00
O1293  O     0.22679   0.79375   0.83334   0.00000  Uiso   1.00
O1294  O     0.22679   0.87291   0.83334   0.00000  Uiso   1.00
O1295  O     0.10655   0.79375   0.83333   0.00000  Uiso   1.00
O1296  O     0.16667   0.87292   0.76280   0.00000  Uiso   1.00
O1297  O     0.16667   0.79375   0.90387   0.00000  Uiso   1.00
O1298  O     0.16667   0.87292   0.90387   0.00000  Uiso   1.00
O1299  O     0.16667   0.79375   0.76280   0.00000  Uiso   1.00
O1300  O     0.03950   0.78229   0.95161   0.00000  Uiso   1.00
C1301  C     0.42098   0.83327   0.83296   0.00000  Uiso   1.00
C1302  C     0.35373   0.84384   0.78913   0.00000  Uiso   1.00
C1303  C     0.62378   0.83366   0.83364   0.00000  Uiso   1.00
C1304  C     0.37622   0.83300   0.83302   0.00000  Uiso   1.00
C1305  C     0.47622   0.69134   0.79954   0.00000  Uiso   1.00
C1306  C     0.52378   0.97532   0.86712   0.00000  Uiso   1.00
C1307  C     0.52379   0.69149   0.86710   0.00000  Uiso   1.00
C1308  C     0.47621   0.97518   0.79957   0.00000  Uiso   1.00
C1309  C     0.38200   0.81268   0.92275   0.00000  Uiso   1.00
C1310  C     0.61800   0.85400   0.74392   0.00000  Uiso   1.00
C1311  C     0.62433   0.81533   0.92429   0.00000  Uiso   1.00
C1312  C     0.57902   0.83339   0.83371   0.00000  Uiso   1.00
C1313  C     0.37567   0.85133   0.74237   0.00000  Uiso   1.00
C1314  C     0.44921   0.71602   0.76350   0.00000  Uiso   1.00
C1315  C     0.55079   0.95065   0.90316   0.00000  Uiso   1.00
C1316  C     0.55116   0.71630   0.90273   0.00000  Uiso   1.00
C1317  C     0.44885   0.95036   0.76393   0.00000  Uiso   1.00
C1318  C     0.49996   0.83332   0.74033   0.00000  Uiso   1.00
C1319  C     0.50004   0.83335   0.92634   0.00000  Uiso   1.00
C1320  C     0.49999   0.83331   0.68855   0.00000  Uiso   1.00
C1321  C     0.50001   0.83336   0.97812   0.00000  Uiso   1.00
C1322  C     0.35642   0.82194   0.87708   0.00000  Uiso   1.00
C1323  C     0.64358   0.84473   0.78959   0.00000  Uiso   1.00
C1324  C     0.64627   0.82282   0.87754   0.00000  Uiso   1.00
Cu1325 Cu    0.50000   0.88022   0.83333   0.00000  Uiso   1.00
Cu1326 Cu    0.50000   0.78645   0.83333   0.00000  Uiso   1.00
H1327  H     0.41032   0.83206   0.92991   0.00000  Uiso   1.00
H1328  H     0.58970   0.83460   0.73674   0.00000  Uiso   1.00
H1329  H     0.63186   0.78612   0.94783   0.00000  Uiso   1.00
H1330  H     0.36812   0.88052   0.71882   0.00000  Uiso   1.00
H1331  H     0.42163   0.73348   0.77528   0.00000  Uiso   1.00
H1332  H     0.57837   0.93318   0.89139   0.00000  Uiso   1.00
H1333  H     0.57920   0.73265   0.89064   0.00000  Uiso   1.00
H1334  H     0.42081   0.93401   0.77602   0.00000  Uiso   1.00
N1335  N     0.50000   0.95069   0.83333   0.00000  Uiso   1.00
N1336  N     0.50000   0.71598   0.83333   0.00000  Uiso   1.00
O1337  O     0.43988   0.87291   0.83333   0.00000  Uiso   1.00
O1338  O     0.62715   0.88442   0.71510   0.00000  Uiso   1.00
O1339  O     0.59772   0.84229   0.93716   0.00000  Uiso   1.00
O1340  O     0.40230   0.82438   0.72951   0.00000  Uiso   1.00
O1341  O     0.45706   0.71569   0.71982   0.00000  Uiso   1.00
O1342  O     0.54294   0.95098   0.94685   0.00000  Uiso   1.00
O1343  O     0.54318   0.71714   0.94636   0.00000  Uiso   1.00
O1344  O     0.45682   0.94953   0.72030   0.00000  Uiso   1.00
O1345  O     0.56012   0.79375   0.83334   0.00000  Uiso   1.00
O1346  O     0.56012   0.87291   0.83334   0.00000  Uiso   1.00
O1347  O     0.43988   0.79375   0.83333   0.00000  Uiso   1.00
O1348  O     0.50000   0.87292   0.76280   0.00000  Uiso   1.00
O1349  O     0.50000   0.79375   0.90387   0.00000  Uiso   1.00
O1350  O     0.50000   0.87292   0.90387   0.00000  Uiso   1.00
O1351  O     0.50000   0.79375   0.76280   0.00000  Uiso   1.00
O1352  O     0.37283   0.78229   0.95161   0.00000  Uiso   1.00
C1353  C     0.75431   0.83327   0.83296   0.00000  Uiso   1.00
C1354  C     0.68706   0.84384   0.78913   0.00000  Uiso   1.00
C1355  C     0.95712   0.83366   0.83364   0.00000  Uiso   1.00
C1356  C     0.70955   0.83300   0.83302   0.00000  Uiso   1.00
C1357  C     0.80955   0.69134   0.79954   0.00000  Uiso   1.00
C1358  C     0.85711   0.97532   0.86712   0.00000  Uiso   1.00
C1359  C     0.85713   0.69149   0.86710   0.00000  Uiso   1.00
C1360  C     0.80954   0.97518   0.79957   0.00000  Uiso   1.00
C1361  C     0.71533   0.81268   0.92275   0.00000  Uiso   1.00
C1362  C     0.95133   0.85400   0.74392   0.00000  Uiso   1.00
C1363  C     0.95766   0.81533   0.92429   0.00000  Uiso   1.00
C1364  C     0.91235   0.83339   0.83371   0.00000  Uiso   1.00
C1365  C     0.70900   0.85133   0.74237   0.00000  Uiso   1.00
C1366  C     0.78255   0.71602   0.76350   0.00000  Uiso   1.00
C1367  C     0.88412   0.95065   0.90316   0.00000  Uiso   1.00
C1368  C     0.88449   0.71630   0.90273   0.00000  Uiso   1.00
C1369  C     0.78218   0.95036   0.76393   0.00000  Uiso   1.00
C1370  C     0.83329   0.83332   0.74033   0.00000  Uiso   1.00
C1371  C     0.83338   0.83335   0.92634   0.00000  Uiso   1.00
C1372  C     0.83332   0.83331   0.68855   0.00000  Uiso   1.00
C1373  C     0.83335   0.83336   0.97812   0.00000  Uiso   1.00
C1374  C     0.68975   0.82194   0.87708   0.00000  Uiso   1.00
C1375  C     0.97692   0.84473   0.78959   0.00000  Uiso   1.00
C1376  C     0.97961   0.82282   0.87754   0.00000  Uiso   1.00
Cu1377 Cu    0.83333   0.88022   0.83333   0.00000  Uiso   1.00
Cu1378 Cu    0.83333   0.78645   0.83333   0.00000  Uiso   1.00
H1379  H     0.74365   0.83206   0.92991   0.00000  Uiso   1.00
H1380  H     0.92303   0.83460   0.73674   0.00000  Uiso   1.00
H1381  H     0.96519   0.78612   0.94783   0.00000  Uiso   1.00
H1382  H     0.70145   0.88052   0.71882   0.00000  Uiso   1.00
H1383  H     0.75496   0.73348   0.77528   0.00000  Uiso   1.00
H1384  H     0.91170   0.93318   0.89139   0.00000  Uiso   1.00
H1385  H     0.91253   0.73265   0.89064   0.00000  Uiso   1.00
H1386  H     0.75414   0.93401   0.77602   0.00000  Uiso   1.00
N1387  N     0.83333   0.95069   0.83333   0.00000  Uiso   1.00
N1388  N     0.83333   0.71598   0.83333   0.00000  Uiso   1.00
O1389  O     0.77321   0.87291   0.83333   0.00000  Uiso   1.00
O1390  O     0.96048   0.88442   0.71510   0.00000  Uiso   1.00
O1391  O     0.93105   0.84229   0.93716   0.00000  Uiso   1.00
O1392  O     0.73563   0.82438   0.72951   0.00000  Uiso   1.00
O1393  O     0.79039   0.71569   0.71982   0.00000  Uiso   1.00
O1394  O     0.87628   0.95098   0.94685   0.00000  Uiso   1.00
O1395  O     0.87651   0.71714   0.94636   0.00000  Uiso   1.00
O1396  O     0.79016   0.94953   0.72030   0.00000  Uiso   1.00
O1397  O     0.89345   0.79375   0.83334   0.00000  Uiso   1.00
O1398  O     0.89345   0.87291   0.83334   0.00000  Uiso   1.00
O1399  O     0.77321   0.79375   0.83333   0.00000  Uiso   1.00
O1400  O     0.83333   0.87292   0.76280   0.00000  Uiso   1.00
O1401  O     0.83333   0.79375   0.90387   0.00000  Uiso   1.00
O1402  O     0.83333   0.87292   0.90387   0.00000  Uiso   1.00
O1403  O     0.83333   0.79375   0.76280   0.00000  Uiso   1.00
O1404  O     0.70617   0.78229   0.95161   0.00000  Uiso   1.00
loop_
_geom_bond_atom_site_label_1
_geom_bond_atom_site_label_2
_geom_bond_distance
_geom_bond_site_symmetry_2
_ccdc_geom_bond_type
C1     O37     1.297   .     A
C1     C4      1.446   .     S
C1     O47     1.296   .     A
C2     C4      1.412   .     A
C2     C13     1.490   .     S
C2     C127    1.406   1_455 S
C3     C23     1.411   .     A
C3     C24     1.412   .     A
C3     C12     1.446   .     S
C4     C22     1.411   .     A
C5     C14     1.476   .     S
C5     N36     1.375   .     A
C5     C320    1.431   1_545 S
C6     N35     1.375   .     A
C6     C15     1.476   .     S
C6     C163    1.431   .     S
C7     N36     1.375   .     A
C7     C16     1.475   .     S
C7     C318    1.431   1_545 S
C8     C17     1.475   .     S
C8     N35     1.375   .     A
C8     C161    1.431   .     S
C9     H27     1.084   .     S
C9     O52     1.220   .     D
C9     C22     1.493   .     S
C10    O38     1.220   .     D
C10    C23     1.493   .     S
C10    H28     1.084   .     S
C11    O39     1.220   .     D
C11    C24     1.490   .     S
C11    H29     1.083   .     S
C12    O46     1.296   .     A
C12    O45     1.297   .     A
C13    O40     1.220   .     D
C13    H30     1.083   .     S
C14    H31     1.082   .     S
C14    O41     1.221   .     D
C15    H32     1.082   .     S
C15    O42     1.221   .     D
C16    H33     1.082   .     S
C16    O43     1.221   .     D
C17    O44     1.221   .     D
C17    H34     1.082   .     S
C18    O51     1.297   .     A
C18    C20     1.406   .     S
C18    O48     1.296   .     A
C19    O49     1.296   .     A
C19    C21     1.406   .     S
C19    O50     1.297   .     A
C20    C957    1.189   1_554 S
C21    C488    1.189   .     S
C22    C128    1.406   1_455 S
C23    C54     1.406   .     S
C24    C74     1.406   .     S
Cu25   Cu26    2.710   .     S
Cu25   O48     1.927   .     S
Cu25   N35     2.037   .     S
Cu25   O50     1.927   .     S
Cu25   O37     1.954   .     S
Cu25   O46     1.954   .     S
Cu26   O51     1.927   .     S
Cu26   O47     1.954   .     S
Cu26   N36     2.037   .     S
Cu26   O49     1.927   .     S
Cu26   O45     1.954   .     S
C53    O89     1.297   .     A
C53    C56     1.446   .     S
C53    O99     1.296   .     A
C54    C56     1.412   .     A
C54    C65     1.490   .     S
C55    C75     1.411   .     A
C55    C76     1.412   .     A
C55    C64     1.446   .     S
C56    C74     1.411   .     A
C57    C66     1.476   .     S
C57    N88     1.375   .     A
C57    C372    1.431   1_545 S
C58    N87     1.375   .     A
C58    C67     1.476   .     S
C58    C215    1.431   .     S
C59    N88     1.375   .     A
C59    C68     1.475   .     S
C59    C370    1.431   1_545 S
C60    C69     1.475   .     S
C60    N87     1.375   .     A
C60    C213    1.431   .     S
C61    H79     1.084   .     S
C61    O104    1.220   .     D
C61    C74     1.493   .     S
C62    O90     1.220   .     D
C62    C75     1.493   .     S
C62    H80     1.084   .     S
C63    O91     1.220   .     D
C63    C76     1.490   .     S
C63    H81     1.083   .     S
C64    O98     1.296   .     A
C64    O97     1.297   .     A
C65    O92     1.220   .     D
C65    H82     1.083   .     S
C66    H83     1.082   .     S
C66    O93     1.221   .     D
C67    H84     1.082   .     S
C67    O94     1.221   .     D
C68    H85     1.082   .     S
C68    O95     1.221   .     D
C69    O96     1.221   .     D
C69    H86     1.082   .     S
C70    O103    1.297   .     A
C70    C72     1.406   .     S
C70    O100    1.296   .     A
C71    O101    1.296   .     A
C71    C73     1.406   .     S
C71    O102    1.297   .     A
C72    C1009   1.189   1_554 S
C73    C540    1.189   .     S
C75    C106    1.406   .     S
C76    C126    1.406   .     S
Cu77   Cu78    2.710   .     S
Cu77   O100    1.927   .     S
Cu77   N87     2.037   .     S
Cu77   O102    1.927   .     S
Cu77   O89     1.954   .     S
Cu77   O98     1.954   .     S
Cu78   O103    1.927   .     S
Cu78   O99     1.954   .     S
Cu78   N88     2.037   .     S
Cu78   O101    1.927   .     S
Cu78   O97     1.954   .     S
C105   O141    1.297   .     A
C105   C108    1.446   .     S
C105   O151    1.296   .     A
C106   C108    1.412   .     A
C106   C117    1.490   .     S
C107   C127    1.411   .     A
C107   C128    1.412   .     A
C107   C116    1.446   .     S
C108   C126    1.411   .     A
C109   C118    1.476   .     S
C109   N140    1.375   .     A
C109   C424    1.431   1_545 S
C110   N139    1.375   .     A
C110   C119    1.476   .     S
C110   C267    1.431   .     S
C111   N140    1.375   .     A
C111   C120    1.475   .     S
C111   C422    1.431   1_545 S
C112   C121    1.475   .     S
C112   N139    1.375   .     A
C112   C265    1.431   .     S
C113   H131    1.084   .     S
C113   O156    1.220   .     D
C113   C126    1.493   .     S
C114   O142    1.220   .     D
C114   C127    1.493   .     S
C114   H132    1.084   .     S
C115   O143    1.220   .     D
C115   C128    1.490   .     S
C115   H133    1.083   .     S
C116   O150    1.296   .     A
C116   O149    1.297   .     A
C117   O144    1.220   .     D
C117   H134    1.083   .     S
C118   H135    1.082   .     S
C118   O145    1.221   .     D
C119   H136    1.082   .     S
C119   O146    1.221   .     D
C120   H137    1.082   .     S
C120   O147    1.221   .     D
C121   O148    1.221   .     D
C121   H138    1.082   .     S
C122   O155    1.297   .     A
C122   C124    1.406   .     S
C122   O152    1.296   .     A
C123   O153    1.296   .     A
C123   C125    1.406   .     S
C123   O154    1.297   .     A
C124   C1061   1.189   1_554 S
C125   C592    1.189   .     S
C127   C2      1.406   1_655 S
C128   C22     1.406   1_655 S
Cu129  Cu130   2.710   .     S
Cu129  O152    1.927   .     S
Cu129  N139    2.037   .     S
Cu129  O154    1.927   .     S
Cu129  O141    1.954   .     S
Cu129  O150    1.954   .     S
Cu130  O155    1.927   .     S
Cu130  O151    1.954   .     S
Cu130  N140    2.037   .     S
Cu130  O153    1.927   .     S
Cu130  O149    1.954   .     S
C157   O193    1.297   .     A
C157   C160    1.446   .     S
C157   O203    1.296   .     A
C158   C160    1.412   .     A
C158   C169    1.490   .     S
C158   C283    1.406   1_455 S
C159   C179    1.411   .     A
C159   C180    1.412   .     A
C159   C168    1.446   .     S
C160   C178    1.411   .     A
C161   C170    1.476   .     S
C161   N192    1.375   .     A
C162   N191    1.375   .     A
C162   C171    1.476   .     S
C162   C319    1.431   .     S
C163   N192    1.375   .     A
C163   C172    1.475   .     S
C164   C173    1.475   .     S
C164   N191    1.375   .     A
C164   C317    1.431   .     S
C165   H183    1.084   .     S
C165   O208    1.220   .     D
C165   C178    1.493   .     S
C166   O194    1.220   .     D
C166   C179    1.493   .     S
C166   H184    1.084   .     S
C167   O195    1.220   .     D
C167   C180    1.490   .     S
C167   H185    1.083   .     S
C168   O202    1.296   .     A
C168   O201    1.297   .     A
C169   O196    1.220   .     D
C169   H186    1.083   .     S
C170   H187    1.082   .     S
C170   O197    1.221   .     D
C171   H188    1.082   .     S
C171   O198    1.221   .     D
C172   H189    1.082   .     S
C172   O199    1.221   .     D
C173   O200    1.221   .     D
C173   H190    1.082   .     S
C174   O207    1.297   .     A
C174   C176    1.406   .     S
C174   O204    1.296   .     A
C175   O205    1.296   .     A
C175   C177    1.406   .     S
C175   O206    1.297   .     A
C176   C1113   1.189   1_554 S
C177   C644    1.189   .     S
C178   C284    1.406   1_455 S
C179   C210    1.406   .     S
C180   C230    1.406   .     S
Cu181  Cu182   2.710   .     S
Cu181  O204    1.927   .     S
Cu181  N191    2.037   .     S
Cu181  O206    1.927   .     S
Cu181  O193    1.954   .     S
Cu181  O202    1.954   .     S
Cu182  O207    1.927   .     S
Cu182  O203    1.954   .     S
Cu182  N192    2.037   .     S
Cu182  O205    1.927   .     S
Cu182  O201    1.954   .     S
C209   O245    1.297   .     A
C209   C212    1.446   .     S
C209   O255    1.296   .     A
C210   C212    1.412   .     A
C210   C221    1.490   .     S
C211   C231    1.411   .     A
C211   C232    1.412   .     A
C211   C220    1.446   .     S
C212   C230    1.411   .     A
C213   C222    1.476   .     S
C213   N244    1.375   .     A
C214   N243    1.375   .     A
C214   C223    1.476   .     S
C214   C371    1.431   .     S
C215   N244    1.375   .     A
C215   C224    1.475   .     S
C216   C225    1.475   .     S
C216   N243    1.375   .     A
C216   C369    1.431   .     S
C217   H235    1.084   .     S
C217   O260    1.220   .     D
C217   C230    1.493   .     S
C218   O246    1.220   .     D
C218   C231    1.493   .     S
C218   H236    1.084   .     S
C219   O247    1.220   .     D
C219   C232    1.490   .     S
C219   H237    1.083   .     S
C220   O254    1.296   .     A
C220   O253    1.297   .     A
C221   O248    1.220   .     D
C221   H238    1.083   .     S
C222   H239    1.082   .     S
C222   O249    1.221   .     D
C223   H240    1.082   .     S
C223   O250    1.221   .     D
C224   H241    1.082   .     S
C224   O251    1.221   .     D
C225   O252    1.221   .     D
C225   H242    1.082   .     S
C226   O259    1.297   .     A
C226   C228    1.406   .     S
C226   O256    1.296   .     A
C227   O257    1.296   .     A
C227   C229    1.406   .     S
C227   O258    1.297   .     A
C228   C1165   1.189   1_554 S
C229   C696    1.189   .     S
C231   C262    1.406   .     S
C232   C282    1.406   .     S
Cu233  Cu234   2.710   .     S
Cu233  O256    1.927   .     S
Cu233  N243    2.037   .     S
Cu233  O258    1.927   .     S
Cu233  O245    1.954   .     S
Cu233  O254    1.954   .     S
Cu234  O259    1.927   .     S
Cu234  O255    1.954   .     S
Cu234  N244    2.037   .     S
Cu234  O257    1.927   .     S
Cu234  O253    1.954   .     S
C261   O297    1.297   .     A
C261   C264    1.446   .     S
C261   O307    1.296   .     A
C262   C264    1.412   .     A
C262   C273    1.490   .     S
C263   C283    1.411   .     A
C263   C284    1.412   .     A
C263   C272    1.446   .     S
C264   C282    1.411   .     A
C265   C274    1.476   .     S
C265   N296    1.375   .     A
C266   N295    1.375   .     A
C266   C275    1.476   .     S
C266   C423    1.431   .     S
C267   N296    1.375   .     A
C267   C276    1.475   .     S
C268   C277    1.475   .     S
C268   N295    1.375   .     A
C268   C421    1.431   .     S
C269   H287    1.084   .     S
C269   O312    1.220   .     D
C269   C282    1.493   .     S
C270   O298    1.220   .     D
C270   C283    1.493   .     S
C270   H288    1.084   .     S
C271   O299    1.220   .     D
C271   C284    1.490   .     S
C271   H289    1.083   .     S
C272   O306    1.296   .     A
C272   O305    1.297   .     A
C273   O300    1.220   .     D
C273   H290    1.083   .     S
C274   H291    1.082   .     S
C274   O301    1.221   .     D
C275   H292    1.082   .     S
C275   O302    1.221   .     D
C276   H293    1.082   .     S
C276   O303    1.221   .     D
C277   O304    1.221   .     D
C277   H294    1.082   .     S
C278   O311    1.297   .     A
C278   C280    1.406   .     S
C278   O308    1.296   .     A
C279   O309    1.296   .     A
C279   C281    1.406   .     S
C279   O310    1.297   .     A
C280   C1217   1.189   1_554 S
C281   C748    1.189   .     S
C283   C158    1.406   1_655 S
C284   C178    1.406   1_655 S
Cu285  Cu286   2.710   .     S
Cu285  O308    1.927   .     S
Cu285  N295    2.037   .     S
Cu285  O310    1.927   .     S
Cu285  O297    1.954   .     S
Cu285  O306    1.954   .     S
Cu286  O311    1.927   .     S
Cu286  O307    1.954   .     S
Cu286  N296    2.037   .     S
Cu286  O309    1.927   .     S
Cu286  O305    1.954   .     S
C313   O349    1.297   .     A
C313   C316    1.446   .     S
C313   O359    1.296   .     A
C314   C316    1.412   .     A
C314   C325    1.490   .     S
C314   C439    1.406   1_455 S
C315   C335    1.411   .     A
C315   C336    1.412   .     A
C315   C324    1.446   .     S
C316   C334    1.411   .     A
C317   C326    1.476   .     S
C317   N348    1.375   .     A
C318   N347    1.375   .     A
C318   C327    1.476   .     S
C318   C7      1.431   1_565 S
C319   N348    1.375   .     A
C319   C328    1.475   .     S
C320   C329    1.475   .     S
C320   N347    1.375   .     A
C320   C5      1.431   1_565 S
C321   H339    1.084   .     S
C321   O364    1.220   .     D
C321   C334    1.493   .     S
C322   O350    1.220   .     D
C322   C335    1.493   .     S
C322   H340    1.084   .     S
C323   O351    1.220   .     D
C323   C336    1.490   .     S
C323   H341    1.083   .     S
C324   O358    1.296   .     A
C324   O357    1.297   .     A
C325   O352    1.220   .     D
C325   H342    1.083   .     S
C326   H343    1.082   .     S
C326   O353    1.221   .     D
C327   H344    1.082   .     S
C327   O354    1.221   .     D
C328   H345    1.082   .     S
C328   O355    1.221   .     D
C329   O356    1.221   .     D
C329   H346    1.082   .     S
C330   O363    1.297   .     A
C330   C332    1.406   .     S
C330   O360    1.296   .     A
C331   O361    1.296   .     A
C331   C333    1.406   .     S
C331   O362    1.297   .     A
C332   C1269   1.189   1_554 S
C333   C800    1.189   .     S
C334   C440    1.406   1_455 S
C335   C366    1.406   .     S
C336   C386    1.406   .     S
Cu337  Cu338   2.710   .     S
Cu337  O360    1.927   .     S
Cu337  N347    2.037   .     S
Cu337  O362    1.927   .     S
Cu337  O349    1.954   .     S
Cu337  O358    1.954   .     S
Cu338  O363    1.927   .     S
Cu338  O359    1.954   .     S
Cu338  N348    2.037   .     S
Cu338  O361    1.927   .     S
Cu338  O357    1.954   .     S
C365   O401    1.297   .     A
C365   C368    1.446   .     S
C365   O411    1.296   .     A
C366   C368    1.412   .     A
C366   C377    1.490   .     S
C367   C387    1.411   .     A
C367   C388    1.412   .     A
C367   C376    1.446   .     S
C368   C386    1.411   .     A
C369   C378    1.476   .     S
C369   N400    1.375   .     A
C370   N399    1.375   .     A
C370   C379    1.476   .     S
C370   C59     1.431   1_565 S
C371   N400    1.375   .     A
C371   C380    1.475   .     S
C372   C381    1.475   .     S
C372   N399    1.375   .     A
C372   C57     1.431   1_565 S
C373   H391    1.084   .     S
C373   O416    1.220   .     D
C373   C386    1.493   .     S
C374   O402    1.220   .     D
C374   C387    1.493   .     S
C374   H392    1.084   .     S
C375   O403    1.220   .     D
C375   C388    1.490   .     S
C375   H393    1.083   .     S
C376   O410    1.296   .     A
C376   O409    1.297   .     A
C377   O404    1.220   .     D
C377   H394    1.083   .     S
C378   H395    1.082   .     S
C378   O405    1.221   .     D
C379   H396    1.082   .     S
C379   O406    1.221   .     D
C380   H397    1.082   .     S
C380   O407    1.221   .     D
C381   O408    1.221   .     D
C381   H398    1.082   .     S
C382   O415    1.297   .     A
C382   C384    1.406   .     S
C382   O412    1.296   .     A
C383   O413    1.296   .     A
C383   C385    1.406   .     S
C383   O414    1.297   .     A
C384   C1321   1.189   1_554 S
C385   C852    1.189   .     S
C387   C418    1.406   .     S
C388   C438    1.406   .     S
Cu389  Cu390   2.710   .     S
Cu389  O412    1.927   .     S
Cu389  N399    2.037   .     S
Cu389  O414    1.927   .     S
Cu389  O401    1.954   .     S
Cu389  O410    1.954   .     S
Cu390  O415    1.927   .     S
Cu390  O411    1.954   .     S
Cu390  N400    2.037   .     S
Cu390  O413    1.927   .     S
Cu390  O409    1.954   .     S
C417   O453    1.297   .     A
C417   C420    1.446   .     S
C417   O463    1.296   .     A
C418   C420    1.412   .     A
C418   C429    1.490   .     S
C419   C439    1.411   .     A
C419   C440    1.412   .     A
C419   C428    1.446   .     S
C420   C438    1.411   .     A
C421   C430    1.476   .     S
C421   N452    1.375   .     A
C422   N451    1.375   .     A
C422   C431    1.476   .     S
C422   C111    1.431   1_565 S
C423   N452    1.375   .     A
C423   C432    1.475   .     S
C424   C433    1.475   .     S
C424   N451    1.375   .     A
C424   C109    1.431   1_565 S
C425   H443    1.084   .     S
C425   O468    1.220   .     D
C425   C438    1.493   .     S
C426   O454    1.220   .     D
C426   C439    1.493   .     S
C426   H444    1.084   .     S
C427   O455    1.220   .     D
C427   C440    1.490   .     S
C427   H445    1.083   .     S
C428   O462    1.296   .     A
C428   O461    1.297   .     A
C429   O456    1.220   .     D
C429   H446    1.083   .     S
C430   H447    1.082   .     S
C430   O457    1.221   .     D
C431   H448    1.082   .     S
C431   O458    1.221   .     D
C432   H449    1.082   .     S
C432   O459    1.221   .     D
C433   O460    1.221   .     D
C433   H450    1.082   .     S
C434   O467    1.297   .     A
C434   C436    1.406   .     S
C434   O464    1.296   .     A
C435   O465    1.296   .     A
C435   C437    1.406   .     S
C435   O466    1.297   .     A
C436   C1373   1.189   1_554 S
C437   C904    1.189   .     S
C439   C314    1.406   1_655 S
C440   C334    1.406   1_655 S
Cu441  Cu442   2.710   .     S
Cu441  O464    1.927   .     S
Cu441  N451    2.037   .     S
Cu441  O466    1.927   .     S
Cu441  O453    1.954   .     S
Cu441  O462    1.954   .     S
Cu442  O467    1.927   .     S
Cu442  O463    1.954   .     S
Cu442  N452    2.037   .     S
Cu442  O465    1.927   .     S
Cu442  O461    1.954   .     S
C469   O505    1.297   .     A
C469   C472    1.446   .     S
C469   O515    1.296   .     A
C470   C472    1.412   .     A
C470   C481    1.490   .     S
C470   C595    1.406   1_455 S
C471   C491    1.411   .     A
C471   C492    1.412   .     A
C471   C480    1.446   .     S
C472   C490    1.411   .     A
C473   C482    1.476   .     S
C473   N504    1.375   .     A
C473   C788    1.431   1_545 S
C474   N503    1.375   .     A
C474   C483    1.476   .     S
C474   C631    1.431   .     S
C475   N504    1.375   .     A
C475   C484    1.475   .     S
C475   C786    1.431   1_545 S
C476   C485    1.475   .     S
C476   N503    1.375   .     A
C476   C629    1.431   .     S
C477   H495    1.084   .     S
C477   O520    1.220   .     D
C477   C490    1.493   .     S
C478   O506    1.220   .     D
C478   C491    1.493   .     S
C478   H496    1.084   .     S
C479   O507    1.220   .     D
C479   C492    1.490   .     S
C479   H497    1.083   .     S
C480   O514    1.296   .     A
C480   O513    1.297   .     A
C481   O508    1.220   .     D
C481   H498    1.083   .     S
C482   H499    1.082   .     S
C482   O509    1.221   .     D
C483   H500    1.082   .     S
C483   O510    1.221   .     D
C484   H501    1.082   .     S
C484   O511    1.221   .     D
C485   O512    1.221   .     D
C485   H502    1.082   .     S
C486   O519    1.297   .     A
C486   C488    1.406   .     S
C486   O516    1.296   .     A
C487   O517    1.296   .     A
C487   C489    1.406   .     S
C487   O518    1.297   .     A
C489   C956    1.189   .     S
C490   C596    1.406   1_455 S
C491   C522    1.406   .     S
C492   C542    1.406   .     S
Cu493  Cu494   2.710   .     S
Cu493  O516    1.927   .     S
Cu493  N503    2.037   .     S
Cu493  O518    1.927   .     S
Cu493  O505    1.954   .     S
Cu493  O514    1.954   .     S
Cu494  O519    1.927   .     S
Cu494  O515    1.954   .     S
Cu494  N504    2.037   .     S
Cu494  O517    1.927   .     S
Cu494  O513    1.954   .     S
C521   O557    1.297   .     A
C521   C524    1.446   .     S
C521   O567    1.296   .     A
C522   C524    1.412   .     A
C522   C533    1.490   .     S
C523   C543    1.411   .     A
C523   C544    1.412   .     A
C523   C532    1.446   .     S
C524   C542    1.411   .     A
C525   C534    1.476   .     S
C525   N556    1.375   .     A
C525   C840    1.431   1_545 S
C526   N555    1.375   .     A
C526   C535    1.476   .     S
C526   C683    1.431   .     S
C527   N556    1.375   .     A
C527   C536    1.475   .     S
C527   C838    1.431   1_545 S
C528   C537    1.475   .     S
C528   N555    1.375   .     A
C528   C681    1.431   .     S
C529   H547    1.084   .     S
C529   O572    1.220   .     D
C529   C542    1.493   .     S
C530   O558    1.220   .     D
C530   C543    1.493   .     S
C530   H548    1.084   .     S
C531   O559    1.220   .     D
C531   C544    1.490   .     S
C531   H549    1.083   .     S
C532   O566    1.296   .     A
C532   O565    1.297   .     A
C533   O560    1.220   .     D
C533   H550    1.083   .     S
C534   H551    1.082   .     S
C534   O561    1.221   .     D
C535   H552    1.082   .     S
C535   O562    1.221   .     D
C536   H553    1.082   .     S
C536   O563    1.221   .     D
C537   O564    1.221   .     D
C537   H554    1.082   .     S
C538   O571    1.297   .     A
C538   C540    1.406   .     S
C538   O568    1.296   .     A
C539   O569    1.296   .     A
C539   C541    1.406   .     S
C539   O570    1.297   .     A
C541   C1008   1.189   .     S
C543   C574    1.406   .     S
C544   C594    1.406   .     S
Cu545  Cu546   2.710   .     S
Cu545  O568    1.927   .     S
Cu545  N555    2.037   .     S
Cu545  O570    1.927   .     S
Cu545  O557    1.954   .     S
Cu545  O566    1.954   .     S
Cu546  O571    1.927   .     S
Cu546  O567    1.954   .     S
Cu546  N556    2.037   .     S
Cu546  O569    1.927   .     S
Cu546  O565    1.954   .     S
C573   O609    1.297   .     A
C573   C576    1.446   .     S
C573   O619    1.296   .     A
C574   C576    1.412   .     A
C574   C585    1.490   .     S
C575   C595    1.411   .     A
C575   C596    1.412   .     A
C575   C584    1.446   .     S
C576   C594    1.411   .     A
C577   C586    1.476   .     S
C577   N608    1.375   .     A
C577   C892    1.431   1_545 S
C578   N607    1.375   .     A
C578   C587    1.476   .     S
C578   C735    1.431   .     S
C579   N608    1.375   .     A
C579   C588    1.475   .     S
C579   C890    1.431   1_545 S
C580   C589    1.475   .     S
C580   N607    1.375   .     A
C580   C733    1.431   .     S
C581   H599    1.084   .     S
C581   O624    1.220   .     D
C581   C594    1.493   .     S
C582   O610    1.220   .     D
C582   C595    1.493   .     S
C582   H600    1.084   .     S
C583   O611    1.220   .     D
C583   C596    1.490   .     S
C583   H601    1.083   .     S
C584   O618    1.296   .     A
C584   O617    1.297   .     A
C585   O612    1.220   .     D
C585   H602    1.083   .     S
C586   H603    1.082   .     S
C586   O613    1.221   .     D
C587   H604    1.082   .     S
C587   O614    1.221   .     D
C588   H605    1.082   .     S
C588   O615    1.221   .     D
C589   O616    1.221   .     D
C589   H606    1.082   .     S
C590   O623    1.297   .     A
C590   C592    1.406   .     S
C590   O620    1.296   .     A
C591   O621    1.296   .     A
C591   C593    1.406   .     S
C591   O622    1.297   .     A
C593   C1060   1.189   .     S
C595   C470    1.406   1_655 S
C596   C490    1.406   1_655 S
Cu597  Cu598   2.710   .     S
Cu597  O620    1.927   .     S
Cu597  N607    2.037   .     S
Cu597  O622    1.927   .     S
Cu597  O609    1.954   .     S
Cu597  O618    1.954   .     S
Cu598  O623    1.927   .     S
Cu598  O619    1.954   .     S
Cu598  N608    2.037   .     S
Cu598  O621    1.927   .     S
Cu598  O617    1.954   .     S
C625   O661    1.297   .     A
C625   C628    1.446   .     S
C625   O671    1.296   .     A
C626   C628    1.412   .     A
C626   C637    1.490   .     S
C626   C751    1.406   1_455 S
C627   C647    1.411   .     A
C627   C648    1.412   .     A
C627   C636    1.446   .     S
C628   C646    1.411   .     A
C629   C638    1.476   .     S
C629   N660    1.375   .     A
C630   N659    1.375   .     A
C630   C639    1.476   .     S
C630   C787    1.431   .     S
C631   N660    1.375   .     A
C631   C640    1.475   .     S
C632   C641    1.475   .     S
C632   N659    1.375   .     A
C632   C785    1.431   .     S
C633   H651    1.084   .     S
C633   O676    1.220   .     D
C633   C646    1.493   .     S
C634   O662    1.220   .     D
C634   C647    1.493   .     S
C634   H652    1.084   .     S
C635   O663    1.220   .     D
C635   C648    1.490   .     S
C635   H653    1.083   .     S
C636   O670    1.296   .     A
C636   O669    1.297   .     A
C637   O664    1.220   .     D
C637   H654    1.083   .     S
C638   H655    1.082   .     S
C638   O665    1.221   .     D
C639   H656    1.082   .     S
C639   O666    1.221   .     D
C640   H657    1.082   .     S
C640   O667    1.221   .     D
C641   O668    1.221   .     D
C641   H658    1.082   .     S
C642   O675    1.297   .     A
C642   C644    1.406   .     S
C642   O672    1.296   .     A
C643   O673    1.296   .     A
C643   C645    1.406   .     S
C643   O674    1.297   .     A
C645   C1112   1.189   .     S
C646   C752    1.406   1_455 S
C647   C678    1.406   .     S
C648   C698    1.406   .     S
Cu649  Cu650   2.710   .     S
Cu649  O672    1.927   .     S
Cu649  N659    2.037   .     S
Cu649  O674    1.927   .     S
Cu649  O661    1.954   .     S
Cu649  O670    1.954   .     S
Cu650  O675    1.927   .     S
Cu650  O671    1.954   .     S
Cu650  N660    2.037   .     S
Cu650  O673    1.927   .     S
Cu650  O669    1.954   .     S
C677   O713    1.297   .     A
C677   C680    1.446   .     S
C677   O723    1.296   .     A
C678   C680    1.412   .     A
C678   C689    1.490   .     S
C679   C699    1.411   .     A
C679   C700    1.412   .     A
C679   C688    1.446   .     S
C680   C698    1.411   .     A
C681   C690    1.476   .     S
C681   N712    1.375   .     A
C682   N711    1.375   .     A
C682   C691    1.476   .     S
C682   C839    1.431   .     S
C683   N712    1.375   .     A
C683   C692    1.475   .     S
C684   C693    1.475   .     S
C684   N711    1.375   .     A
C684   C837    1.431   .     S
C685   H703    1.084   .     S
C685   O728    1.220   .     D
C685   C698    1.493   .     S
C686   O714    1.220   .     D
C686   C699    1.493   .     S
C686   H704    1.084   .     S
C687   O715    1.220   .     D
C687   C700    1.490   .     S
C687   H705    1.083   .     S
C688   O722    1.296   .     A
C688   O721    1.297   .     A
C689   O716    1.220   .     D
C689   H706    1.083   .     S
C690   H707    1.082   .     S
C690   O717    1.221   .     D
C691   H708    1.082   .     S
C691   O718    1.221   .     D
C692   H709    1.082   .     S
C692   O719    1.221   .     D
C693   O720    1.221   .     D
C693   H710    1.082   .     S
C694   O727    1.297   .     A
C694   C696    1.406   .     S
C694   O724    1.296   .     A
C695   O725    1.296   .     A
C695   C697    1.406   .     S
C695   O726    1.297   .     A
C697   C1164   1.189   .     S
C699   C730    1.406   .     S
C700   C750    1.406   .     S
Cu701  Cu702   2.710   .     S
Cu701  O724    1.927   .     S
Cu701  N711    2.037   .     S
Cu701  O726    1.927   .     S
Cu701  O713    1.954   .     S
Cu701  O722    1.954   .     S
Cu702  O727    1.927   .     S
Cu702  O723    1.954   .     S
Cu702  N712    2.037   .     S
Cu702  O725    1.927   .     S
Cu702  O721    1.954   .     S
C729   O765    1.297   .     A
C729   C732    1.446   .     S
C729   O775    1.296   .     A
C730   C732    1.412   .     A
C730   C741    1.490   .     S
C731   C751    1.411   .     A
C731   C752    1.412   .     A
C731   C740    1.446   .     S
C732   C750    1.411   .     A
C733   C742    1.476   .     S
C733   N764    1.375   .     A
C734   N763    1.375   .     A
C734   C743    1.476   .     S
C734   C891    1.431   .     S
C735   N764    1.375   .     A
C735   C744    1.475   .     S
C736   C745    1.475   .     S
C736   N763    1.375   .     A
C736   C889    1.431   .     S
C737   H755    1.084   .     S
C737   O780    1.220   .     D
C737   C750    1.493   .     S
C738   O766    1.220   .     D
C738   C751    1.493   .     S
C738   H756    1.084   .     S
C739   O767    1.220   .     D
C739   C752    1.490   .     S
C739   H757    1.083   .     S
C740   O774    1.296   .     A
C740   O773    1.297   .     A
C741   O768    1.220   .     D
C741   H758    1.083   .     S
C742   H759    1.082   .     S
C742   O769    1.221   .     D
C743   H760    1.082   .     S
C743   O770    1.221   .     D
C744   H761    1.082   .     S
C744   O771    1.221   .     D
C745   O772    1.221   .     D
C745   H762    1.082   .     S
C746   O779    1.297   .     A
C746   C748    1.406   .     S
C746   O776    1.296   .     A
C747   O777    1.296   .     A
C747   C749    1.406   .     S
C747   O778    1.297   .     A
C749   C1216   1.189   .     S
C751   C626    1.406   1_655 S
C752   C646    1.406   1_655 S
Cu753  Cu754   2.710   .     S
Cu753  O776    1.927   .     S
Cu753  N763    2.037   .     S
Cu753  O778    1.927   .     S
Cu753  O765    1.954   .     S
Cu753  O774    1.954   .     S
Cu754  O779    1.927   .     S
Cu754  O775    1.954   .     S
Cu754  N764    2.037   .     S
Cu754  O777    1.927   .     S
Cu754  O773    1.954   .     S
C781   O817    1.297   .     A
C781   C784    1.446   .     S
C781   O827    1.296   .     A
C782   C784    1.412   .     A
C782   C793    1.490   .     S
C782   C907    1.406   1_455 S
C783   C803    1.411   .     A
C783   C804    1.412   .     A
C783   C792    1.446   .     S
C784   C802    1.411   .     A
C785   C794    1.476   .     S
C785   N816    1.375   .     A
C786   N815    1.375   .     A
C786   C795    1.476   .     S
C786   C475    1.431   1_565 S
C787   N816    1.375   .     A
C787   C796    1.475   .     S
C788   C797    1.475   .     S
C788   N815    1.375   .     A
C788   C473    1.431   1_565 S
C789   H807    1.084   .     S
C789   O832    1.220   .     D
C789   C802    1.493   .     S
C790   O818    1.220   .     D
C790   C803    1.493   .     S
C790   H808    1.084   .     S
C791   O819    1.220   .     D
C791   C804    1.490   .     S
C791   H809    1.083   .     S
C792   O826    1.296   .     A
C792   O825    1.297   .     A
C793   O820    1.220   .     D
C793   H810    1.083   .     S
C794   H811    1.082   .     S
C794   O821    1.221   .     D
C795   H812    1.082   .     S
C795   O822    1.221   .     D
C796   H813    1.082   .     S
C796   O823    1.221   .     D
C797   O824    1.221   .     D
C797   H814    1.082   .     S
C798   O831    1.297   .     A
C798   C800    1.406   .     S
C798   O828    1.296   .     A
C799   O829    1.296   .     A
C799   C801    1.406   .     S
C799   O830    1.297   .     A
C801   C1268   1.189   .     S
C802   C908    1.406   1_455 S
C803   C834    1.406   .     S
C804   C854    1.406   .     S
Cu805  Cu806   2.710   .     S
Cu805  O828    1.927   .     S
Cu805  N815    2.037   .     S
Cu805  O830    1.927   .     S
Cu805  O817    1.954   .     S
Cu805  O826    1.954   .     S
Cu806  O831    1.927   .     S
Cu806  O827    1.954   .     S
Cu806  N816    2.037   .     S
Cu806  O829    1.927   .     S
Cu806  O825    1.954   .     S
C833   O869    1.297   .     A
C833   C836    1.446   .     S
C833   O879    1.296   .     A
C834   C836    1.412   .     A
C834   C845    1.490   .     S
C835   C855    1.411   .     A
C835   C856    1.412   .     A
C835   C844    1.446   .     S
C836   C854    1.411   .     A
C837   C846    1.476   .     S
C837   N868    1.375   .     A
C838   N867    1.375   .     A
C838   C847    1.476   .     S
C838   C527    1.431   1_565 S
C839   N868    1.375   .     A
C839   C848    1.475   .     S
C840   C849    1.475   .     S
C840   N867    1.375   .     A
C840   C525    1.431   1_565 S
C841   H859    1.084   .     S
C841   O884    1.220   .     D
C841   C854    1.493   .     S
C842   O870    1.220   .     D
C842   C855    1.493   .     S
C842   H860    1.084   .     S
C843   O871    1.220   .     D
C843   C856    1.490   .     S
C843   H861    1.083   .     S
C844   O878    1.296   .     A
C844   O877    1.297   .     A
C845   O872    1.220   .     D
C845   H862    1.083   .     S
C846   H863    1.082   .     S
C846   O873    1.221   .     D
C847   H864    1.082   .     S
C847   O874    1.221   .     D
C848   H865    1.082   .     S
C848   O875    1.221   .     D
C849   O876    1.221   .     D
C849   H866    1.082   .     S
C850   O883    1.297   .     A
C850   C852    1.406   .     S
C850   O880    1.296   .     A
C851   O881    1.296   .     A
C851   C853    1.406   .     S
C851   O882    1.297   .     A
C853   C1320   1.189   .     S
C855   C886    1.406   .     S
C856   C906    1.406   .     S
Cu857  Cu858   2.710   .     S
Cu857  O880    1.927   .     S
Cu857  N867    2.037   .     S
Cu857  O882    1.927   .     S
Cu857  O869    1.954   .     S
Cu857  O878    1.954   .     S
Cu858  O883    1.927   .     S
Cu858  O879    1.954   .     S
Cu858  N868    2.037   .     S
Cu858  O881    1.927   .     S
Cu858  O877    1.954   .     S
C885   O921    1.297   .     A
C885   C888    1.446   .     S
C885   O931    1.296   .     A
C886   C888    1.412   .     A
C886   C897    1.490   .     S
C887   C907    1.411   .     A
C887   C908    1.412   .     A
C887   C896    1.446   .     S
C888   C906    1.411   .     A
C889   C898    1.476   .     S
C889   N920    1.375   .     A
C890   N919    1.375   .     A
C890   C899    1.476   .     S
C890   C579    1.431   1_565 S
C891   N920    1.375   .     A
C891   C900    1.475   .     S
C892   C901    1.475   .     S
C892   N919    1.375   .     A
C892   C577    1.431   1_565 S
C893   H911    1.084   .     S
C893   O936    1.220   .     D
C893   C906    1.493   .     S
C894   O922    1.220   .     D
C894   C907    1.493   .     S
C894   H912    1.084   .     S
C895   O923    1.220   .     D
C895   C908    1.490   .     S
C895   H913    1.083   .     S
C896   O930    1.296   .     A
C896   O929    1.297   .     A
C897   O924    1.220   .     D
C897   H914    1.083   .     S
C898   H915    1.082   .     S
C898   O925    1.221   .     D
C899   H916    1.082   .     S
C899   O926    1.221   .     D
C900   H917    1.082   .     S
C900   O927    1.221   .     D
C901   O928    1.221   .     D
C901   H918    1.082   .     S
C902   O935    1.297   .     A
C902   C904    1.406   .     S
C902   O932    1.296   .     A
C903   O933    1.296   .     A
C903   C905    1.406   .     S
C903   O934    1.297   .     A
C905   C1372   1.189   .     S
C907   C782    1.406   1_655 S
C908   C802    1.406   1_655 S
Cu909  Cu910   2.710   .     S
Cu909  O932    1.927   .     S
Cu909  N919    2.037   .     S
Cu909  O934    1.927   .     S
Cu909  O921    1.954   .     S
Cu909  O930    1.954   .     S
Cu910  O935    1.927   .     S
Cu910  O931    1.954   .     S
Cu910  N920    2.037   .     S
Cu910  O933    1.927   .     S
Cu910  O929    1.954   .     S
C937   O973    1.297   .     A
C937   C940    1.446   .     S
C937   O983    1.296   .     A
C938   C940    1.412   .     A
C938   C949    1.490   .     S
C938   C1063   1.406   1_455 S
C939   C959    1.411   .     A
C939   C960    1.412   .     A
C939   C948    1.446   .     S
C940   C958    1.411   .     A
C941   C950    1.476   .     S
C941   N972    1.375   .     A
C941   C1256   1.431   1_545 S
C942   N971    1.375   .     A
C942   C951    1.476   .     S
C942   C1099   1.431   .     S
C943   N972    1.375   .     A
C943   C952    1.475   .     S
C943   C1254   1.431   1_545 S
C944   C953    1.475   .     S
C944   N971    1.375   .     A
C944   C1097   1.431   .     S
C945   H963    1.084   .     S
C945   O988    1.220   .     D
C945   C958    1.493   .     S
C946   O974    1.220   .     D
C946   C959    1.493   .     S
C946   H964    1.084   .     S
C947   O975    1.220   .     D
C947   C960    1.490   .     S
C947   H965    1.083   .     S
C948   O982    1.296   .     A
C948   O981    1.297   .     A
C949   O976    1.220   .     D
C949   H966    1.083   .     S
C950   H967    1.082   .     S
C950   O977    1.221   .     D
C951   H968    1.082   .     S
C951   O978    1.221   .     D
C952   H969    1.082   .     S
C952   O979    1.221   .     D
C953   O980    1.221   .     D
C953   H970    1.082   .     S
C954   O987    1.297   .     A
C954   C956    1.406   .     S
C954   O984    1.296   .     A
C955   O985    1.296   .     A
C955   C957    1.406   .     S
C955   O986    1.297   .     A
C957   C20     1.189   1_556 S
C958   C1064   1.406   1_455 S
C959   C990    1.406   .     S
C960   C1010   1.406   .     S
Cu961  Cu962   2.710   .     S
Cu961  O984    1.927   .     S
Cu961  N971    2.037   .     S
Cu961  O986    1.927   .     S
Cu961  O973    1.954   .     S
Cu961  O982    1.954   .     S
Cu962  O987    1.927   .     S
Cu962  O983    1.954   .     S
Cu962  N972    2.037   .     S
Cu962  O985    1.927   .     S
Cu962  O981    1.954   .     S
C989   O1025   1.297   .     A
C989   C992    1.446   .     S
C989   O1035   1.296   .     A
C990   C992    1.412   .     A
C990   C1001   1.490   .     S
C991   C1011   1.411   .     A
C991   C1012   1.412   .     A
C991   C1000   1.446   .     S
C992   C1010   1.411   .     A
C993   C1002   1.476   .     S
C993   N1024   1.375   .     A
C993   C1308   1.431   1_545 S
C994   N1023   1.375   .     A
C994   C1003   1.476   .     S
C994   C1151   1.431   .     S
C995   N1024   1.375   .     A
C995   C1004   1.475   .     S
C995   C1306   1.431   1_545 S
C996   C1005   1.475   .     S
C996   N1023   1.375   .     A
C996   C1149   1.431   .     S
C997   H1015   1.084   .     S
C997   O1040   1.220   .     D
C997   C1010   1.493   .     S
C998   O1026   1.220   .     D
C998   C1011   1.493   .     S
C998   H1016   1.084   .     S
C999   O1027   1.220   .     D
C999   C1012   1.490   .     S
C999   H1017   1.083   .     S
C1000  O1034   1.296   .     A
C1000  O1033   1.297   .     A
C1001  O1028   1.220   .     D
C1001  H1018   1.083   .     S
C1002  H1019   1.082   .     S
C1002  O1029   1.221   .     D
C1003  H1020   1.082   .     S
C1003  O1030   1.221   .     D
C1004  H1021   1.082   .     S
C1004  O1031   1.221   .     D
C1005  O1032   1.221   .     D
C1005  H1022   1.082   .     S
C1006  O1039   1.297   .     A
C1006  C1008   1.406   .     S
C1006  O1036   1.296   .     A
C1007  O1037   1.296   .     A
C1007  C1009   1.406   .     S
C1007  O1038   1.297   .     A
C1009  C72     1.189   1_556 S
C1011  C1042   1.406   .     S
C1012  C1062   1.406   .     S
Cu1013 Cu1014  2.710   .     S
Cu1013 O1036   1.927   .     S
Cu1013 N1023   2.037   .     S
Cu1013 O1038   1.927   .     S
Cu1013 O1025   1.954   .     S
Cu1013 O1034   1.954   .     S
Cu1014 O1039   1.927   .     S
Cu1014 O1035   1.954   .     S
Cu1014 N1024   2.037   .     S
Cu1014 O1037   1.927   .     S
Cu1014 O1033   1.954   .     S
C1041  O1077   1.297   .     A
C1041  C1044   1.446   .     S
C1041  O1087   1.296   .     A
C1042  C1044   1.412   .     A
C1042  C1053   1.490   .     S
C1043  C1063   1.411   .     A
C1043  C1064   1.412   .     A
C1043  C1052   1.446   .     S
C1044  C1062   1.411   .     A
C1045  C1054   1.476   .     S
C1045  N1076   1.375   .     A
C1045  C1360   1.431   1_545 S
C1046  N1075   1.375   .     A
C1046  C1055   1.476   .     S
C1046  C1203   1.431   .     S
C1047  N1076   1.375   .     A
C1047  C1056   1.475   .     S
C1047  C1358   1.431   1_545 S
C1048  C1057   1.475   .     S
C1048  N1075   1.375   .     A
C1048  C1201   1.431   .     S
C1049  H1067   1.084   .     S
C1049  O1092   1.220   .     D
C1049  C1062   1.493   .     S
C1050  O1078   1.220   .     D
C1050  C1063   1.493   .     S
C1050  H1068   1.084   .     S
C1051  O1079   1.220   .     D
C1051  C1064   1.490   .     S
C1051  H1069   1.083   .     S
C1052  O1086   1.296   .     A
C1052  O1085   1.297   .     A
C1053  O1080   1.220   .     D
C1053  H1070   1.083   .     S
C1054  H1071   1.082   .     S
C1054  O1081   1.221   .     D
C1055  H1072   1.082   .     S
C1055  O1082   1.221   .     D
C1056  H1073   1.082   .     S
C1056  O1083   1.221   .     D
C1057  O1084   1.221   .     D
C1057  H1074   1.082   .     S
C1058  O1091   1.297   .     A
C1058  C1060   1.406   .     S
C1058  O1088   1.296   .     A
C1059  O1089   1.296   .     A
C1059  C1061   1.406   .     S
C1059  O1090   1.297   .     A
C1061  C124    1.189   1_556 S
C1063  C938    1.406   1_655 S
C1064  C958    1.406   1_655 S
Cu1065 Cu1066  2.710   .     S
Cu1065 O1088   1.927   .     S
Cu1065 N1075   2.037   .     S
Cu1065 O1090   1.927   .     S
Cu1065 O1077   1.954   .     S
Cu1065 O1086   1.954   .     S
Cu1066 O1091   1.927   .     S
Cu1066 O1087   1.954   .     S
Cu1066 N1076   2.037   .     S
Cu1066 O1089   1.927   .     S
Cu1066 O1085   1.954   .     S
C1093  O1129   1.297   .     A
C1093  C1096   1.446   .     S
C1093  O1139   1.296   .     A
C1094  C1096   1.412   .     A
C1094  C1105   1.490   .     S
C1094  C1219   1.406   1_455 S
C1095  C1115   1.411   .     A
C1095  C1116   1.412   .     A
C1095  C1104   1.446   .     S
C1096  C1114   1.411   .     A
C1097  C1106   1.476   .     S
C1097  N1128   1.375   .     A
C1098  N1127   1.375   .     A
C1098  C1107   1.476   .     S
C1098  C1255   1.431   .     S
C1099  N1128   1.375   .     A
C1099  C1108   1.475   .     S
C1100  C1109   1.475   .     S
C1100  N1127   1.375   .     A
C1100  C1253   1.431   .     S
C1101  H1119   1.084   .     S
C1101  O1144   1.220   .     D
C1101  C1114   1.493   .     S
C1102  O1130   1.220   .     D
C1102  C1115   1.493   .     S
C1102  H1120   1.084   .     S
C1103  O1131   1.220   .     D
C1103  C1116   1.490   .     S
C1103  H1121   1.083   .     S
C1104  O1138   1.296   .     A
C1104  O1137   1.297   .     A
C1105  O1132   1.220   .     D
C1105  H1122   1.083   .     S
C1106  H1123   1.082   .     S
C1106  O1133   1.221   .     D
C1107  H1124   1.082   .     S
C1107  O1134   1.221   .     D
C1108  H1125   1.082   .     S
C1108  O1135   1.221   .     D
C1109  O1136   1.221   .     D
C1109  H1126   1.082   .     S
C1110  O1143   1.297   .     A
C1110  C1112   1.406   .     S
C1110  O1140   1.296   .     A
C1111  O1141   1.296   .     A
C1111  C1113   1.406   .     S
C1111  O1142   1.297   .     A
C1113  C176    1.189   1_556 S
C1114  C1220   1.406   1_455 S
C1115  C1146   1.406   .     S
C1116  C1166   1.406   .     S
Cu1117 Cu1118  2.710   .     S
Cu1117 O1140   1.927   .     S
Cu1117 N1127   2.037   .     S
Cu1117 O1142   1.927   .     S
Cu1117 O1129   1.954   .     S
Cu1117 O1138   1.954   .     S
Cu1118 O1143   1.927   .     S
Cu1118 O1139   1.954   .     S
Cu1118 N1128   2.037   .     S
Cu1118 O1141   1.927   .     S
Cu1118 O1137   1.954   .     S
C1145  O1181   1.297   .     A
C1145  C1148   1.446   .     S
C1145  O1191   1.296   .     A
C1146  C1148   1.412   .     A
C1146  C1157   1.490   .     S
C1147  C1167   1.411   .     A
C1147  C1168   1.412   .     A
C1147  C1156   1.446   .     S
C1148  C1166   1.411   .     A
C1149  C1158   1.476   .     S
C1149  N1180   1.375   .     A
C1150  N1179   1.375   .     A
C1150  C1159   1.476   .     S
C1150  C1307   1.431   .     S
C1151  N1180   1.375   .     A
C1151  C1160   1.475   .     S
C1152  C1161   1.475   .     S
C1152  N1179   1.375   .     A
C1152  C1305   1.431   .     S
C1153  H1171   1.084   .     S
C1153  O1196   1.220   .     D
C1153  C1166   1.493   .     S
C1154  O1182   1.220   .     D
C1154  C1167   1.493   .     S
C1154  H1172   1.084   .     S
C1155  O1183   1.220   .     D
C1155  C1168   1.490   .     S
C1155  H1173   1.083   .     S
C1156  O1190   1.296   .     A
C1156  O1189   1.297   .     A
C1157  O1184   1.220   .     D
C1157  H1174   1.083   .     S
C1158  H1175   1.082   .     S
C1158  O1185   1.221   .     D
C1159  H1176   1.082   .     S
C1159  O1186   1.221   .     D
C1160  H1177   1.082   .     S
C1160  O1187   1.221   .     D
C1161  O1188   1.221   .     D
C1161  H1178   1.082   .     S
C1162  O1195   1.297   .     A
C1162  C1164   1.406   .     S
C1162  O1192   1.296   .     A
C1163  O1193   1.296   .     A
C1163  C1165   1.406   .     S
C1163  O1194   1.297   .     A
C1165  C228    1.189   1_556 S
C1167  C1198   1.406   .     S
C1168  C1218   1.406   .     S
Cu1169 Cu1170  2.710   .     S
Cu1169 O1192   1.927   .     S
Cu1169 N1179   2.037   .     S
Cu1169 O1194   1.927   .     S
Cu1169 O1181   1.954   .     S
Cu1169 O1190   1.954   .     S
Cu1170 O1195   1.927   .     S
Cu1170 O1191   1.954   .     S
Cu1170 N1180   2.037   .     S
Cu1170 O1193   1.927   .     S
Cu1170 O1189   1.954   .     S
C1197  O1233   1.297   .     A
C1197  C1200   1.446   .     S
C1197  O1243   1.296   .     A
C1198  C1200   1.412   .     A
C1198  C1209   1.490   .     S
C1199  C1219   1.411   .     A
C1199  C1220   1.412   .     A
C1199  C1208   1.446   .     S
C1200  C1218   1.411   .     A
C1201  C1210   1.476   .     S
C1201  N1232   1.375   .     A
C1202  N1231   1.375   .     A
C1202  C1211   1.476   .     S
C1202  C1359   1.431   .     S
C1203  N1232   1.375   .     A
C1203  C1212   1.475   .     S
C1204  C1213   1.475   .     S
C1204  N1231   1.375   .     A
C1204  C1357   1.431   .     S
C1205  H1223   1.084   .     S
C1205  O1248   1.220   .     D
C1205  C1218   1.493   .     S
C1206  O1234   1.220   .     D
C1206  C1219   1.493   .     S
C1206  H1224   1.084   .     S
C1207  O1235   1.220   .     D
C1207  C1220   1.490   .     S
C1207  H1225   1.083   .     S
C1208  O1242   1.296   .     A
C1208  O1241   1.297   .     A
C1209  O1236   1.220   .     D
C1209  H1226   1.083   .     S
C1210  H1227   1.082   .     S
C1210  O1237   1.221   .     D
C1211  H1228   1.082   .     S
C1211  O1238   1.221   .     D
C1212  H1229   1.082   .     S
C1212  O1239   1.221   .     D
C1213  O1240   1.221   .     D
C1213  H1230   1.082   .     S
C1214  O1247   1.297   .     A
C1214  C1216   1.406   .     S
C1214  O1244   1.296   .     A
C1215  O1245   1.296   .     A
C1215  C1217   1.406   .     S
C1215  O1246   1.297   .     A
C1217  C280    1.189   1_556 S
C1219  C1094   1.406   1_655 S
C1220  C1114   1.406   1_655 S
Cu1221 Cu1222  2.710   .     S
Cu1221 O1244   1.927   .     S
Cu1221 N1231   2.037   .     S
Cu1221 O1246   1.927   .     S
Cu1221 O1233   1.954   .     S
Cu1221 O1242   1.954   .     S
Cu1222 O1247   1.927   .     S
Cu1222 O1243   1.954   .     S
Cu1222 N1232   2.037   .     S
Cu1222 O1245   1.927   .     S
Cu1222 O1241   1.954   .     S
C1249  O1285   1.297   .     A
C1249  C1252   1.446   .     S
C1249  O1295   1.296   .     A
C1250  C1252   1.412   .     A
C1250  C1261   1.490   .     S
C1250  C1375   1.406   1_455 S
C1251  C1271   1.411   .     A
C1251  C1272   1.412   .     A
C1251  C1260   1.446   .     S
C1252  C1270   1.411   .     A
C1253  C1262   1.476   .     S
C1253  N1284   1.375   .     A
C1254  N1283   1.375   .     A
C1254  C1263   1.476   .     S
C1254  C943    1.431   1_565 S
C1255  N1284   1.375   .     A
C1255  C1264   1.475   .     S
C1256  C1265   1.475   .     S
C1256  N1283   1.375   .     A
C1256  C941    1.431   1_565 S
C1257  H1275   1.084   .     S
C1257  O1300   1.220   .     D
C1257  C1270   1.493   .     S
C1258  O1286   1.220   .     D
C1258  C1271   1.493   .     S
C1258  H1276   1.084   .     S
C1259  O1287   1.220   .     D
C1259  C1272   1.490   .     S
C1259  H1277   1.083   .     S
C1260  O1294   1.296   .     A
C1260  O1293   1.297   .     A
C1261  O1288   1.220   .     D
C1261  H1278   1.083   .     S
C1262  H1279   1.082   .     S
C1262  O1289   1.221   .     D
C1263  H1280   1.082   .     S
C1263  O1290   1.221   .     D
C1264  H1281   1.082   .     S
C1264  O1291   1.221   .     D
C1265  O1292   1.221   .     D
C1265  H1282   1.082   .     S
C1266  O1299   1.297   .     A
C1266  C1268   1.406   .     S
C1266  O1296   1.296   .     A
C1267  O1297   1.296   .     A
C1267  C1269   1.406   .     S
C1267  O1298   1.297   .     A
C1269  C332    1.189   1_556 S
C1270  C1376   1.406   1_455 S
C1271  C1302   1.406   .     S
C1272  C1322   1.406   .     S
Cu1273 Cu1274  2.710   .     S
Cu1273 O1296   1.927   .     S
Cu1273 N1283   2.037   .     S
Cu1273 O1298   1.927   .     S
Cu1273 O1285   1.954   .     S
Cu1273 O1294   1.954   .     S
Cu1274 O1299   1.927   .     S
Cu1274 O1295   1.954   .     S
Cu1274 N1284   2.037   .     S
Cu1274 O1297   1.927   .     S
Cu1274 O1293   1.954   .     S
C1301  O1337   1.297   .     A
C1301  C1304   1.446   .     S
C1301  O1347   1.296   .     A
C1302  C1304   1.412   .     A
C1302  C1313   1.490   .     S
C1303  C1323   1.411   .     A
C1303  C1324   1.412   .     A
C1303  C1312   1.446   .     S
C1304  C1322   1.411   .     A
C1305  C1314   1.476   .     S
C1305  N1336   1.375   .     A
C1306  N1335   1.375   .     A
C1306  C1315   1.476   .     S
C1306  C995    1.431   1_565 S
C1307  N1336   1.375   .     A
C1307  C1316   1.475   .     S
C1308  C1317   1.475   .     S
C1308  N1335   1.375   .     A
C1308  C993    1.431   1_565 S
C1309  H1327   1.084   .     S
C1309  O1352   1.220   .     D
C1309  C1322   1.493   .     S
C1310  O1338   1.220   .     D
C1310  C1323   1.493   .     S
C1310  H1328   1.084   .     S
C1311  O1339   1.220   .     D
C1311  C1324   1.490   .     S
C1311  H1329   1.083   .     S
C1312  O1346   1.296   .     A
C1312  O1345   1.297   .     A
C1313  O1340   1.220   .     D
C1313  H1330   1.083   .     S
C1314  H1331   1.082   .     S
C1314  O1341   1.221   .     D
C1315  H1332   1.082   .     S
C1315  O1342   1.221   .     D
C1316  H1333   1.082   .     S
C1316  O1343   1.221   .     D
C1317  O1344   1.221   .     D
C1317  H1334   1.082   .     S
C1318  O1351   1.297   .     A
C1318  C1320   1.406   .     S
C1318  O1348   1.296   .     A
C1319  O1349   1.296   .     A
C1319  C1321   1.406   .     S
C1319  O1350   1.297   .     A
C1321  C384    1.189   1_556 S
C1323  C1354   1.406   .     S
C1324  C1374   1.406   .     S
Cu1325 Cu1326  2.710   .     S
Cu1325 O1348   1.927   .     S
Cu1325 N1335   2.037   .     S
Cu1325 O1350   1.927   .     S
Cu1325 O1337   1.954   .     S
Cu1325 O1346   1.954   .     S
Cu1326 O1351   1.927   .     S
Cu1326 O1347   1.954   .     S
Cu1326 N1336   2.037   .     S
Cu1326 O1349   1.927   .     S
Cu1326 O1345   1.954   .     S
C1353  O1389   1.297   .     A
C1353  C1356   1.446   .     S
C1353  O1399   1.296   .     A
C1354  C1356   1.412   .     A
C1354  C1365   1.490   .     S
C1355  C1375   1.411   .     A
C1355  C1376   1.412   .     A
C1355  C1364   1.446   .     S
C1356  C1374   1.411   .     A
C1357  C1366   1.476   .     S
C1357  N1388   1.375   .     A
C1358  N1387   1.375   .     A
C1358  C1367   1.476   .     S
C1358  C1047   1.431   1_565 S
C1359  N1388   1.375   .     A
C1359  C1368   1.475   .     S
C1360  C1369   1.475   .     S
C1360  N1387   1.375   .     A
C1360  C1045   1.431   1_565 S
C1361  H1379   1.084   .     S
C1361  O1404   1.220   .     D
C1361  C1374   1.493   .     S
C1362  O1390   1.220   .     D
C1362  C1375   1.493   .     S
C1362  H1380   1.084   .     S
C1363  O1391   1.220   .     D
C1363  C1376   1.490   .     S
C1363  H1381   1.083   .     S
C1364  O1398   1.296   .     A
C1364  O1397   1.297   .     A
C1365  O1392   1.220   .     D
C1365  H1382   1.083   .     S
C1366  H1383   1.082   .     S
C1366  O1393   1.221   .     D
C1367  H1384   1.082   .     S
C1367  O1394   1.221   .     D
C1368  H1385   1.082   .     S
C1368  O1395   1.221   .     D
C1369  O1396   1.221   .     D
C1369  H1386   1.082   .     S
C1370  O1403   1.297   .     A
C1370  C1372   1.406   .     S
C1370  O1400   1.296   .     A
C1371  O1401   1.296   .     A
C1371  C1373   1.406   .     S
C1371  O1402   1.297   .     A
C1373  C436    1.189   1_556 S
C1375  C1250   1.406   1_655 S
C1376  C1270   1.406   1_655 S
Cu1377 Cu1378  2.710   .     S
Cu1377 O1400   1.927   .     S
Cu1377 N1387   2.037   .     S
Cu1377 O1402   1.927   .     S
Cu1377 O1389   1.954   .     S
Cu1377 O1398   1.954   .     S
Cu1378 O1403   1.927   .     S
Cu1378 O1399   1.954   .     S
Cu1378 N1388   2.037   .     S
Cu1378 O1401   1.927   .     S
Cu1378 O1397   1.954   .     S
