data_str_m2_o10_o18_pcu_sym.51
_audit_creation_date              2020-01-03
_audit_creation_method            'Materials Studio'
_symmetry_space_group_name_H-M    'P1'
_symmetry_Int_Tables_number       1
_symmetry_cell_setting            triclinic
loop_
_symmetry_equiv_pos_as_xyz
  x,y,z
_cell_length_a                    22.5192
_cell_length_b                    26.0844
_cell_length_c                    31.5983
_cell_angle_alpha                 95.9100
_cell_angle_beta                  74.7645
_cell_angle_gamma                 103.5007
loop_
_atom_site_label
_atom_site_type_symbol
_atom_site_fract_x
_atom_site_fract_y
_atom_site_fract_z
_atom_site_U_iso_or_equiv
_atom_site_adp_type
_atom_site_occupancy
C1     C     0.18171   0.26669   0.25144   0.00000  Uiso   1.00
C2     C     0.20568   0.17205   0.16696   0.00000  Uiso   1.00
C3     C     0.10319   0.15323   0.38070   0.00000  Uiso   1.00
C4     C     0.23015   0.18010   0.11930   0.00000  Uiso   1.00
C5     C     0.02523   0.11502   0.44466   0.00000  Uiso   1.00
C6     C     0.30810   0.21831   0.05534   0.00000  Uiso   1.00
C7     C     0.04182   0.12431   0.39977   0.00000  Uiso   1.00
C8     C     0.29151   0.20902   0.10023   0.00000  Uiso   1.00
C9     C     0.14576   0.17148   0.40705   0.00000  Uiso   1.00
C10    C     0.18757   0.16186   0.09295   0.00000  Uiso   1.00
C11    C     0.13105   0.15910   0.45139   0.00000  Uiso   1.00
C12    C     0.15163   0.06665   0.24856   0.00000  Uiso   1.00
C13    C     0.20228   0.17423   0.04861   0.00000  Uiso   1.00
C14    C     0.06906   0.13164   0.47021   0.00000  Uiso   1.00
C15    C     0.26427   0.20170   0.02979   0.00000  Uiso   1.00
C16    C     0.17612   0.17288   0.47740   0.00000  Uiso   1.00
C17    C     0.15721   0.16046   0.02260   0.00000  Uiso   1.00
C18    C     0.00586   0.23211   0.12660   0.00000  Uiso   1.00
C19    C     0.32747   0.10123   0.37340   0.00000  Uiso   1.00
C20    C     0.09367   0.13547   0.04040   0.00000  Uiso   1.00
C21    C     0.23966   0.19787   0.45960   0.00000  Uiso   1.00
C22    C     0.05101   0.12070   0.01448   0.00000  Uiso   1.00
C23    C     0.28232   0.21263   0.48552   0.00000  Uiso   1.00
C24    C     0.18969   0.32282   0.25263   0.00000  Uiso   1.00
C25    C     0.14365   0.01052   0.24737   0.00000  Uiso   1.00
C26    C     0.12766   0.16129   0.33304   0.00000  Uiso   1.00
Cu27   Cu    0.10737   0.16108   0.24516   0.00000  Uiso   1.00
Cu28   Cu    0.22596   0.17225   0.25483   0.00000  Uiso   1.00
H29    H     0.00312   0.10084   0.02942   0.00000  Uiso   1.00
H30    H     0.09966   0.31975   0.24197   0.00000  Uiso   1.00
H31    H     0.02005   0.20008   0.13942   0.00000  Uiso   1.00
H32    H     0.04936   0.25644   0.10640   0.00000  Uiso   1.00
H33    H     0.31908   0.25799   0.15415   0.00000  Uiso   1.00
H34    H     0.31329   0.13326   0.36058   0.00000  Uiso   1.00
H35    H     0.01425   0.07534   0.34585   0.00000  Uiso   1.00
H36    H     0.28397   0.07690   0.39360   0.00000  Uiso   1.00
H37    H     0.33021   0.23250   0.47058   0.00000  Uiso   1.00
H38    H     0.14263   0.13811   0.10830   0.00000  Uiso   1.00
H39    H     0.19070   0.19523   0.39170   0.00000  Uiso   1.00
H40    H     0.31143   0.09363   0.45971   0.00000  Uiso   1.00
H41    H     0.02191   0.23971   0.04029   0.00000  Uiso   1.00
H42    H     0.07463   0.12673   0.07446   0.00000  Uiso   1.00
H43    H     0.25870   0.20661   0.42554   0.00000  Uiso   1.00
H44    H     0.23367   0.01358   0.25803   0.00000  Uiso   1.00
I45    I     0.00411   0.23467   0.31185   0.00000  Uiso   1.00
I46    I     0.32923   0.09866   0.18815   0.00000  Uiso   1.00
N47    N     0.31506   0.18068   0.26212   0.00000  Uiso   1.00
N48    N     0.01827   0.15265   0.23788   0.00000  Uiso   1.00
O49    O     0.12815   0.23809   0.24686   0.00000  Uiso   1.00
O50    O     0.20518   0.09524   0.25314   0.00000  Uiso   1.00
O51    O     0.22829   0.24753   0.25502   0.00000  Uiso   1.00
O52    O     0.10504   0.08580   0.24498   0.00000  Uiso   1.00
O53    O     0.08851   0.15930   0.30855   0.00000  Uiso   1.00
O54    O     0.24482   0.17403   0.19145   0.00000  Uiso   1.00
O55    O     0.18866   0.16874   0.31671   0.00000  Uiso   1.00
O56    O     0.14468   0.16460   0.18329   0.00000  Uiso   1.00
C57    C     0.51504   0.26669   0.25144   0.00000  Uiso   1.00
C58    C     0.53901   0.17205   0.16696   0.00000  Uiso   1.00
C59    C     0.43652   0.15323   0.38070   0.00000  Uiso   1.00
C60    C     0.56348   0.18010   0.11930   0.00000  Uiso   1.00
C61    C     0.35856   0.11502   0.44466   0.00000  Uiso   1.00
C62    C     0.64144   0.21831   0.05534   0.00000  Uiso   1.00
C63    C     0.37515   0.12431   0.39977   0.00000  Uiso   1.00
C64    C     0.62485   0.20902   0.10023   0.00000  Uiso   1.00
C65    C     0.47909   0.17148   0.40705   0.00000  Uiso   1.00
C66    C     0.52091   0.16186   0.09295   0.00000  Uiso   1.00
C67    C     0.46439   0.15910   0.45139   0.00000  Uiso   1.00
C68    C     0.48496   0.06665   0.24856   0.00000  Uiso   1.00
C69    C     0.53561   0.17423   0.04861   0.00000  Uiso   1.00
C70    C     0.40239   0.13164   0.47021   0.00000  Uiso   1.00
C71    C     0.59761   0.20170   0.02979   0.00000  Uiso   1.00
C72    C     0.50946   0.17288   0.47740   0.00000  Uiso   1.00
C73    C     0.49054   0.16046   0.02260   0.00000  Uiso   1.00
C74    C     0.33920   0.23211   0.12660   0.00000  Uiso   1.00
C75    C     0.66080   0.10123   0.37340   0.00000  Uiso   1.00
C76    C     0.42700   0.13547   0.04040   0.00000  Uiso   1.00
C77    C     0.57300   0.19787   0.45960   0.00000  Uiso   1.00
C78    C     0.38434   0.12070   0.01448   0.00000  Uiso   1.00
C79    C     0.61566   0.21263   0.48552   0.00000  Uiso   1.00
C80    C     0.52302   0.32282   0.25263   0.00000  Uiso   1.00
C81    C     0.47698   0.01052   0.24737   0.00000  Uiso   1.00
C82    C     0.46099   0.16129   0.33304   0.00000  Uiso   1.00
Cu83   Cu    0.44071   0.16108   0.24516   0.00000  Uiso   1.00
Cu84   Cu    0.55929   0.17225   0.25483   0.00000  Uiso   1.00
H85    H     0.33645   0.10084   0.02942   0.00000  Uiso   1.00
H86    H     0.43300   0.31975   0.24197   0.00000  Uiso   1.00
H87    H     0.35338   0.20008   0.13942   0.00000  Uiso   1.00
H88    H     0.38269   0.25644   0.10640   0.00000  Uiso   1.00
H89    H     0.65242   0.25799   0.15415   0.00000  Uiso   1.00
H90    H     0.64662   0.13326   0.36058   0.00000  Uiso   1.00
H91    H     0.34758   0.07534   0.34585   0.00000  Uiso   1.00
H92    H     0.61731   0.07690   0.39360   0.00000  Uiso   1.00
H93    H     0.66355   0.23250   0.47058   0.00000  Uiso   1.00
H94    H     0.47597   0.13811   0.10830   0.00000  Uiso   1.00
H95    H     0.52403   0.19523   0.39170   0.00000  Uiso   1.00
H96    H     0.64476   0.09363   0.45971   0.00000  Uiso   1.00
H97    H     0.35524   0.23971   0.04029   0.00000  Uiso   1.00
H98    H     0.40797   0.12673   0.07446   0.00000  Uiso   1.00
H99    H     0.59203   0.20661   0.42554   0.00000  Uiso   1.00
H100   H     0.56700   0.01358   0.25803   0.00000  Uiso   1.00
I101   I     0.33744   0.23467   0.31185   0.00000  Uiso   1.00
I102   I     0.66256   0.09866   0.18815   0.00000  Uiso   1.00
N103   N     0.64839   0.18068   0.26212   0.00000  Uiso   1.00
N104   N     0.35161   0.15265   0.23788   0.00000  Uiso   1.00
O105   O     0.46148   0.23809   0.24686   0.00000  Uiso   1.00
O106   O     0.53852   0.09524   0.25314   0.00000  Uiso   1.00
O107   O     0.56163   0.24753   0.25502   0.00000  Uiso   1.00
O108   O     0.43837   0.08580   0.24498   0.00000  Uiso   1.00
O109   O     0.42185   0.15930   0.30855   0.00000  Uiso   1.00
O110   O     0.57815   0.17403   0.19145   0.00000  Uiso   1.00
O111   O     0.52199   0.16874   0.31671   0.00000  Uiso   1.00
O112   O     0.47801   0.16460   0.18329   0.00000  Uiso   1.00
C113   C     0.84837   0.26669   0.25144   0.00000  Uiso   1.00
C114   C     0.87234   0.17205   0.16696   0.00000  Uiso   1.00
C115   C     0.76985   0.15323   0.38070   0.00000  Uiso   1.00
C116   C     0.89681   0.18010   0.11930   0.00000  Uiso   1.00
C117   C     0.69190   0.11502   0.44466   0.00000  Uiso   1.00
C118   C     0.97477   0.21831   0.05534   0.00000  Uiso   1.00
C119   C     0.70849   0.12431   0.39977   0.00000  Uiso   1.00
C120   C     0.95818   0.20902   0.10023   0.00000  Uiso   1.00
C121   C     0.81243   0.17148   0.40705   0.00000  Uiso   1.00
C122   C     0.85424   0.16186   0.09295   0.00000  Uiso   1.00
C123   C     0.79772   0.15910   0.45139   0.00000  Uiso   1.00
C124   C     0.81829   0.06665   0.24856   0.00000  Uiso   1.00
C125   C     0.86895   0.17423   0.04861   0.00000  Uiso   1.00
C126   C     0.73573   0.13164   0.47021   0.00000  Uiso   1.00
C127   C     0.93094   0.20170   0.02979   0.00000  Uiso   1.00
C128   C     0.84279   0.17288   0.47740   0.00000  Uiso   1.00
C129   C     0.82388   0.16046   0.02260   0.00000  Uiso   1.00
C130   C     0.67253   0.23211   0.12660   0.00000  Uiso   1.00
C131   C     0.99414   0.10123   0.37340   0.00000  Uiso   1.00
C132   C     0.76034   0.13547   0.04040   0.00000  Uiso   1.00
C133   C     0.90633   0.19787   0.45960   0.00000  Uiso   1.00
C134   C     0.71768   0.12070   0.01448   0.00000  Uiso   1.00
C135   C     0.94899   0.21263   0.48552   0.00000  Uiso   1.00
C136   C     0.85635   0.32282   0.25263   0.00000  Uiso   1.00
C137   C     0.81032   0.01052   0.24737   0.00000  Uiso   1.00
C138   C     0.79432   0.16129   0.33304   0.00000  Uiso   1.00
Cu139  Cu    0.77404   0.16108   0.24516   0.00000  Uiso   1.00
Cu140  Cu    0.89263   0.17225   0.25483   0.00000  Uiso   1.00
H141   H     0.66979   0.10084   0.02942   0.00000  Uiso   1.00
H142   H     0.76633   0.31975   0.24197   0.00000  Uiso   1.00
H143   H     0.68671   0.20008   0.13942   0.00000  Uiso   1.00
H144   H     0.71603   0.25644   0.10640   0.00000  Uiso   1.00
H145   H     0.98575   0.25799   0.15415   0.00000  Uiso   1.00
H146   H     0.97995   0.13326   0.36058   0.00000  Uiso   1.00
H147   H     0.68092   0.07534   0.34585   0.00000  Uiso   1.00
H148   H     0.95064   0.07690   0.39360   0.00000  Uiso   1.00
H149   H     0.99688   0.23250   0.47058   0.00000  Uiso   1.00
H150   H     0.80930   0.13811   0.10830   0.00000  Uiso   1.00
H151   H     0.85737   0.19523   0.39170   0.00000  Uiso   1.00
H152   H     0.97809   0.09363   0.45971   0.00000  Uiso   1.00
H153   H     0.68857   0.23971   0.04029   0.00000  Uiso   1.00
H154   H     0.74130   0.12673   0.07446   0.00000  Uiso   1.00
H155   H     0.92537   0.20661   0.42554   0.00000  Uiso   1.00
H156   H     0.90034   0.01358   0.25803   0.00000  Uiso   1.00
I157   I     0.67077   0.23467   0.31185   0.00000  Uiso   1.00
I158   I     0.99589   0.09866   0.18815   0.00000  Uiso   1.00
N159   N     0.98173   0.18068   0.26212   0.00000  Uiso   1.00
N160   N     0.68494   0.15265   0.23788   0.00000  Uiso   1.00
O161   O     0.79482   0.23809   0.24686   0.00000  Uiso   1.00
O162   O     0.87185   0.09524   0.25314   0.00000  Uiso   1.00
O163   O     0.89496   0.24753   0.25502   0.00000  Uiso   1.00
O164   O     0.77171   0.08580   0.24498   0.00000  Uiso   1.00
O165   O     0.75518   0.15930   0.30855   0.00000  Uiso   1.00
O166   O     0.91149   0.17403   0.19145   0.00000  Uiso   1.00
O167   O     0.85532   0.16874   0.31671   0.00000  Uiso   1.00
O168   O     0.81134   0.16460   0.18329   0.00000  Uiso   1.00
C169   C     0.18171   0.60002   0.25144   0.00000  Uiso   1.00
C170   C     0.20568   0.50538   0.16696   0.00000  Uiso   1.00
C171   C     0.10319   0.48657   0.38070   0.00000  Uiso   1.00
C172   C     0.23015   0.51343   0.11930   0.00000  Uiso   1.00
C173   C     0.02523   0.44836   0.44466   0.00000  Uiso   1.00
C174   C     0.30810   0.55165   0.05534   0.00000  Uiso   1.00
C175   C     0.04182   0.45765   0.39977   0.00000  Uiso   1.00
C176   C     0.29151   0.54235   0.10023   0.00000  Uiso   1.00
C177   C     0.14576   0.50481   0.40705   0.00000  Uiso   1.00
C178   C     0.18757   0.49519   0.09295   0.00000  Uiso   1.00
C179   C     0.13105   0.49244   0.45139   0.00000  Uiso   1.00
C180   C     0.15163   0.39998   0.24856   0.00000  Uiso   1.00
C181   C     0.20228   0.50756   0.04861   0.00000  Uiso   1.00
C182   C     0.06906   0.46497   0.47021   0.00000  Uiso   1.00
C183   C     0.26427   0.53503   0.02979   0.00000  Uiso   1.00
C184   C     0.17612   0.50621   0.47740   0.00000  Uiso   1.00
C185   C     0.15721   0.49379   0.02260   0.00000  Uiso   1.00
C186   C     0.00586   0.56544   0.12660   0.00000  Uiso   1.00
C187   C     0.32747   0.43456   0.37340   0.00000  Uiso   1.00
C188   C     0.09367   0.46880   0.04040   0.00000  Uiso   1.00
C189   C     0.23966   0.53120   0.45960   0.00000  Uiso   1.00
C190   C     0.05101   0.45404   0.01448   0.00000  Uiso   1.00
C191   C     0.28232   0.54596   0.48552   0.00000  Uiso   1.00
C192   C     0.18969   0.65615   0.25263   0.00000  Uiso   1.00
C193   C     0.14365   0.34385   0.24737   0.00000  Uiso   1.00
C194   C     0.12766   0.49462   0.33304   0.00000  Uiso   1.00
Cu195  Cu    0.10737   0.49441   0.24516   0.00000  Uiso   1.00
Cu196  Cu    0.22596   0.50559   0.25483   0.00000  Uiso   1.00
H197   H     0.00312   0.43417   0.02942   0.00000  Uiso   1.00
H198   H     0.09966   0.65309   0.24197   0.00000  Uiso   1.00
H199   H     0.02005   0.53341   0.13942   0.00000  Uiso   1.00
H200   H     0.04936   0.58977   0.10640   0.00000  Uiso   1.00
H201   H     0.31908   0.59133   0.15415   0.00000  Uiso   1.00
H202   H     0.31329   0.46659   0.36058   0.00000  Uiso   1.00
H203   H     0.01425   0.40867   0.34585   0.00000  Uiso   1.00
H204   H     0.28397   0.41023   0.39360   0.00000  Uiso   1.00
H205   H     0.33021   0.56583   0.47058   0.00000  Uiso   1.00
H206   H     0.14263   0.47144   0.10830   0.00000  Uiso   1.00
H207   H     0.19070   0.52856   0.39170   0.00000  Uiso   1.00
H208   H     0.31143   0.42696   0.45971   0.00000  Uiso   1.00
H209   H     0.02191   0.57304   0.04029   0.00000  Uiso   1.00
H210   H     0.07463   0.46006   0.07446   0.00000  Uiso   1.00
H211   H     0.25870   0.53994   0.42554   0.00000  Uiso   1.00
H212   H     0.23367   0.34691   0.25803   0.00000  Uiso   1.00
I213   I     0.00411   0.56800   0.31185   0.00000  Uiso   1.00
I214   I     0.32923   0.43200   0.18815   0.00000  Uiso   1.00
N215   N     0.31506   0.51401   0.26212   0.00000  Uiso   1.00
N216   N     0.01827   0.48599   0.23788   0.00000  Uiso   1.00
O217   O     0.12815   0.57142   0.24686   0.00000  Uiso   1.00
O218   O     0.20518   0.42858   0.25314   0.00000  Uiso   1.00
O219   O     0.22829   0.58086   0.25502   0.00000  Uiso   1.00
O220   O     0.10504   0.41914   0.24498   0.00000  Uiso   1.00
O221   O     0.08851   0.49263   0.30855   0.00000  Uiso   1.00
O222   O     0.24482   0.50737   0.19145   0.00000  Uiso   1.00
O223   O     0.18866   0.50207   0.31671   0.00000  Uiso   1.00
O224   O     0.14468   0.49793   0.18329   0.00000  Uiso   1.00
C225   C     0.51504   0.60002   0.25144   0.00000  Uiso   1.00
C226   C     0.53901   0.50538   0.16696   0.00000  Uiso   1.00
C227   C     0.43652   0.48657   0.38070   0.00000  Uiso   1.00
C228   C     0.56348   0.51343   0.11930   0.00000  Uiso   1.00
C229   C     0.35856   0.44836   0.44466   0.00000  Uiso   1.00
C230   C     0.64144   0.55165   0.05534   0.00000  Uiso   1.00
C231   C     0.37515   0.45765   0.39977   0.00000  Uiso   1.00
C232   C     0.62485   0.54235   0.10023   0.00000  Uiso   1.00
C233   C     0.47909   0.50481   0.40705   0.00000  Uiso   1.00
C234   C     0.52091   0.49519   0.09295   0.00000  Uiso   1.00
C235   C     0.46439   0.49244   0.45139   0.00000  Uiso   1.00
C236   C     0.48496   0.39998   0.24856   0.00000  Uiso   1.00
C237   C     0.53561   0.50756   0.04861   0.00000  Uiso   1.00
C238   C     0.40239   0.46497   0.47021   0.00000  Uiso   1.00
C239   C     0.59761   0.53503   0.02979   0.00000  Uiso   1.00
C240   C     0.50946   0.50621   0.47740   0.00000  Uiso   1.00
C241   C     0.49054   0.49379   0.02260   0.00000  Uiso   1.00
C242   C     0.33920   0.56544   0.12660   0.00000  Uiso   1.00
C243   C     0.66080   0.43456   0.37340   0.00000  Uiso   1.00
C244   C     0.42700   0.46880   0.04040   0.00000  Uiso   1.00
C245   C     0.57300   0.53120   0.45960   0.00000  Uiso   1.00
C246   C     0.38434   0.45404   0.01448   0.00000  Uiso   1.00
C247   C     0.61566   0.54596   0.48552   0.00000  Uiso   1.00
C248   C     0.52302   0.65615   0.25263   0.00000  Uiso   1.00
C249   C     0.47698   0.34385   0.24737   0.00000  Uiso   1.00
C250   C     0.46099   0.49462   0.33304   0.00000  Uiso   1.00
Cu251  Cu    0.44071   0.49441   0.24516   0.00000  Uiso   1.00
Cu252  Cu    0.55929   0.50559   0.25483   0.00000  Uiso   1.00
H253   H     0.33645   0.43417   0.02942   0.00000  Uiso   1.00
H254   H     0.43300   0.65309   0.24197   0.00000  Uiso   1.00
H255   H     0.35338   0.53341   0.13942   0.00000  Uiso   1.00
H256   H     0.38269   0.58977   0.10640   0.00000  Uiso   1.00
H257   H     0.65242   0.59133   0.15415   0.00000  Uiso   1.00
H258   H     0.64662   0.46659   0.36058   0.00000  Uiso   1.00
H259   H     0.34758   0.40867   0.34585   0.00000  Uiso   1.00
H260   H     0.61731   0.41023   0.39360   0.00000  Uiso   1.00
H261   H     0.66355   0.56583   0.47058   0.00000  Uiso   1.00
H262   H     0.47597   0.47144   0.10830   0.00000  Uiso   1.00
H263   H     0.52403   0.52856   0.39170   0.00000  Uiso   1.00
H264   H     0.64476   0.42696   0.45971   0.00000  Uiso   1.00
H265   H     0.35524   0.57304   0.04029   0.00000  Uiso   1.00
H266   H     0.40797   0.46006   0.07446   0.00000  Uiso   1.00
H267   H     0.59203   0.53994   0.42554   0.00000  Uiso   1.00
H268   H     0.56700   0.34691   0.25803   0.00000  Uiso   1.00
I269   I     0.33744   0.56800   0.31185   0.00000  Uiso   1.00
I270   I     0.66256   0.43200   0.18815   0.00000  Uiso   1.00
N271   N     0.64839   0.51401   0.26212   0.00000  Uiso   1.00
N272   N     0.35161   0.48599   0.23788   0.00000  Uiso   1.00
O273   O     0.46148   0.57142   0.24686   0.00000  Uiso   1.00
O274   O     0.53852   0.42858   0.25314   0.00000  Uiso   1.00
O275   O     0.56163   0.58086   0.25502   0.00000  Uiso   1.00
O276   O     0.43837   0.41914   0.24498   0.00000  Uiso   1.00
O277   O     0.42185   0.49263   0.30855   0.00000  Uiso   1.00
O278   O     0.57815   0.50737   0.19145   0.00000  Uiso   1.00
O279   O     0.52199   0.50207   0.31671   0.00000  Uiso   1.00
O280   O     0.47801   0.49793   0.18329   0.00000  Uiso   1.00
C281   C     0.84837   0.60002   0.25144   0.00000  Uiso   1.00
C282   C     0.87234   0.50538   0.16696   0.00000  Uiso   1.00
C283   C     0.76985   0.48657   0.38070   0.00000  Uiso   1.00
C284   C     0.89681   0.51343   0.11930   0.00000  Uiso   1.00
C285   C     0.69190   0.44836   0.44466   0.00000  Uiso   1.00
C286   C     0.97477   0.55165   0.05534   0.00000  Uiso   1.00
C287   C     0.70849   0.45765   0.39977   0.00000  Uiso   1.00
C288   C     0.95818   0.54235   0.10023   0.00000  Uiso   1.00
C289   C     0.81243   0.50481   0.40705   0.00000  Uiso   1.00
C290   C     0.85424   0.49519   0.09295   0.00000  Uiso   1.00
C291   C     0.79772   0.49244   0.45139   0.00000  Uiso   1.00
C292   C     0.81829   0.39998   0.24856   0.00000  Uiso   1.00
C293   C     0.86895   0.50756   0.04861   0.00000  Uiso   1.00
C294   C     0.73573   0.46497   0.47021   0.00000  Uiso   1.00
C295   C     0.93094   0.53503   0.02979   0.00000  Uiso   1.00
C296   C     0.84279   0.50621   0.47740   0.00000  Uiso   1.00
C297   C     0.82388   0.49379   0.02260   0.00000  Uiso   1.00
C298   C     0.67253   0.56544   0.12660   0.00000  Uiso   1.00
C299   C     0.99414   0.43456   0.37340   0.00000  Uiso   1.00
C300   C     0.76034   0.46880   0.04040   0.00000  Uiso   1.00
C301   C     0.90633   0.53120   0.45960   0.00000  Uiso   1.00
C302   C     0.71768   0.45404   0.01448   0.00000  Uiso   1.00
C303   C     0.94899   0.54596   0.48552   0.00000  Uiso   1.00
C304   C     0.85635   0.65615   0.25263   0.00000  Uiso   1.00
C305   C     0.81032   0.34385   0.24737   0.00000  Uiso   1.00
C306   C     0.79432   0.49462   0.33304   0.00000  Uiso   1.00
Cu307  Cu    0.77404   0.49441   0.24516   0.00000  Uiso   1.00
Cu308  Cu    0.89263   0.50559   0.25483   0.00000  Uiso   1.00
H309   H     0.66979   0.43417   0.02942   0.00000  Uiso   1.00
H310   H     0.76633   0.65309   0.24197   0.00000  Uiso   1.00
H311   H     0.68671   0.53341   0.13942   0.00000  Uiso   1.00
H312   H     0.71603   0.58977   0.10640   0.00000  Uiso   1.00
H313   H     0.98575   0.59133   0.15415   0.00000  Uiso   1.00
H314   H     0.97995   0.46659   0.36058   0.00000  Uiso   1.00
H315   H     0.68092   0.40867   0.34585   0.00000  Uiso   1.00
H316   H     0.95064   0.41023   0.39360   0.00000  Uiso   1.00
H317   H     0.99688   0.56583   0.47058   0.00000  Uiso   1.00
H318   H     0.80930   0.47144   0.10830   0.00000  Uiso   1.00
H319   H     0.85737   0.52856   0.39170   0.00000  Uiso   1.00
H320   H     0.97809   0.42696   0.45971   0.00000  Uiso   1.00
H321   H     0.68857   0.57304   0.04029   0.00000  Uiso   1.00
H322   H     0.74130   0.46006   0.07446   0.00000  Uiso   1.00
H323   H     0.92537   0.53994   0.42554   0.00000  Uiso   1.00
H324   H     0.90034   0.34691   0.25803   0.00000  Uiso   1.00
I325   I     0.67077   0.56800   0.31185   0.00000  Uiso   1.00
I326   I     0.99589   0.43200   0.18815   0.00000  Uiso   1.00
N327   N     0.98173   0.51401   0.26212   0.00000  Uiso   1.00
N328   N     0.68494   0.48599   0.23788   0.00000  Uiso   1.00
O329   O     0.79482   0.57142   0.24686   0.00000  Uiso   1.00
O330   O     0.87185   0.42858   0.25314   0.00000  Uiso   1.00
O331   O     0.89496   0.58086   0.25502   0.00000  Uiso   1.00
O332   O     0.77171   0.41914   0.24498   0.00000  Uiso   1.00
O333   O     0.75518   0.49263   0.30855   0.00000  Uiso   1.00
O334   O     0.91149   0.50737   0.19145   0.00000  Uiso   1.00
O335   O     0.85532   0.50207   0.31671   0.00000  Uiso   1.00
O336   O     0.81134   0.49793   0.18329   0.00000  Uiso   1.00
C337   C     0.18171   0.93335   0.25144   0.00000  Uiso   1.00
C338   C     0.20568   0.83871   0.16696   0.00000  Uiso   1.00
C339   C     0.10319   0.81990   0.38070   0.00000  Uiso   1.00
C340   C     0.23015   0.84677   0.11930   0.00000  Uiso   1.00
C341   C     0.02523   0.78169   0.44466   0.00000  Uiso   1.00
C342   C     0.30810   0.88498   0.05534   0.00000  Uiso   1.00
C343   C     0.04182   0.79098   0.39977   0.00000  Uiso   1.00
C344   C     0.29151   0.87569   0.10023   0.00000  Uiso   1.00
C345   C     0.14576   0.83814   0.40705   0.00000  Uiso   1.00
C346   C     0.18757   0.82852   0.09295   0.00000  Uiso   1.00
C347   C     0.13105   0.82577   0.45139   0.00000  Uiso   1.00
C348   C     0.15163   0.73331   0.24856   0.00000  Uiso   1.00
C349   C     0.20228   0.84090   0.04861   0.00000  Uiso   1.00
C350   C     0.06906   0.79831   0.47021   0.00000  Uiso   1.00
C351   C     0.26427   0.86836   0.02979   0.00000  Uiso   1.00
C352   C     0.17612   0.83954   0.47740   0.00000  Uiso   1.00
C353   C     0.15721   0.82713   0.02260   0.00000  Uiso   1.00
C354   C     0.00586   0.89877   0.12660   0.00000  Uiso   1.00
C355   C     0.32747   0.76789   0.37340   0.00000  Uiso   1.00
C356   C     0.09367   0.80213   0.04040   0.00000  Uiso   1.00
C357   C     0.23966   0.86453   0.45960   0.00000  Uiso   1.00
C358   C     0.05101   0.78737   0.01448   0.00000  Uiso   1.00
C359   C     0.28232   0.87930   0.48552   0.00000  Uiso   1.00
C360   C     0.18969   0.98948   0.25263   0.00000  Uiso   1.00
C361   C     0.14365   0.67718   0.24737   0.00000  Uiso   1.00
C362   C     0.12766   0.82795   0.33304   0.00000  Uiso   1.00
Cu363  Cu    0.10737   0.82775   0.24516   0.00000  Uiso   1.00
Cu364  Cu    0.22596   0.83892   0.25483   0.00000  Uiso   1.00
H365   H     0.00312   0.76750   0.02942   0.00000  Uiso   1.00
H366   H     0.09966   0.98642   0.24197   0.00000  Uiso   1.00
H367   H     0.02005   0.86674   0.13942   0.00000  Uiso   1.00
H368   H     0.04936   0.92311   0.10640   0.00000  Uiso   1.00
H369   H     0.31908   0.92466   0.15415   0.00000  Uiso   1.00
H370   H     0.31329   0.79992   0.36058   0.00000  Uiso   1.00
H371   H     0.01425   0.74201   0.34585   0.00000  Uiso   1.00
H372   H     0.28397   0.74356   0.39360   0.00000  Uiso   1.00
H373   H     0.33021   0.89917   0.47058   0.00000  Uiso   1.00
H374   H     0.14263   0.80477   0.10830   0.00000  Uiso   1.00
H375   H     0.19070   0.86189   0.39170   0.00000  Uiso   1.00
H376   H     0.31143   0.76029   0.45971   0.00000  Uiso   1.00
H377   H     0.02191   0.90637   0.04029   0.00000  Uiso   1.00
H378   H     0.07463   0.79339   0.07446   0.00000  Uiso   1.00
H379   H     0.25870   0.87327   0.42554   0.00000  Uiso   1.00
H380   H     0.23367   0.68025   0.25803   0.00000  Uiso   1.00
I381   I     0.00411   0.90134   0.31185   0.00000  Uiso   1.00
I382   I     0.32923   0.76533   0.18815   0.00000  Uiso   1.00
N383   N     0.31506   0.84735   0.26212   0.00000  Uiso   1.00
N384   N     0.01827   0.81932   0.23788   0.00000  Uiso   1.00
O385   O     0.12815   0.90476   0.24686   0.00000  Uiso   1.00
O386   O     0.20518   0.76191   0.25314   0.00000  Uiso   1.00
O387   O     0.22829   0.91420   0.25502   0.00000  Uiso   1.00
O388   O     0.10504   0.75247   0.24498   0.00000  Uiso   1.00
O389   O     0.08851   0.82597   0.30855   0.00000  Uiso   1.00
O390   O     0.24482   0.84070   0.19145   0.00000  Uiso   1.00
O391   O     0.18866   0.83540   0.31671   0.00000  Uiso   1.00
O392   O     0.14468   0.83126   0.18329   0.00000  Uiso   1.00
C393   C     0.51504   0.93335   0.25144   0.00000  Uiso   1.00
C394   C     0.53901   0.83871   0.16696   0.00000  Uiso   1.00
C395   C     0.43652   0.81990   0.38070   0.00000  Uiso   1.00
C396   C     0.56348   0.84677   0.11930   0.00000  Uiso   1.00
C397   C     0.35856   0.78169   0.44466   0.00000  Uiso   1.00
C398   C     0.64144   0.88498   0.05534   0.00000  Uiso   1.00
C399   C     0.37515   0.79098   0.39977   0.00000  Uiso   1.00
C400   C     0.62485   0.87569   0.10023   0.00000  Uiso   1.00
C401   C     0.47909   0.83814   0.40705   0.00000  Uiso   1.00
C402   C     0.52091   0.82852   0.09295   0.00000  Uiso   1.00
C403   C     0.46439   0.82577   0.45139   0.00000  Uiso   1.00
C404   C     0.48496   0.73331   0.24856   0.00000  Uiso   1.00
C405   C     0.53561   0.84090   0.04861   0.00000  Uiso   1.00
C406   C     0.40239   0.79831   0.47021   0.00000  Uiso   1.00
C407   C     0.59761   0.86836   0.02979   0.00000  Uiso   1.00
C408   C     0.50946   0.83954   0.47740   0.00000  Uiso   1.00
C409   C     0.49054   0.82713   0.02260   0.00000  Uiso   1.00
C410   C     0.33920   0.89877   0.12660   0.00000  Uiso   1.00
C411   C     0.66080   0.76789   0.37340   0.00000  Uiso   1.00
C412   C     0.42700   0.80213   0.04040   0.00000  Uiso   1.00
C413   C     0.57300   0.86453   0.45960   0.00000  Uiso   1.00
C414   C     0.38434   0.78737   0.01448   0.00000  Uiso   1.00
C415   C     0.61566   0.87930   0.48552   0.00000  Uiso   1.00
C416   C     0.52302   0.98948   0.25263   0.00000  Uiso   1.00
C417   C     0.47698   0.67718   0.24737   0.00000  Uiso   1.00
C418   C     0.46099   0.82795   0.33304   0.00000  Uiso   1.00
Cu419  Cu    0.44071   0.82775   0.24516   0.00000  Uiso   1.00
Cu420  Cu    0.55929   0.83892   0.25483   0.00000  Uiso   1.00
H421   H     0.33645   0.76750   0.02942   0.00000  Uiso   1.00
H422   H     0.43300   0.98642   0.24197   0.00000  Uiso   1.00
H423   H     0.35338   0.86674   0.13942   0.00000  Uiso   1.00
H424   H     0.38269   0.92311   0.10640   0.00000  Uiso   1.00
H425   H     0.65242   0.92466   0.15415   0.00000  Uiso   1.00
H426   H     0.64662   0.79992   0.36058   0.00000  Uiso   1.00
H427   H     0.34758   0.74201   0.34585   0.00000  Uiso   1.00
H428   H     0.61731   0.74356   0.39360   0.00000  Uiso   1.00
H429   H     0.66355   0.89917   0.47058   0.00000  Uiso   1.00
H430   H     0.47597   0.80477   0.10830   0.00000  Uiso   1.00
H431   H     0.52403   0.86189   0.39170   0.00000  Uiso   1.00
H432   H     0.64476   0.76029   0.45971   0.00000  Uiso   1.00
H433   H     0.35524   0.90637   0.04029   0.00000  Uiso   1.00
H434   H     0.40797   0.79339   0.07446   0.00000  Uiso   1.00
H435   H     0.59203   0.87327   0.42554   0.00000  Uiso   1.00
H436   H     0.56700   0.68025   0.25803   0.00000  Uiso   1.00
I437   I     0.33744   0.90134   0.31185   0.00000  Uiso   1.00
I438   I     0.66256   0.76533   0.18815   0.00000  Uiso   1.00
N439   N     0.64839   0.84735   0.26212   0.00000  Uiso   1.00
N440   N     0.35161   0.81932   0.23788   0.00000  Uiso   1.00
O441   O     0.46148   0.90476   0.24686   0.00000  Uiso   1.00
O442   O     0.53852   0.76191   0.25314   0.00000  Uiso   1.00
O443   O     0.56163   0.91420   0.25502   0.00000  Uiso   1.00
O444   O     0.43837   0.75247   0.24498   0.00000  Uiso   1.00
O445   O     0.42185   0.82597   0.30855   0.00000  Uiso   1.00
O446   O     0.57815   0.84070   0.19145   0.00000  Uiso   1.00
O447   O     0.52199   0.83540   0.31671   0.00000  Uiso   1.00
O448   O     0.47801   0.83126   0.18329   0.00000  Uiso   1.00
C449   C     0.84837   0.93335   0.25144   0.00000  Uiso   1.00
C450   C     0.87234   0.83871   0.16696   0.00000  Uiso   1.00
C451   C     0.76985   0.81990   0.38070   0.00000  Uiso   1.00
C452   C     0.89681   0.84677   0.11930   0.00000  Uiso   1.00
C453   C     0.69190   0.78169   0.44466   0.00000  Uiso   1.00
C454   C     0.97477   0.88498   0.05534   0.00000  Uiso   1.00
C455   C     0.70849   0.79098   0.39977   0.00000  Uiso   1.00
C456   C     0.95818   0.87569   0.10023   0.00000  Uiso   1.00
C457   C     0.81243   0.83814   0.40705   0.00000  Uiso   1.00
C458   C     0.85424   0.82852   0.09295   0.00000  Uiso   1.00
C459   C     0.79772   0.82577   0.45139   0.00000  Uiso   1.00
C460   C     0.81829   0.73331   0.24856   0.00000  Uiso   1.00
C461   C     0.86895   0.84090   0.04861   0.00000  Uiso   1.00
C462   C     0.73573   0.79831   0.47021   0.00000  Uiso   1.00
C463   C     0.93094   0.86836   0.02979   0.00000  Uiso   1.00
C464   C     0.84279   0.83954   0.47740   0.00000  Uiso   1.00
C465   C     0.82388   0.82713   0.02260   0.00000  Uiso   1.00
C466   C     0.67253   0.89877   0.12660   0.00000  Uiso   1.00
C467   C     0.99414   0.76789   0.37340   0.00000  Uiso   1.00
C468   C     0.76034   0.80213   0.04040   0.00000  Uiso   1.00
C469   C     0.90633   0.86453   0.45960   0.00000  Uiso   1.00
C470   C     0.71768   0.78737   0.01448   0.00000  Uiso   1.00
C471   C     0.94899   0.87930   0.48552   0.00000  Uiso   1.00
C472   C     0.85635   0.98948   0.25263   0.00000  Uiso   1.00
C473   C     0.81032   0.67718   0.24737   0.00000  Uiso   1.00
C474   C     0.79432   0.82795   0.33304   0.00000  Uiso   1.00
Cu475  Cu    0.77404   0.82775   0.24516   0.00000  Uiso   1.00
Cu476  Cu    0.89263   0.83892   0.25483   0.00000  Uiso   1.00
H477   H     0.66979   0.76750   0.02942   0.00000  Uiso   1.00
H478   H     0.76633   0.98642   0.24197   0.00000  Uiso   1.00
H479   H     0.68671   0.86674   0.13942   0.00000  Uiso   1.00
H480   H     0.71603   0.92311   0.10640   0.00000  Uiso   1.00
H481   H     0.98575   0.92466   0.15415   0.00000  Uiso   1.00
H482   H     0.97995   0.79992   0.36058   0.00000  Uiso   1.00
H483   H     0.68092   0.74201   0.34585   0.00000  Uiso   1.00
H484   H     0.95064   0.74356   0.39360   0.00000  Uiso   1.00
H485   H     0.99688   0.89917   0.47058   0.00000  Uiso   1.00
H486   H     0.80930   0.80477   0.10830   0.00000  Uiso   1.00
H487   H     0.85737   0.86189   0.39170   0.00000  Uiso   1.00
H488   H     0.97809   0.76029   0.45971   0.00000  Uiso   1.00
H489   H     0.68857   0.90637   0.04029   0.00000  Uiso   1.00
H490   H     0.74130   0.79339   0.07446   0.00000  Uiso   1.00
H491   H     0.92537   0.87327   0.42554   0.00000  Uiso   1.00
H492   H     0.90034   0.68025   0.25803   0.00000  Uiso   1.00
I493   I     0.67077   0.90134   0.31185   0.00000  Uiso   1.00
I494   I     0.99589   0.76533   0.18815   0.00000  Uiso   1.00
N495   N     0.98173   0.84735   0.26212   0.00000  Uiso   1.00
N496   N     0.68494   0.81932   0.23788   0.00000  Uiso   1.00
O497   O     0.79482   0.90476   0.24686   0.00000  Uiso   1.00
O498   O     0.87185   0.76191   0.25314   0.00000  Uiso   1.00
O499   O     0.89496   0.91420   0.25502   0.00000  Uiso   1.00
O500   O     0.77171   0.75247   0.24498   0.00000  Uiso   1.00
O501   O     0.75518   0.82597   0.30855   0.00000  Uiso   1.00
O502   O     0.91149   0.84070   0.19145   0.00000  Uiso   1.00
O503   O     0.85532   0.83540   0.31671   0.00000  Uiso   1.00
O504   O     0.81134   0.83126   0.18329   0.00000  Uiso   1.00
C505   C     0.18171   0.26669   0.75144   0.00000  Uiso   1.00
C506   C     0.20568   0.17205   0.66696   0.00000  Uiso   1.00
C507   C     0.10319   0.15323   0.88070   0.00000  Uiso   1.00
C508   C     0.23015   0.18010   0.61930   0.00000  Uiso   1.00
C509   C     0.02523   0.11502   0.94466   0.00000  Uiso   1.00
C510   C     0.30810   0.21831   0.55534   0.00000  Uiso   1.00
C511   C     0.04182   0.12431   0.89977   0.00000  Uiso   1.00
C512   C     0.29151   0.20902   0.60023   0.00000  Uiso   1.00
C513   C     0.14576   0.17148   0.90705   0.00000  Uiso   1.00
C514   C     0.18757   0.16186   0.59295   0.00000  Uiso   1.00
C515   C     0.13105   0.15910   0.95139   0.00000  Uiso   1.00
C516   C     0.15163   0.06665   0.74856   0.00000  Uiso   1.00
C517   C     0.20228   0.17423   0.54861   0.00000  Uiso   1.00
C518   C     0.06906   0.13164   0.97021   0.00000  Uiso   1.00
C519   C     0.26427   0.20170   0.52979   0.00000  Uiso   1.00
C520   C     0.17612   0.17288   0.97740   0.00000  Uiso   1.00
C521   C     0.15721   0.16046   0.52260   0.00000  Uiso   1.00
C522   C     0.00586   0.23211   0.62660   0.00000  Uiso   1.00
C523   C     0.32747   0.10123   0.87340   0.00000  Uiso   1.00
C524   C     0.09367   0.13547   0.54040   0.00000  Uiso   1.00
C525   C     0.23966   0.19787   0.95960   0.00000  Uiso   1.00
C526   C     0.05101   0.12070   0.51448   0.00000  Uiso   1.00
C527   C     0.28232   0.21263   0.98552   0.00000  Uiso   1.00
C528   C     0.18969   0.32282   0.75263   0.00000  Uiso   1.00
C529   C     0.14365   0.01052   0.74737   0.00000  Uiso   1.00
C530   C     0.12766   0.16129   0.83304   0.00000  Uiso   1.00
Cu531  Cu    0.10737   0.16108   0.74516   0.00000  Uiso   1.00
Cu532  Cu    0.22596   0.17225   0.75483   0.00000  Uiso   1.00
H533   H     0.00312   0.10084   0.52942   0.00000  Uiso   1.00
H534   H     0.09966   0.31975   0.74197   0.00000  Uiso   1.00
H535   H     0.02005   0.20008   0.63942   0.00000  Uiso   1.00
H536   H     0.04936   0.25644   0.60640   0.00000  Uiso   1.00
H537   H     0.31908   0.25799   0.65415   0.00000  Uiso   1.00
H538   H     0.31329   0.13326   0.86058   0.00000  Uiso   1.00
H539   H     0.01425   0.07534   0.84585   0.00000  Uiso   1.00
H540   H     0.28397   0.07690   0.89360   0.00000  Uiso   1.00
H541   H     0.33021   0.23250   0.97058   0.00000  Uiso   1.00
H542   H     0.14263   0.13811   0.60830   0.00000  Uiso   1.00
H543   H     0.19070   0.19523   0.89170   0.00000  Uiso   1.00
H544   H     0.31143   0.09363   0.95971   0.00000  Uiso   1.00
H545   H     0.02191   0.23971   0.54029   0.00000  Uiso   1.00
H546   H     0.07463   0.12673   0.57446   0.00000  Uiso   1.00
H547   H     0.25870   0.20661   0.92554   0.00000  Uiso   1.00
H548   H     0.23367   0.01358   0.75803   0.00000  Uiso   1.00
I549   I     0.00411   0.23467   0.81185   0.00000  Uiso   1.00
I550   I     0.32923   0.09866   0.68815   0.00000  Uiso   1.00
N551   N     0.31506   0.18068   0.76212   0.00000  Uiso   1.00
N552   N     0.01827   0.15265   0.73788   0.00000  Uiso   1.00
O553   O     0.12815   0.23809   0.74686   0.00000  Uiso   1.00
O554   O     0.20518   0.09524   0.75314   0.00000  Uiso   1.00
O555   O     0.22829   0.24753   0.75502   0.00000  Uiso   1.00
O556   O     0.10504   0.08580   0.74498   0.00000  Uiso   1.00
O557   O     0.08851   0.15930   0.80855   0.00000  Uiso   1.00
O558   O     0.24482   0.17403   0.69145   0.00000  Uiso   1.00
O559   O     0.18866   0.16874   0.81671   0.00000  Uiso   1.00
O560   O     0.14468   0.16460   0.68329   0.00000  Uiso   1.00
C561   C     0.51504   0.26669   0.75144   0.00000  Uiso   1.00
C562   C     0.53901   0.17205   0.66696   0.00000  Uiso   1.00
C563   C     0.43652   0.15323   0.88070   0.00000  Uiso   1.00
C564   C     0.56348   0.18010   0.61930   0.00000  Uiso   1.00
C565   C     0.35856   0.11502   0.94466   0.00000  Uiso   1.00
C566   C     0.64144   0.21831   0.55534   0.00000  Uiso   1.00
C567   C     0.37515   0.12431   0.89977   0.00000  Uiso   1.00
C568   C     0.62485   0.20902   0.60023   0.00000  Uiso   1.00
C569   C     0.47909   0.17148   0.90705   0.00000  Uiso   1.00
C570   C     0.52091   0.16186   0.59295   0.00000  Uiso   1.00
C571   C     0.46439   0.15910   0.95139   0.00000  Uiso   1.00
C572   C     0.48496   0.06665   0.74856   0.00000  Uiso   1.00
C573   C     0.53561   0.17423   0.54861   0.00000  Uiso   1.00
C574   C     0.40239   0.13164   0.97021   0.00000  Uiso   1.00
C575   C     0.59761   0.20170   0.52979   0.00000  Uiso   1.00
C576   C     0.50946   0.17288   0.97740   0.00000  Uiso   1.00
C577   C     0.49054   0.16046   0.52260   0.00000  Uiso   1.00
C578   C     0.33920   0.23211   0.62660   0.00000  Uiso   1.00
C579   C     0.66080   0.10123   0.87340   0.00000  Uiso   1.00
C580   C     0.42700   0.13547   0.54040   0.00000  Uiso   1.00
C581   C     0.57300   0.19787   0.95960   0.00000  Uiso   1.00
C582   C     0.38434   0.12070   0.51448   0.00000  Uiso   1.00
C583   C     0.61566   0.21263   0.98552   0.00000  Uiso   1.00
C584   C     0.52302   0.32282   0.75263   0.00000  Uiso   1.00
C585   C     0.47698   0.01052   0.74737   0.00000  Uiso   1.00
C586   C     0.46099   0.16129   0.83304   0.00000  Uiso   1.00
Cu587  Cu    0.44071   0.16108   0.74516   0.00000  Uiso   1.00
Cu588  Cu    0.55929   0.17225   0.75483   0.00000  Uiso   1.00
H589   H     0.33645   0.10084   0.52942   0.00000  Uiso   1.00
H590   H     0.43300   0.31975   0.74197   0.00000  Uiso   1.00
H591   H     0.35338   0.20008   0.63942   0.00000  Uiso   1.00
H592   H     0.38269   0.25644   0.60640   0.00000  Uiso   1.00
H593   H     0.65242   0.25799   0.65415   0.00000  Uiso   1.00
H594   H     0.64662   0.13326   0.86058   0.00000  Uiso   1.00
H595   H     0.34758   0.07534   0.84585   0.00000  Uiso   1.00
H596   H     0.61731   0.07690   0.89360   0.00000  Uiso   1.00
H597   H     0.66355   0.23250   0.97058   0.00000  Uiso   1.00
H598   H     0.47597   0.13811   0.60830   0.00000  Uiso   1.00
H599   H     0.52403   0.19523   0.89170   0.00000  Uiso   1.00
H600   H     0.64476   0.09363   0.95971   0.00000  Uiso   1.00
H601   H     0.35524   0.23971   0.54029   0.00000  Uiso   1.00
H602   H     0.40797   0.12673   0.57446   0.00000  Uiso   1.00
H603   H     0.59203   0.20661   0.92554   0.00000  Uiso   1.00
H604   H     0.56700   0.01358   0.75803   0.00000  Uiso   1.00
I605   I     0.33744   0.23467   0.81185   0.00000  Uiso   1.00
I606   I     0.66256   0.09866   0.68815   0.00000  Uiso   1.00
N607   N     0.64839   0.18068   0.76212   0.00000  Uiso   1.00
N608   N     0.35161   0.15265   0.73788   0.00000  Uiso   1.00
O609   O     0.46148   0.23809   0.74686   0.00000  Uiso   1.00
O610   O     0.53852   0.09524   0.75314   0.00000  Uiso   1.00
O611   O     0.56163   0.24753   0.75502   0.00000  Uiso   1.00
O612   O     0.43837   0.08580   0.74498   0.00000  Uiso   1.00
O613   O     0.42185   0.15930   0.80855   0.00000  Uiso   1.00
O614   O     0.57815   0.17403   0.69145   0.00000  Uiso   1.00
O615   O     0.52199   0.16874   0.81671   0.00000  Uiso   1.00
O616   O     0.47801   0.16460   0.68329   0.00000  Uiso   1.00
C617   C     0.84837   0.26669   0.75144   0.00000  Uiso   1.00
C618   C     0.87234   0.17205   0.66696   0.00000  Uiso   1.00
C619   C     0.76985   0.15323   0.88070   0.00000  Uiso   1.00
C620   C     0.89681   0.18010   0.61930   0.00000  Uiso   1.00
C621   C     0.69190   0.11502   0.94466   0.00000  Uiso   1.00
C622   C     0.97477   0.21831   0.55534   0.00000  Uiso   1.00
C623   C     0.70849   0.12431   0.89977   0.00000  Uiso   1.00
C624   C     0.95818   0.20902   0.60023   0.00000  Uiso   1.00
C625   C     0.81243   0.17148   0.90705   0.00000  Uiso   1.00
C626   C     0.85424   0.16186   0.59295   0.00000  Uiso   1.00
C627   C     0.79772   0.15910   0.95139   0.00000  Uiso   1.00
C628   C     0.81829   0.06665   0.74856   0.00000  Uiso   1.00
C629   C     0.86895   0.17423   0.54861   0.00000  Uiso   1.00
C630   C     0.73573   0.13164   0.97021   0.00000  Uiso   1.00
C631   C     0.93094   0.20170   0.52979   0.00000  Uiso   1.00
C632   C     0.84279   0.17288   0.97740   0.00000  Uiso   1.00
C633   C     0.82388   0.16046   0.52260   0.00000  Uiso   1.00
C634   C     0.67253   0.23211   0.62660   0.00000  Uiso   1.00
C635   C     0.99414   0.10123   0.87340   0.00000  Uiso   1.00
C636   C     0.76034   0.13547   0.54040   0.00000  Uiso   1.00
C637   C     0.90633   0.19787   0.95960   0.00000  Uiso   1.00
C638   C     0.71768   0.12070   0.51448   0.00000  Uiso   1.00
C639   C     0.94899   0.21263   0.98552   0.00000  Uiso   1.00
C640   C     0.85635   0.32282   0.75263   0.00000  Uiso   1.00
C641   C     0.81032   0.01052   0.74737   0.00000  Uiso   1.00
C642   C     0.79432   0.16129   0.83304   0.00000  Uiso   1.00
Cu643  Cu    0.77404   0.16108   0.74516   0.00000  Uiso   1.00
Cu644  Cu    0.89263   0.17225   0.75483   0.00000  Uiso   1.00
H645   H     0.66979   0.10084   0.52942   0.00000  Uiso   1.00
H646   H     0.76633   0.31975   0.74197   0.00000  Uiso   1.00
H647   H     0.68671   0.20008   0.63942   0.00000  Uiso   1.00
H648   H     0.71603   0.25644   0.60640   0.00000  Uiso   1.00
H649   H     0.98575   0.25799   0.65415   0.00000  Uiso   1.00
H650   H     0.97995   0.13326   0.86058   0.00000  Uiso   1.00
H651   H     0.68092   0.07534   0.84585   0.00000  Uiso   1.00
H652   H     0.95064   0.07690   0.89360   0.00000  Uiso   1.00
H653   H     0.99688   0.23250   0.97058   0.00000  Uiso   1.00
H654   H     0.80930   0.13811   0.60830   0.00000  Uiso   1.00
H655   H     0.85737   0.19523   0.89170   0.00000  Uiso   1.00
H656   H     0.97809   0.09363   0.95971   0.00000  Uiso   1.00
H657   H     0.68857   0.23971   0.54029   0.00000  Uiso   1.00
H658   H     0.74130   0.12673   0.57446   0.00000  Uiso   1.00
H659   H     0.92537   0.20661   0.92554   0.00000  Uiso   1.00
H660   H     0.90034   0.01358   0.75803   0.00000  Uiso   1.00
I661   I     0.67077   0.23467   0.81185   0.00000  Uiso   1.00
I662   I     0.99589   0.09866   0.68815   0.00000  Uiso   1.00
N663   N     0.98173   0.18068   0.76212   0.00000  Uiso   1.00
N664   N     0.68494   0.15265   0.73788   0.00000  Uiso   1.00
O665   O     0.79482   0.23809   0.74686   0.00000  Uiso   1.00
O666   O     0.87185   0.09524   0.75314   0.00000  Uiso   1.00
O667   O     0.89496   0.24753   0.75502   0.00000  Uiso   1.00
O668   O     0.77171   0.08580   0.74498   0.00000  Uiso   1.00
O669   O     0.75518   0.15930   0.80855   0.00000  Uiso   1.00
O670   O     0.91149   0.17403   0.69145   0.00000  Uiso   1.00
O671   O     0.85532   0.16874   0.81671   0.00000  Uiso   1.00
O672   O     0.81134   0.16460   0.68329   0.00000  Uiso   1.00
C673   C     0.18171   0.60002   0.75144   0.00000  Uiso   1.00
C674   C     0.20568   0.50538   0.66696   0.00000  Uiso   1.00
C675   C     0.10319   0.48657   0.88070   0.00000  Uiso   1.00
C676   C     0.23015   0.51343   0.61930   0.00000  Uiso   1.00
C677   C     0.02523   0.44836   0.94466   0.00000  Uiso   1.00
C678   C     0.30810   0.55165   0.55534   0.00000  Uiso   1.00
C679   C     0.04182   0.45765   0.89977   0.00000  Uiso   1.00
C680   C     0.29151   0.54235   0.60023   0.00000  Uiso   1.00
C681   C     0.14576   0.50481   0.90705   0.00000  Uiso   1.00
C682   C     0.18757   0.49519   0.59295   0.00000  Uiso   1.00
C683   C     0.13105   0.49244   0.95139   0.00000  Uiso   1.00
C684   C     0.15163   0.39998   0.74856   0.00000  Uiso   1.00
C685   C     0.20228   0.50756   0.54861   0.00000  Uiso   1.00
C686   C     0.06906   0.46497   0.97021   0.00000  Uiso   1.00
C687   C     0.26427   0.53503   0.52979   0.00000  Uiso   1.00
C688   C     0.17612   0.50621   0.97740   0.00000  Uiso   1.00
C689   C     0.15721   0.49379   0.52260   0.00000  Uiso   1.00
C690   C     0.00586   0.56544   0.62660   0.00000  Uiso   1.00
C691   C     0.32747   0.43456   0.87340   0.00000  Uiso   1.00
C692   C     0.09367   0.46880   0.54040   0.00000  Uiso   1.00
C693   C     0.23966   0.53120   0.95960   0.00000  Uiso   1.00
C694   C     0.05101   0.45404   0.51448   0.00000  Uiso   1.00
C695   C     0.28232   0.54596   0.98552   0.00000  Uiso   1.00
C696   C     0.18969   0.65615   0.75263   0.00000  Uiso   1.00
C697   C     0.14365   0.34385   0.74737   0.00000  Uiso   1.00
C698   C     0.12766   0.49462   0.83304   0.00000  Uiso   1.00
Cu699  Cu    0.10737   0.49441   0.74516   0.00000  Uiso   1.00
Cu700  Cu    0.22596   0.50559   0.75483   0.00000  Uiso   1.00
H701   H     0.00312   0.43417   0.52942   0.00000  Uiso   1.00
H702   H     0.09966   0.65309   0.74197   0.00000  Uiso   1.00
H703   H     0.02005   0.53341   0.63942   0.00000  Uiso   1.00
H704   H     0.04936   0.58977   0.60640   0.00000  Uiso   1.00
H705   H     0.31908   0.59133   0.65415   0.00000  Uiso   1.00
H706   H     0.31329   0.46659   0.86058   0.00000  Uiso   1.00
H707   H     0.01425   0.40867   0.84585   0.00000  Uiso   1.00
H708   H     0.28397   0.41023   0.89360   0.00000  Uiso   1.00
H709   H     0.33021   0.56583   0.97058   0.00000  Uiso   1.00
H710   H     0.14263   0.47144   0.60830   0.00000  Uiso   1.00
H711   H     0.19070   0.52856   0.89170   0.00000  Uiso   1.00
H712   H     0.31143   0.42696   0.95971   0.00000  Uiso   1.00
H713   H     0.02191   0.57304   0.54029   0.00000  Uiso   1.00
H714   H     0.07463   0.46006   0.57446   0.00000  Uiso   1.00
H715   H     0.25870   0.53994   0.92554   0.00000  Uiso   1.00
H716   H     0.23367   0.34691   0.75803   0.00000  Uiso   1.00
I717   I     0.00411   0.56800   0.81185   0.00000  Uiso   1.00
I718   I     0.32923   0.43200   0.68815   0.00000  Uiso   1.00
N719   N     0.31506   0.51401   0.76212   0.00000  Uiso   1.00
N720   N     0.01827   0.48599   0.73788   0.00000  Uiso   1.00
O721   O     0.12815   0.57142   0.74686   0.00000  Uiso   1.00
O722   O     0.20518   0.42858   0.75314   0.00000  Uiso   1.00
O723   O     0.22829   0.58086   0.75502   0.00000  Uiso   1.00
O724   O     0.10504   0.41914   0.74498   0.00000  Uiso   1.00
O725   O     0.08851   0.49263   0.80855   0.00000  Uiso   1.00
O726   O     0.24482   0.50737   0.69145   0.00000  Uiso   1.00
O727   O     0.18866   0.50207   0.81671   0.00000  Uiso   1.00
O728   O     0.14468   0.49793   0.68329   0.00000  Uiso   1.00
C729   C     0.51504   0.60002   0.75144   0.00000  Uiso   1.00
C730   C     0.53901   0.50538   0.66696   0.00000  Uiso   1.00
C731   C     0.43652   0.48657   0.88070   0.00000  Uiso   1.00
C732   C     0.56348   0.51343   0.61930   0.00000  Uiso   1.00
C733   C     0.35856   0.44836   0.94466   0.00000  Uiso   1.00
C734   C     0.64144   0.55165   0.55534   0.00000  Uiso   1.00
C735   C     0.37515   0.45765   0.89977   0.00000  Uiso   1.00
C736   C     0.62485   0.54235   0.60023   0.00000  Uiso   1.00
C737   C     0.47909   0.50481   0.90705   0.00000  Uiso   1.00
C738   C     0.52091   0.49519   0.59295   0.00000  Uiso   1.00
C739   C     0.46439   0.49244   0.95139   0.00000  Uiso   1.00
C740   C     0.48496   0.39998   0.74856   0.00000  Uiso   1.00
C741   C     0.53561   0.50756   0.54861   0.00000  Uiso   1.00
C742   C     0.40239   0.46497   0.97021   0.00000  Uiso   1.00
C743   C     0.59761   0.53503   0.52979   0.00000  Uiso   1.00
C744   C     0.50946   0.50621   0.97740   0.00000  Uiso   1.00
C745   C     0.49054   0.49379   0.52260   0.00000  Uiso   1.00
C746   C     0.33920   0.56544   0.62660   0.00000  Uiso   1.00
C747   C     0.66080   0.43456   0.87340   0.00000  Uiso   1.00
C748   C     0.42700   0.46880   0.54040   0.00000  Uiso   1.00
C749   C     0.57300   0.53120   0.95960   0.00000  Uiso   1.00
C750   C     0.38434   0.45404   0.51448   0.00000  Uiso   1.00
C751   C     0.61566   0.54596   0.98552   0.00000  Uiso   1.00
C752   C     0.52302   0.65615   0.75263   0.00000  Uiso   1.00
C753   C     0.47698   0.34385   0.74737   0.00000  Uiso   1.00
C754   C     0.46099   0.49462   0.83304   0.00000  Uiso   1.00
Cu755  Cu    0.44071   0.49441   0.74516   0.00000  Uiso   1.00
Cu756  Cu    0.55929   0.50559   0.75483   0.00000  Uiso   1.00
H757   H     0.33645   0.43417   0.52942   0.00000  Uiso   1.00
H758   H     0.43300   0.65309   0.74197   0.00000  Uiso   1.00
H759   H     0.35338   0.53341   0.63942   0.00000  Uiso   1.00
H760   H     0.38269   0.58977   0.60640   0.00000  Uiso   1.00
H761   H     0.65242   0.59133   0.65415   0.00000  Uiso   1.00
H762   H     0.64662   0.46659   0.86058   0.00000  Uiso   1.00
H763   H     0.34758   0.40867   0.84585   0.00000  Uiso   1.00
H764   H     0.61731   0.41023   0.89360   0.00000  Uiso   1.00
H765   H     0.66355   0.56583   0.97058   0.00000  Uiso   1.00
H766   H     0.47597   0.47144   0.60830   0.00000  Uiso   1.00
H767   H     0.52403   0.52856   0.89170   0.00000  Uiso   1.00
H768   H     0.64476   0.42696   0.95971   0.00000  Uiso   1.00
H769   H     0.35524   0.57304   0.54029   0.00000  Uiso   1.00
H770   H     0.40797   0.46006   0.57446   0.00000  Uiso   1.00
H771   H     0.59203   0.53994   0.92554   0.00000  Uiso   1.00
H772   H     0.56700   0.34691   0.75803   0.00000  Uiso   1.00
I773   I     0.33744   0.56800   0.81185   0.00000  Uiso   1.00
I774   I     0.66256   0.43200   0.68815   0.00000  Uiso   1.00
N775   N     0.64839   0.51401   0.76212   0.00000  Uiso   1.00
N776   N     0.35161   0.48599   0.73788   0.00000  Uiso   1.00
O777   O     0.46148   0.57142   0.74686   0.00000  Uiso   1.00
O778   O     0.53852   0.42858   0.75314   0.00000  Uiso   1.00
O779   O     0.56163   0.58086   0.75502   0.00000  Uiso   1.00
O780   O     0.43837   0.41914   0.74498   0.00000  Uiso   1.00
O781   O     0.42185   0.49263   0.80855   0.00000  Uiso   1.00
O782   O     0.57815   0.50737   0.69145   0.00000  Uiso   1.00
O783   O     0.52199   0.50207   0.81671   0.00000  Uiso   1.00
O784   O     0.47801   0.49793   0.68329   0.00000  Uiso   1.00
C785   C     0.84837   0.60002   0.75144   0.00000  Uiso   1.00
C786   C     0.87234   0.50538   0.66696   0.00000  Uiso   1.00
C787   C     0.76985   0.48657   0.88070   0.00000  Uiso   1.00
C788   C     0.89681   0.51343   0.61930   0.00000  Uiso   1.00
C789   C     0.69190   0.44836   0.94466   0.00000  Uiso   1.00
C790   C     0.97477   0.55165   0.55534   0.00000  Uiso   1.00
C791   C     0.70849   0.45765   0.89977   0.00000  Uiso   1.00
C792   C     0.95818   0.54235   0.60023   0.00000  Uiso   1.00
C793   C     0.81243   0.50481   0.90705   0.00000  Uiso   1.00
C794   C     0.85424   0.49519   0.59295   0.00000  Uiso   1.00
C795   C     0.79772   0.49244   0.95139   0.00000  Uiso   1.00
C796   C     0.81829   0.39998   0.74856   0.00000  Uiso   1.00
C797   C     0.86895   0.50756   0.54861   0.00000  Uiso   1.00
C798   C     0.73573   0.46497   0.97021   0.00000  Uiso   1.00
C799   C     0.93094   0.53503   0.52979   0.00000  Uiso   1.00
C800   C     0.84279   0.50621   0.97740   0.00000  Uiso   1.00
C801   C     0.82388   0.49379   0.52260   0.00000  Uiso   1.00
C802   C     0.67253   0.56544   0.62660   0.00000  Uiso   1.00
C803   C     0.99414   0.43456   0.87340   0.00000  Uiso   1.00
C804   C     0.76034   0.46880   0.54040   0.00000  Uiso   1.00
C805   C     0.90633   0.53120   0.95960   0.00000  Uiso   1.00
C806   C     0.71768   0.45404   0.51448   0.00000  Uiso   1.00
C807   C     0.94899   0.54596   0.98552   0.00000  Uiso   1.00
C808   C     0.85635   0.65615   0.75263   0.00000  Uiso   1.00
C809   C     0.81032   0.34385   0.74737   0.00000  Uiso   1.00
C810   C     0.79432   0.49462   0.83304   0.00000  Uiso   1.00
Cu811  Cu    0.77404   0.49441   0.74516   0.00000  Uiso   1.00
Cu812  Cu    0.89263   0.50559   0.75483   0.00000  Uiso   1.00
H813   H     0.66979   0.43417   0.52942   0.00000  Uiso   1.00
H814   H     0.76633   0.65309   0.74197   0.00000  Uiso   1.00
H815   H     0.68671   0.53341   0.63942   0.00000  Uiso   1.00
H816   H     0.71603   0.58977   0.60640   0.00000  Uiso   1.00
H817   H     0.98575   0.59133   0.65415   0.00000  Uiso   1.00
H818   H     0.97995   0.46659   0.86058   0.00000  Uiso   1.00
H819   H     0.68092   0.40867   0.84585   0.00000  Uiso   1.00
H820   H     0.95064   0.41023   0.89360   0.00000  Uiso   1.00
H821   H     0.99688   0.56583   0.97058   0.00000  Uiso   1.00
H822   H     0.80930   0.47144   0.60830   0.00000  Uiso   1.00
H823   H     0.85737   0.52856   0.89170   0.00000  Uiso   1.00
H824   H     0.97809   0.42696   0.95971   0.00000  Uiso   1.00
H825   H     0.68857   0.57304   0.54029   0.00000  Uiso   1.00
H826   H     0.74130   0.46006   0.57446   0.00000  Uiso   1.00
H827   H     0.92537   0.53994   0.92554   0.00000  Uiso   1.00
H828   H     0.90034   0.34691   0.75803   0.00000  Uiso   1.00
I829   I     0.67077   0.56800   0.81185   0.00000  Uiso   1.00
I830   I     0.99589   0.43200   0.68815   0.00000  Uiso   1.00
N831   N     0.98173   0.51401   0.76212   0.00000  Uiso   1.00
N832   N     0.68494   0.48599   0.73788   0.00000  Uiso   1.00
O833   O     0.79482   0.57142   0.74686   0.00000  Uiso   1.00
O834   O     0.87185   0.42858   0.75314   0.00000  Uiso   1.00
O835   O     0.89496   0.58086   0.75502   0.00000  Uiso   1.00
O836   O     0.77171   0.41914   0.74498   0.00000  Uiso   1.00
O837   O     0.75518   0.49263   0.80855   0.00000  Uiso   1.00
O838   O     0.91149   0.50737   0.69145   0.00000  Uiso   1.00
O839   O     0.85532   0.50207   0.81671   0.00000  Uiso   1.00
O840   O     0.81134   0.49793   0.68329   0.00000  Uiso   1.00
C841   C     0.18171   0.93335   0.75144   0.00000  Uiso   1.00
C842   C     0.20568   0.83871   0.66696   0.00000  Uiso   1.00
C843   C     0.10319   0.81990   0.88070   0.00000  Uiso   1.00
C844   C     0.23015   0.84677   0.61930   0.00000  Uiso   1.00
C845   C     0.02523   0.78169   0.94466   0.00000  Uiso   1.00
C846   C     0.30810   0.88498   0.55534   0.00000  Uiso   1.00
C847   C     0.04182   0.79098   0.89977   0.00000  Uiso   1.00
C848   C     0.29151   0.87569   0.60023   0.00000  Uiso   1.00
C849   C     0.14576   0.83814   0.90705   0.00000  Uiso   1.00
C850   C     0.18757   0.82852   0.59295   0.00000  Uiso   1.00
C851   C     0.13105   0.82577   0.95139   0.00000  Uiso   1.00
C852   C     0.15163   0.73331   0.74856   0.00000  Uiso   1.00
C853   C     0.20228   0.84090   0.54861   0.00000  Uiso   1.00
C854   C     0.06906   0.79831   0.97021   0.00000  Uiso   1.00
C855   C     0.26427   0.86836   0.52979   0.00000  Uiso   1.00
C856   C     0.17612   0.83954   0.97740   0.00000  Uiso   1.00
C857   C     0.15721   0.82713   0.52260   0.00000  Uiso   1.00
C858   C     0.00586   0.89877   0.62660   0.00000  Uiso   1.00
C859   C     0.32747   0.76789   0.87340   0.00000  Uiso   1.00
C860   C     0.09367   0.80213   0.54040   0.00000  Uiso   1.00
C861   C     0.23966   0.86453   0.95960   0.00000  Uiso   1.00
C862   C     0.05101   0.78737   0.51448   0.00000  Uiso   1.00
C863   C     0.28232   0.87930   0.98552   0.00000  Uiso   1.00
C864   C     0.18969   0.98948   0.75263   0.00000  Uiso   1.00
C865   C     0.14365   0.67718   0.74737   0.00000  Uiso   1.00
C866   C     0.12766   0.82795   0.83304   0.00000  Uiso   1.00
Cu867  Cu    0.10737   0.82775   0.74516   0.00000  Uiso   1.00
Cu868  Cu    0.22596   0.83892   0.75483   0.00000  Uiso   1.00
H869   H     0.00312   0.76750   0.52942   0.00000  Uiso   1.00
H870   H     0.09966   0.98642   0.74197   0.00000  Uiso   1.00
H871   H     0.02005   0.86674   0.63942   0.00000  Uiso   1.00
H872   H     0.04936   0.92311   0.60640   0.00000  Uiso   1.00
H873   H     0.31908   0.92466   0.65415   0.00000  Uiso   1.00
H874   H     0.31329   0.79992   0.86058   0.00000  Uiso   1.00
H875   H     0.01425   0.74201   0.84585   0.00000  Uiso   1.00
H876   H     0.28397   0.74356   0.89360   0.00000  Uiso   1.00
H877   H     0.33021   0.89917   0.97058   0.00000  Uiso   1.00
H878   H     0.14263   0.80477   0.60830   0.00000  Uiso   1.00
H879   H     0.19070   0.86189   0.89170   0.00000  Uiso   1.00
H880   H     0.31143   0.76029   0.95971   0.00000  Uiso   1.00
H881   H     0.02191   0.90637   0.54029   0.00000  Uiso   1.00
H882   H     0.07463   0.79339   0.57446   0.00000  Uiso   1.00
H883   H     0.25870   0.87327   0.92554   0.00000  Uiso   1.00
H884   H     0.23367   0.68025   0.75803   0.00000  Uiso   1.00
I885   I     0.00411   0.90134   0.81185   0.00000  Uiso   1.00
I886   I     0.32923   0.76533   0.68815   0.00000  Uiso   1.00
N887   N     0.31506   0.84735   0.76212   0.00000  Uiso   1.00
N888   N     0.01827   0.81932   0.73788   0.00000  Uiso   1.00
O889   O     0.12815   0.90476   0.74686   0.00000  Uiso   1.00
O890   O     0.20518   0.76191   0.75314   0.00000  Uiso   1.00
O891   O     0.22829   0.91420   0.75502   0.00000  Uiso   1.00
O892   O     0.10504   0.75247   0.74498   0.00000  Uiso   1.00
O893   O     0.08851   0.82597   0.80855   0.00000  Uiso   1.00
O894   O     0.24482   0.84070   0.69145   0.00000  Uiso   1.00
O895   O     0.18866   0.83540   0.81671   0.00000  Uiso   1.00
O896   O     0.14468   0.83126   0.68329   0.00000  Uiso   1.00
C897   C     0.51504   0.93335   0.75144   0.00000  Uiso   1.00
C898   C     0.53901   0.83871   0.66696   0.00000  Uiso   1.00
C899   C     0.43652   0.81990   0.88070   0.00000  Uiso   1.00
C900   C     0.56348   0.84677   0.61930   0.00000  Uiso   1.00
C901   C     0.35856   0.78169   0.94466   0.00000  Uiso   1.00
C902   C     0.64144   0.88498   0.55534   0.00000  Uiso   1.00
C903   C     0.37515   0.79098   0.89977   0.00000  Uiso   1.00
C904   C     0.62485   0.87569   0.60023   0.00000  Uiso   1.00
C905   C     0.47909   0.83814   0.90705   0.00000  Uiso   1.00
C906   C     0.52091   0.82852   0.59295   0.00000  Uiso   1.00
C907   C     0.46439   0.82577   0.95139   0.00000  Uiso   1.00
C908   C     0.48496   0.73331   0.74856   0.00000  Uiso   1.00
C909   C     0.53561   0.84090   0.54861   0.00000  Uiso   1.00
C910   C     0.40239   0.79831   0.97021   0.00000  Uiso   1.00
C911   C     0.59761   0.86836   0.52979   0.00000  Uiso   1.00
C912   C     0.50946   0.83954   0.97740   0.00000  Uiso   1.00
C913   C     0.49054   0.82713   0.52260   0.00000  Uiso   1.00
C914   C     0.33920   0.89877   0.62660   0.00000  Uiso   1.00
C915   C     0.66080   0.76789   0.87340   0.00000  Uiso   1.00
C916   C     0.42700   0.80213   0.54040   0.00000  Uiso   1.00
C917   C     0.57300   0.86453   0.95960   0.00000  Uiso   1.00
C918   C     0.38434   0.78737   0.51448   0.00000  Uiso   1.00
C919   C     0.61566   0.87930   0.98552   0.00000  Uiso   1.00
C920   C     0.52302   0.98948   0.75263   0.00000  Uiso   1.00
C921   C     0.47698   0.67718   0.74737   0.00000  Uiso   1.00
C922   C     0.46099   0.82795   0.83304   0.00000  Uiso   1.00
Cu923  Cu    0.44071   0.82775   0.74516   0.00000  Uiso   1.00
Cu924  Cu    0.55929   0.83892   0.75483   0.00000  Uiso   1.00
H925   H     0.33645   0.76750   0.52942   0.00000  Uiso   1.00
H926   H     0.43300   0.98642   0.74197   0.00000  Uiso   1.00
H927   H     0.35338   0.86674   0.63942   0.00000  Uiso   1.00
H928   H     0.38269   0.92311   0.60640   0.00000  Uiso   1.00
H929   H     0.65242   0.92466   0.65415   0.00000  Uiso   1.00
H930   H     0.64662   0.79992   0.86058   0.00000  Uiso   1.00
H931   H     0.34758   0.74201   0.84585   0.00000  Uiso   1.00
H932   H     0.61731   0.74356   0.89360   0.00000  Uiso   1.00
H933   H     0.66355   0.89917   0.97058   0.00000  Uiso   1.00
H934   H     0.47597   0.80477   0.60830   0.00000  Uiso   1.00
H935   H     0.52403   0.86189   0.89170   0.00000  Uiso   1.00
H936   H     0.64476   0.76029   0.95971   0.00000  Uiso   1.00
H937   H     0.35524   0.90637   0.54029   0.00000  Uiso   1.00
H938   H     0.40797   0.79339   0.57446   0.00000  Uiso   1.00
H939   H     0.59203   0.87327   0.92554   0.00000  Uiso   1.00
H940   H     0.56700   0.68025   0.75803   0.00000  Uiso   1.00
I941   I     0.33744   0.90134   0.81185   0.00000  Uiso   1.00
I942   I     0.66256   0.76533   0.68815   0.00000  Uiso   1.00
N943   N     0.64839   0.84735   0.76212   0.00000  Uiso   1.00
N944   N     0.35161   0.81932   0.73788   0.00000  Uiso   1.00
O945   O     0.46148   0.90476   0.74686   0.00000  Uiso   1.00
O946   O     0.53852   0.76191   0.75314   0.00000  Uiso   1.00
O947   O     0.56163   0.91420   0.75502   0.00000  Uiso   1.00
O948   O     0.43837   0.75247   0.74498   0.00000  Uiso   1.00
O949   O     0.42185   0.82597   0.80855   0.00000  Uiso   1.00
O950   O     0.57815   0.84070   0.69145   0.00000  Uiso   1.00
O951   O     0.52199   0.83540   0.81671   0.00000  Uiso   1.00
O952   O     0.47801   0.83126   0.68329   0.00000  Uiso   1.00
C953   C     0.84837   0.93335   0.75144   0.00000  Uiso   1.00
C954   C     0.87234   0.83871   0.66696   0.00000  Uiso   1.00
C955   C     0.76985   0.81990   0.88070   0.00000  Uiso   1.00
C956   C     0.89681   0.84677   0.61930   0.00000  Uiso   1.00
C957   C     0.69190   0.78169   0.94466   0.00000  Uiso   1.00
C958   C     0.97477   0.88498   0.55534   0.00000  Uiso   1.00
C959   C     0.70849   0.79098   0.89977   0.00000  Uiso   1.00
C960   C     0.95818   0.87569   0.60023   0.00000  Uiso   1.00
C961   C     0.81243   0.83814   0.90705   0.00000  Uiso   1.00
C962   C     0.85424   0.82852   0.59295   0.00000  Uiso   1.00
C963   C     0.79772   0.82577   0.95139   0.00000  Uiso   1.00
C964   C     0.81829   0.73331   0.74856   0.00000  Uiso   1.00
C965   C     0.86895   0.84090   0.54861   0.00000  Uiso   1.00
C966   C     0.73573   0.79831   0.97021   0.00000  Uiso   1.00
C967   C     0.93094   0.86836   0.52979   0.00000  Uiso   1.00
C968   C     0.84279   0.83954   0.97740   0.00000  Uiso   1.00
C969   C     0.82388   0.82713   0.52260   0.00000  Uiso   1.00
C970   C     0.67253   0.89877   0.62660   0.00000  Uiso   1.00
C971   C     0.99414   0.76789   0.87340   0.00000  Uiso   1.00
C972   C     0.76034   0.80213   0.54040   0.00000  Uiso   1.00
C973   C     0.90633   0.86453   0.95960   0.00000  Uiso   1.00
C974   C     0.71768   0.78737   0.51448   0.00000  Uiso   1.00
C975   C     0.94899   0.87930   0.98552   0.00000  Uiso   1.00
C976   C     0.85635   0.98948   0.75263   0.00000  Uiso   1.00
C977   C     0.81032   0.67718   0.74737   0.00000  Uiso   1.00
C978   C     0.79432   0.82795   0.83304   0.00000  Uiso   1.00
Cu979  Cu    0.77404   0.82775   0.74516   0.00000  Uiso   1.00
Cu980  Cu    0.89263   0.83892   0.75483   0.00000  Uiso   1.00
H981   H     0.66979   0.76750   0.52942   0.00000  Uiso   1.00
H982   H     0.76633   0.98642   0.74197   0.00000  Uiso   1.00
H983   H     0.68671   0.86674   0.63942   0.00000  Uiso   1.00
H984   H     0.71603   0.92311   0.60640   0.00000  Uiso   1.00
H985   H     0.98575   0.92466   0.65415   0.00000  Uiso   1.00
H986   H     0.97995   0.79992   0.86058   0.00000  Uiso   1.00
H987   H     0.68092   0.74201   0.84585   0.00000  Uiso   1.00
H988   H     0.95064   0.74356   0.89360   0.00000  Uiso   1.00
H989   H     0.99688   0.89917   0.97058   0.00000  Uiso   1.00
H990   H     0.80930   0.80477   0.60830   0.00000  Uiso   1.00
H991   H     0.85737   0.86189   0.89170   0.00000  Uiso   1.00
H992   H     0.97809   0.76029   0.95971   0.00000  Uiso   1.00
H993   H     0.68857   0.90637   0.54029   0.00000  Uiso   1.00
H994   H     0.74130   0.79339   0.57446   0.00000  Uiso   1.00
H995   H     0.92537   0.87327   0.92554   0.00000  Uiso   1.00
H996   H     0.90034   0.68025   0.75803   0.00000  Uiso   1.00
I997   I     0.67077   0.90134   0.81185   0.00000  Uiso   1.00
I998   I     0.99589   0.76533   0.68815   0.00000  Uiso   1.00
N999   N     0.98173   0.84735   0.76212   0.00000  Uiso   1.00
N1000  N     0.68494   0.81932   0.73788   0.00000  Uiso   1.00
O1001  O     0.79482   0.90476   0.74686   0.00000  Uiso   1.00
O1002  O     0.87185   0.76191   0.75314   0.00000  Uiso   1.00
O1003  O     0.89496   0.91420   0.75502   0.00000  Uiso   1.00
O1004  O     0.77171   0.75247   0.74498   0.00000  Uiso   1.00
O1005  O     0.75518   0.82597   0.80855   0.00000  Uiso   1.00
O1006  O     0.91149   0.84070   0.69145   0.00000  Uiso   1.00
O1007  O     0.85532   0.83540   0.81671   0.00000  Uiso   1.00
O1008  O     0.81134   0.83126   0.68329   0.00000  Uiso   1.00
loop_
_geom_bond_atom_site_label_1
_geom_bond_atom_site_label_2
_geom_bond_distance
_geom_bond_site_symmetry_2
_ccdc_geom_bond_type
C1     O51     1.297   .     A
C1     O49     1.297   .     A
C1     C24     1.431   .     S
C2     C4      1.480   .     S
C2     O54     1.307   .     A
C2     O56     1.309   .     A
C3     C9      1.401   .     A
C3     C7      1.418   .     A
C3     C26     1.480   .     S
C4     C10     1.401   .     A
C4     C8      1.418   .     A
C5     C14     1.400   .     A
C5     C7      1.400   .     A
C5     H152    1.085   1_455 S
C6     C8      1.400   .     A
C6     C15     1.400   .     A
C6     H97     1.085   .     S
C7     C131    1.508   1_455 S
C8     C74     1.508   .     S
C9     C11     1.406   .     A
C9     H39     1.074   .     S
C10    H38     1.074   .     S
C10    C13     1.406   .     A
C11    C16     1.429   .     A
C11    C14     1.414   .     A
C12    C25     1.431   .     S
C12    O52     1.297   .     A
C12    O50     1.297   .     A
C13    C17     1.429   .     A
C13    C15     1.414   .     A
C14    C526    1.390   .     S
C15    C527    1.390   1_554 S
C16    C21     1.416   .     A
C16    C521    1.428   .     S
C17    C20     1.416   .     A
C17    C520    1.428   1_554 S
C18    H32     1.111   .     S
C18    H31     1.107   .     S
C18    C120    1.508   1_455 S
C18    H145    1.110   1_455 S
C19    H34     1.107   .     S
C19    H36     1.111   .     S
C19    C63     1.508   .     S
C19    H91     1.110   .     S
C20    H42     1.075   .     S
C20    C22     1.385   .     A
C21    C23     1.385   .     A
C21    H43     1.075   .     S
C22    H29     1.085   .     S
C22    C518    1.390   1_554 S
C23    H37     1.085   .     S
C23    C519    1.390   .     S
C24    C193    1.333   .     S
C24    H212    1.087   .     S
C25    C360    1.333   1_545 S
C25    H366    1.087   1_545 S
C26    O55     1.309   .     A
C26    O53     1.307   .     A
Cu27   N48     2.038   .     S
Cu27   O53     1.938   .     S
Cu27   O52     1.951   .     S
Cu27   O56     1.917   .     S
Cu27   O49     1.952   .     S
Cu27   Cu28    2.712   .     S
Cu28   N47     2.038   .     S
Cu28   O55     1.917   .     S
Cu28   O51     1.951   .     S
Cu28   O54     1.938   .     S
Cu28   O50     1.952   .     S
H30    C193    1.087   .     S
H33    C74     1.110   .     S
H35    C131    1.110   1_455 S
H40    C61     1.085   .     S
H41    C118    1.085   1_455 S
H44    C360    1.087   1_545 S
I45    N159    2.082   1_455 S
I46    N104    2.082   .     S
N47    I101    2.082   .     S
N47    N104    1.278   .     S
N48    N159    1.278   1_455 S
N48    I158    2.082   1_455 S
C57    O107    1.297   .     A
C57    O105    1.297   .     A
C57    C80     1.431   .     S
C58    C60     1.480   .     S
C58    O110    1.307   .     A
C58    O112    1.309   .     A
C59    C65     1.401   .     A
C59    C63     1.418   .     A
C59    C82     1.480   .     S
C60    C66     1.401   .     A
C60    C64     1.418   .     A
C61    C70     1.400   .     A
C61    C63     1.400   .     A
C62    C64     1.400   .     A
C62    C71     1.400   .     A
C62    H153    1.085   .     S
C64    C130    1.508   .     S
C65    C67     1.406   .     A
C65    H95     1.074   .     S
C66    H94     1.074   .     S
C66    C69     1.406   .     A
C67    C72     1.429   .     A
C67    C70     1.414   .     A
C68    C81     1.431   .     S
C68    O108    1.297   .     A
C68    O106    1.297   .     A
C69    C73     1.429   .     A
C69    C71     1.414   .     A
C70    C582    1.390   .     S
C71    C583    1.390   1_554 S
C72    C77     1.416   .     A
C72    C577    1.428   .     S
C73    C76     1.416   .     A
C73    C576    1.428   1_554 S
C74    H88     1.111   .     S
C74    H87     1.107   .     S
C75    H90     1.107   .     S
C75    H92     1.111   .     S
C75    C119    1.508   .     S
C75    H147    1.110   .     S
C76    H98     1.075   .     S
C76    C78     1.385   .     A
C77    C79     1.385   .     A
C77    H99     1.075   .     S
C78    H85     1.085   .     S
C78    C574    1.390   1_554 S
C79    H93     1.085   .     S
C79    C575    1.390   .     S
C80    C249    1.333   .     S
C80    H268    1.087   .     S
C81    C416    1.333   1_545 S
C81    H422    1.087   1_545 S
C82    O111    1.309   .     A
C82    O109    1.307   .     A
Cu83   N104    2.038   .     S
Cu83   O109    1.938   .     S
Cu83   O108    1.951   .     S
Cu83   O112    1.917   .     S
Cu83   O105    1.952   .     S
Cu83   Cu84    2.712   .     S
Cu84   N103    2.038   .     S
Cu84   O111    1.917   .     S
Cu84   O107    1.951   .     S
Cu84   O110    1.938   .     S
Cu84   O106    1.952   .     S
H86    C249    1.087   .     S
H89    C130    1.110   .     S
H96    C117    1.085   .     S
H100   C416    1.087   1_545 S
I102   N160    2.082   .     S
N103   I157    2.082   .     S
N103   N160    1.278   .     S
C113   O163    1.297   .     A
C113   O161    1.297   .     A
C113   C136    1.431   .     S
C114   C116    1.480   .     S
C114   O166    1.307   .     A
C114   O168    1.309   .     A
C115   C121    1.401   .     A
C115   C119    1.418   .     A
C115   C138    1.480   .     S
C116   C122    1.401   .     A
C116   C120    1.418   .     A
C117   C126    1.400   .     A
C117   C119    1.400   .     A
C118   C120    1.400   .     A
C118   C127    1.400   .     A
C118   H41     1.085   1_655 S
C120   C18     1.508   1_655 S
C121   C123    1.406   .     A
C121   H151    1.074   .     S
C122   H150    1.074   .     S
C122   C125    1.406   .     A
C123   C128    1.429   .     A
C123   C126    1.414   .     A
C124   C137    1.431   .     S
C124   O164    1.297   .     A
C124   O162    1.297   .     A
C125   C129    1.429   .     A
C125   C127    1.414   .     A
C126   C638    1.390   .     S
C127   C639    1.390   1_554 S
C128   C133    1.416   .     A
C128   C633    1.428   .     S
C129   C132    1.416   .     A
C129   C632    1.428   1_554 S
C130   H144    1.111   .     S
C130   H143    1.107   .     S
C131   H146    1.107   .     S
C131   H148    1.111   .     S
C131   C7      1.508   1_655 S
C131   H35     1.110   1_655 S
C132   H154    1.075   .     S
C132   C134    1.385   .     A
C133   C135    1.385   .     A
C133   H155    1.075   .     S
C134   H141    1.085   .     S
C134   C630    1.390   1_554 S
C135   H149    1.085   .     S
C135   C631    1.390   .     S
C136   C305    1.333   .     S
C136   H324    1.087   .     S
C137   C472    1.333   1_545 S
C137   H478    1.087   1_545 S
C138   O167    1.309   .     A
C138   O165    1.307   .     A
Cu139  N160    2.038   .     S
Cu139  O165    1.938   .     S
Cu139  O164    1.951   .     S
Cu139  O168    1.917   .     S
Cu139  O161    1.952   .     S
Cu139  Cu140   2.712   .     S
Cu140  N159    2.038   .     S
Cu140  O167    1.917   .     S
Cu140  O163    1.951   .     S
Cu140  O166    1.938   .     S
Cu140  O162    1.952   .     S
H142   C305    1.087   .     S
H145   C18     1.110   1_655 S
H152   C5      1.085   1_655 S
H156   C472    1.087   1_545 S
I158   N48     2.082   1_655 S
N159   I45     2.082   1_655 S
N159   N48     1.278   1_655 S
C169   O219    1.297   .     A
C169   O217    1.297   .     A
C169   C192    1.431   .     S
C170   C172    1.480   .     S
C170   O222    1.307   .     A
C170   O224    1.309   .     A
C171   C177    1.401   .     A
C171   C175    1.418   .     A
C171   C194    1.480   .     S
C172   C178    1.401   .     A
C172   C176    1.418   .     A
C173   C182    1.400   .     A
C173   C175    1.400   .     A
C173   H320    1.085   1_455 S
C174   C176    1.400   .     A
C174   C183    1.400   .     A
C174   H265    1.085   .     S
C175   C299    1.508   1_455 S
C176   C242    1.508   .     S
C177   C179    1.406   .     A
C177   H207    1.074   .     S
C178   H206    1.074   .     S
C178   C181    1.406   .     A
C179   C184    1.429   .     A
C179   C182    1.414   .     A
C180   C193    1.431   .     S
C180   O220    1.297   .     A
C180   O218    1.297   .     A
C181   C185    1.429   .     A
C181   C183    1.414   .     A
C182   C694    1.390   .     S
C183   C695    1.390   1_554 S
C184   C189    1.416   .     A
C184   C689    1.428   .     S
C185   C188    1.416   .     A
C185   C688    1.428   1_554 S
C186   H200    1.111   .     S
C186   H199    1.107   .     S
C186   C288    1.508   1_455 S
C186   H313    1.110   1_455 S
C187   H202    1.107   .     S
C187   H204    1.111   .     S
C187   C231    1.508   .     S
C187   H259    1.110   .     S
C188   H210    1.075   .     S
C188   C190    1.385   .     A
C189   C191    1.385   .     A
C189   H211    1.075   .     S
C190   H197    1.085   .     S
C190   C686    1.390   1_554 S
C191   H205    1.085   .     S
C191   C687    1.390   .     S
C192   C361    1.333   .     S
C192   H380    1.087   .     S
C194   O223    1.309   .     A
C194   O221    1.307   .     A
Cu195  N216    2.038   .     S
Cu195  O221    1.938   .     S
Cu195  O220    1.951   .     S
Cu195  O224    1.917   .     S
Cu195  O217    1.952   .     S
Cu195  Cu196   2.712   .     S
Cu196  N215    2.038   .     S
Cu196  O223    1.917   .     S
Cu196  O219    1.951   .     S
Cu196  O222    1.938   .     S
Cu196  O218    1.952   .     S
H198   C361    1.087   .     S
H201   C242    1.110   .     S
H203   C299    1.110   1_455 S
H208   C229    1.085   .     S
H209   C286    1.085   1_455 S
I213   N327    2.082   1_455 S
I214   N272    2.082   .     S
N215   I269    2.082   .     S
N215   N272    1.278   .     S
N216   N327    1.278   1_455 S
N216   I326    2.082   1_455 S
C225   O275    1.297   .     A
C225   O273    1.297   .     A
C225   C248    1.431   .     S
C226   C228    1.480   .     S
C226   O278    1.307   .     A
C226   O280    1.309   .     A
C227   C233    1.401   .     A
C227   C231    1.418   .     A
C227   C250    1.480   .     S
C228   C234    1.401   .     A
C228   C232    1.418   .     A
C229   C238    1.400   .     A
C229   C231    1.400   .     A
C230   C232    1.400   .     A
C230   C239    1.400   .     A
C230   H321    1.085   .     S
C232   C298    1.508   .     S
C233   C235    1.406   .     A
C233   H263    1.074   .     S
C234   H262    1.074   .     S
C234   C237    1.406   .     A
C235   C240    1.429   .     A
C235   C238    1.414   .     A
C236   C249    1.431   .     S
C236   O276    1.297   .     A
C236   O274    1.297   .     A
C237   C241    1.429   .     A
C237   C239    1.414   .     A
C238   C750    1.390   .     S
C239   C751    1.390   1_554 S
C240   C245    1.416   .     A
C240   C745    1.428   .     S
C241   C244    1.416   .     A
C241   C744    1.428   1_554 S
C242   H256    1.111   .     S
C242   H255    1.107   .     S
C243   H258    1.107   .     S
C243   H260    1.111   .     S
C243   C287    1.508   .     S
C243   H315    1.110   .     S
C244   H266    1.075   .     S
C244   C246    1.385   .     A
C245   C247    1.385   .     A
C245   H267    1.075   .     S
C246   H253    1.085   .     S
C246   C742    1.390   1_554 S
C247   H261    1.085   .     S
C247   C743    1.390   .     S
C248   C417    1.333   .     S
C248   H436    1.087   .     S
C250   O279    1.309   .     A
C250   O277    1.307   .     A
Cu251  N272    2.038   .     S
Cu251  O277    1.938   .     S
Cu251  O276    1.951   .     S
Cu251  O280    1.917   .     S
Cu251  O273    1.952   .     S
Cu251  Cu252   2.712   .     S
Cu252  N271    2.038   .     S
Cu252  O279    1.917   .     S
Cu252  O275    1.951   .     S
Cu252  O278    1.938   .     S
Cu252  O274    1.952   .     S
H254   C417    1.087   .     S
H257   C298    1.110   .     S
H264   C285    1.085   .     S
I270   N328    2.082   .     S
N271   I325    2.082   .     S
N271   N328    1.278   .     S
C281   O331    1.297   .     A
C281   O329    1.297   .     A
C281   C304    1.431   .     S
C282   C284    1.480   .     S
C282   O334    1.307   .     A
C282   O336    1.309   .     A
C283   C289    1.401   .     A
C283   C287    1.418   .     A
C283   C306    1.480   .     S
C284   C290    1.401   .     A
C284   C288    1.418   .     A
C285   C294    1.400   .     A
C285   C287    1.400   .     A
C286   C288    1.400   .     A
C286   C295    1.400   .     A
C286   H209    1.085   1_655 S
C288   C186    1.508   1_655 S
C289   C291    1.406   .     A
C289   H319    1.074   .     S
C290   H318    1.074   .     S
C290   C293    1.406   .     A
C291   C296    1.429   .     A
C291   C294    1.414   .     A
C292   C305    1.431   .     S
C292   O332    1.297   .     A
C292   O330    1.297   .     A
C293   C297    1.429   .     A
C293   C295    1.414   .     A
C294   C806    1.390   .     S
C295   C807    1.390   1_554 S
C296   C301    1.416   .     A
C296   C801    1.428   .     S
C297   C300    1.416   .     A
C297   C800    1.428   1_554 S
C298   H312    1.111   .     S
C298   H311    1.107   .     S
C299   H314    1.107   .     S
C299   H316    1.111   .     S
C299   C175    1.508   1_655 S
C299   H203    1.110   1_655 S
C300   H322    1.075   .     S
C300   C302    1.385   .     A
C301   C303    1.385   .     A
C301   H323    1.075   .     S
C302   H309    1.085   .     S
C302   C798    1.390   1_554 S
C303   H317    1.085   .     S
C303   C799    1.390   .     S
C304   C473    1.333   .     S
C304   H492    1.087   .     S
C306   O335    1.309   .     A
C306   O333    1.307   .     A
Cu307  N328    2.038   .     S
Cu307  O333    1.938   .     S
Cu307  O332    1.951   .     S
Cu307  O336    1.917   .     S
Cu307  O329    1.952   .     S
Cu307  Cu308   2.712   .     S
Cu308  N327    2.038   .     S
Cu308  O335    1.917   .     S
Cu308  O331    1.951   .     S
Cu308  O334    1.938   .     S
Cu308  O330    1.952   .     S
H310   C473    1.087   .     S
H313   C186    1.110   1_655 S
H320   C173    1.085   1_655 S
I326   N216    2.082   1_655 S
N327   I213    2.082   1_655 S
N327   N216    1.278   1_655 S
C337   O387    1.297   .     A
C337   O385    1.297   .     A
C337   C360    1.431   .     S
C338   C340    1.480   .     S
C338   O390    1.307   .     A
C338   O392    1.309   .     A
C339   C345    1.401   .     A
C339   C343    1.418   .     A
C339   C362    1.480   .     S
C340   C346    1.401   .     A
C340   C344    1.418   .     A
C341   C350    1.400   .     A
C341   C343    1.400   .     A
C341   H488    1.085   1_455 S
C342   C344    1.400   .     A
C342   C351    1.400   .     A
C342   H433    1.085   .     S
C343   C467    1.508   1_455 S
C344   C410    1.508   .     S
C345   C347    1.406   .     A
C345   H375    1.074   .     S
C346   H374    1.074   .     S
C346   C349    1.406   .     A
C347   C352    1.429   .     A
C347   C350    1.414   .     A
C348   C361    1.431   .     S
C348   O388    1.297   .     A
C348   O386    1.297   .     A
C349   C353    1.429   .     A
C349   C351    1.414   .     A
C350   C862    1.390   .     S
C351   C863    1.390   1_554 S
C352   C357    1.416   .     A
C352   C857    1.428   .     S
C353   C356    1.416   .     A
C353   C856    1.428   1_554 S
C354   H368    1.111   .     S
C354   H367    1.107   .     S
C354   C456    1.508   1_455 S
C354   H481    1.110   1_455 S
C355   H370    1.107   .     S
C355   H372    1.111   .     S
C355   C399    1.508   .     S
C355   H427    1.110   .     S
C356   H378    1.075   .     S
C356   C358    1.385   .     A
C357   C359    1.385   .     A
C357   H379    1.075   .     S
C358   H365    1.085   .     S
C358   C854    1.390   1_554 S
C359   H373    1.085   .     S
C359   C855    1.390   .     S
C360   C25     1.333   1_565 S
C360   H44     1.087   1_565 S
C362   O391    1.309   .     A
C362   O389    1.307   .     A
Cu363  N384    2.038   .     S
Cu363  O389    1.938   .     S
Cu363  O388    1.951   .     S
Cu363  O392    1.917   .     S
Cu363  O385    1.952   .     S
Cu363  Cu364   2.712   .     S
Cu364  N383    2.038   .     S
Cu364  O391    1.917   .     S
Cu364  O387    1.951   .     S
Cu364  O390    1.938   .     S
Cu364  O386    1.952   .     S
H366   C25     1.087   1_565 S
H369   C410    1.110   .     S
H371   C467    1.110   1_455 S
H376   C397    1.085   .     S
H377   C454    1.085   1_455 S
I381   N495    2.082   1_455 S
I382   N440    2.082   .     S
N383   I437    2.082   .     S
N383   N440    1.278   .     S
N384   N495    1.278   1_455 S
N384   I494    2.082   1_455 S
C393   O443    1.297   .     A
C393   O441    1.297   .     A
C393   C416    1.431   .     S
C394   C396    1.480   .     S
C394   O446    1.307   .     A
C394   O448    1.309   .     A
C395   C401    1.401   .     A
C395   C399    1.418   .     A
C395   C418    1.480   .     S
C396   C402    1.401   .     A
C396   C400    1.418   .     A
C397   C406    1.400   .     A
C397   C399    1.400   .     A
C398   C400    1.400   .     A
C398   C407    1.400   .     A
C398   H489    1.085   .     S
C400   C466    1.508   .     S
C401   C403    1.406   .     A
C401   H431    1.074   .     S
C402   H430    1.074   .     S
C402   C405    1.406   .     A
C403   C408    1.429   .     A
C403   C406    1.414   .     A
C404   C417    1.431   .     S
C404   O444    1.297   .     A
C404   O442    1.297   .     A
C405   C409    1.429   .     A
C405   C407    1.414   .     A
C406   C918    1.390   .     S
C407   C919    1.390   1_554 S
C408   C413    1.416   .     A
C408   C913    1.428   .     S
C409   C412    1.416   .     A
C409   C912    1.428   1_554 S
C410   H424    1.111   .     S
C410   H423    1.107   .     S
C411   H426    1.107   .     S
C411   H428    1.111   .     S
C411   C455    1.508   .     S
C411   H483    1.110   .     S
C412   H434    1.075   .     S
C412   C414    1.385   .     A
C413   C415    1.385   .     A
C413   H435    1.075   .     S
C414   H421    1.085   .     S
C414   C910    1.390   1_554 S
C415   H429    1.085   .     S
C415   C911    1.390   .     S
C416   C81     1.333   1_565 S
C416   H100    1.087   1_565 S
C418   O447    1.309   .     A
C418   O445    1.307   .     A
Cu419  N440    2.038   .     S
Cu419  O445    1.938   .     S
Cu419  O444    1.951   .     S
Cu419  O448    1.917   .     S
Cu419  O441    1.952   .     S
Cu419  Cu420   2.712   .     S
Cu420  N439    2.038   .     S
Cu420  O447    1.917   .     S
Cu420  O443    1.951   .     S
Cu420  O446    1.938   .     S
Cu420  O442    1.952   .     S
H422   C81     1.087   1_565 S
H425   C466    1.110   .     S
H432   C453    1.085   .     S
I438   N496    2.082   .     S
N439   I493    2.082   .     S
N439   N496    1.278   .     S
C449   O499    1.297   .     A
C449   O497    1.297   .     A
C449   C472    1.431   .     S
C450   C452    1.480   .     S
C450   O502    1.307   .     A
C450   O504    1.309   .     A
C451   C457    1.401   .     A
C451   C455    1.418   .     A
C451   C474    1.480   .     S
C452   C458    1.401   .     A
C452   C456    1.418   .     A
C453   C462    1.400   .     A
C453   C455    1.400   .     A
C454   C456    1.400   .     A
C454   C463    1.400   .     A
C454   H377    1.085   1_655 S
C456   C354    1.508   1_655 S
C457   C459    1.406   .     A
C457   H487    1.074   .     S
C458   H486    1.074   .     S
C458   C461    1.406   .     A
C459   C464    1.429   .     A
C459   C462    1.414   .     A
C460   C473    1.431   .     S
C460   O500    1.297   .     A
C460   O498    1.297   .     A
C461   C465    1.429   .     A
C461   C463    1.414   .     A
C462   C974    1.390   .     S
C463   C975    1.390   1_554 S
C464   C469    1.416   .     A
C464   C969    1.428   .     S
C465   C468    1.416   .     A
C465   C968    1.428   1_554 S
C466   H480    1.111   .     S
C466   H479    1.107   .     S
C467   H482    1.107   .     S
C467   H484    1.111   .     S
C467   C343    1.508   1_655 S
C467   H371    1.110   1_655 S
C468   H490    1.075   .     S
C468   C470    1.385   .     A
C469   C471    1.385   .     A
C469   H491    1.075   .     S
C470   H477    1.085   .     S
C470   C966    1.390   1_554 S
C471   H485    1.085   .     S
C471   C967    1.390   .     S
C472   C137    1.333   1_565 S
C472   H156    1.087   1_565 S
C474   O503    1.309   .     A
C474   O501    1.307   .     A
Cu475  N496    2.038   .     S
Cu475  O501    1.938   .     S
Cu475  O500    1.951   .     S
Cu475  O504    1.917   .     S
Cu475  O497    1.952   .     S
Cu475  Cu476   2.712   .     S
Cu476  N495    2.038   .     S
Cu476  O503    1.917   .     S
Cu476  O499    1.951   .     S
Cu476  O502    1.938   .     S
Cu476  O498    1.952   .     S
H478   C137    1.087   1_565 S
H481   C354    1.110   1_655 S
H488   C341    1.085   1_655 S
I494   N384    2.082   1_655 S
N495   I381    2.082   1_655 S
N495   N384    1.278   1_655 S
C505   O555    1.297   .     A
C505   O553    1.297   .     A
C505   C528    1.431   .     S
C506   C508    1.480   .     S
C506   O558    1.307   .     A
C506   O560    1.309   .     A
C507   C513    1.401   .     A
C507   C511    1.418   .     A
C507   C530    1.480   .     S
C508   C514    1.401   .     A
C508   C512    1.418   .     A
C509   C518    1.400   .     A
C509   C511    1.400   .     A
C509   H656    1.085   1_455 S
C510   C512    1.400   .     A
C510   C519    1.400   .     A
C510   H601    1.085   .     S
C511   C635    1.508   1_455 S
C512   C578    1.508   .     S
C513   C515    1.406   .     A
C513   H543    1.074   .     S
C514   H542    1.074   .     S
C514   C517    1.406   .     A
C515   C520    1.429   .     A
C515   C518    1.414   .     A
C516   C529    1.431   .     S
C516   O556    1.297   .     A
C516   O554    1.297   .     A
C517   C521    1.429   .     A
C517   C519    1.414   .     A
C518   C22     1.390   1_556 S
C520   C525    1.416   .     A
C520   C17     1.428   1_556 S
C521   C524    1.416   .     A
C522   H536    1.111   .     S
C522   H535    1.107   .     S
C522   C624    1.508   1_455 S
C522   H649    1.110   1_455 S
C523   H538    1.107   .     S
C523   H540    1.111   .     S
C523   C567    1.508   .     S
C523   H595    1.110   .     S
C524   H546    1.075   .     S
C524   C526    1.385   .     A
C525   C527    1.385   .     A
C525   H547    1.075   .     S
C526   H533    1.085   .     S
C527   H541    1.085   .     S
C527   C15     1.390   1_556 S
C528   C697    1.333   .     S
C528   H716    1.087   .     S
C529   C864    1.333   1_545 S
C529   H870    1.087   1_545 S
C530   O559    1.309   .     A
C530   O557    1.307   .     A
Cu531  N552    2.038   .     S
Cu531  O557    1.938   .     S
Cu531  O556    1.951   .     S
Cu531  O560    1.917   .     S
Cu531  O553    1.952   .     S
Cu531  Cu532   2.712   .     S
Cu532  N551    2.038   .     S
Cu532  O559    1.917   .     S
Cu532  O555    1.951   .     S
Cu532  O558    1.938   .     S
Cu532  O554    1.952   .     S
H534   C697    1.087   .     S
H537   C578    1.110   .     S
H539   C635    1.110   1_455 S
H544   C565    1.085   .     S
H545   C622    1.085   1_455 S
H548   C864    1.087   1_545 S
I549   N663    2.082   1_455 S
I550   N608    2.082   .     S
N551   I605    2.082   .     S
N551   N608    1.278   .     S
N552   N663    1.278   1_455 S
N552   I662    2.082   1_455 S
C561   O611    1.297   .     A
C561   O609    1.297   .     A
C561   C584    1.431   .     S
C562   C564    1.480   .     S
C562   O614    1.307   .     A
C562   O616    1.309   .     A
C563   C569    1.401   .     A
C563   C567    1.418   .     A
C563   C586    1.480   .     S
C564   C570    1.401   .     A
C564   C568    1.418   .     A
C565   C574    1.400   .     A
C565   C567    1.400   .     A
C566   C568    1.400   .     A
C566   C575    1.400   .     A
C566   H657    1.085   .     S
C568   C634    1.508   .     S
C569   C571    1.406   .     A
C569   H599    1.074   .     S
C570   H598    1.074   .     S
C570   C573    1.406   .     A
C571   C576    1.429   .     A
C571   C574    1.414   .     A
C572   C585    1.431   .     S
C572   O612    1.297   .     A
C572   O610    1.297   .     A
C573   C577    1.429   .     A
C573   C575    1.414   .     A
C574   C78     1.390   1_556 S
C576   C581    1.416   .     A
C576   C73     1.428   1_556 S
C577   C580    1.416   .     A
C578   H592    1.111   .     S
C578   H591    1.107   .     S
C579   H594    1.107   .     S
C579   H596    1.111   .     S
C579   C623    1.508   .     S
C579   H651    1.110   .     S
C580   H602    1.075   .     S
C580   C582    1.385   .     A
C581   C583    1.385   .     A
C581   H603    1.075   .     S
C582   H589    1.085   .     S
C583   H597    1.085   .     S
C583   C71     1.390   1_556 S
C584   C753    1.333   .     S
C584   H772    1.087   .     S
C585   C920    1.333   1_545 S
C585   H926    1.087   1_545 S
C586   O615    1.309   .     A
C586   O613    1.307   .     A
Cu587  N608    2.038   .     S
Cu587  O613    1.938   .     S
Cu587  O612    1.951   .     S
Cu587  O616    1.917   .     S
Cu587  O609    1.952   .     S
Cu587  Cu588   2.712   .     S
Cu588  N607    2.038   .     S
Cu588  O615    1.917   .     S
Cu588  O611    1.951   .     S
Cu588  O614    1.938   .     S
Cu588  O610    1.952   .     S
H590   C753    1.087   .     S
H593   C634    1.110   .     S
H600   C621    1.085   .     S
H604   C920    1.087   1_545 S
I606   N664    2.082   .     S
N607   I661    2.082   .     S
N607   N664    1.278   .     S
C617   O667    1.297   .     A
C617   O665    1.297   .     A
C617   C640    1.431   .     S
C618   C620    1.480   .     S
C618   O670    1.307   .     A
C618   O672    1.309   .     A
C619   C625    1.401   .     A
C619   C623    1.418   .     A
C619   C642    1.480   .     S
C620   C626    1.401   .     A
C620   C624    1.418   .     A
C621   C630    1.400   .     A
C621   C623    1.400   .     A
C622   C624    1.400   .     A
C622   C631    1.400   .     A
C622   H545    1.085   1_655 S
C624   C522    1.508   1_655 S
C625   C627    1.406   .     A
C625   H655    1.074   .     S
C626   H654    1.074   .     S
C626   C629    1.406   .     A
C627   C632    1.429   .     A
C627   C630    1.414   .     A
C628   C641    1.431   .     S
C628   O668    1.297   .     A
C628   O666    1.297   .     A
C629   C633    1.429   .     A
C629   C631    1.414   .     A
C630   C134    1.390   1_556 S
C632   C637    1.416   .     A
C632   C129    1.428   1_556 S
C633   C636    1.416   .     A
C634   H648    1.111   .     S
C634   H647    1.107   .     S
C635   H650    1.107   .     S
C635   H652    1.111   .     S
C635   C511    1.508   1_655 S
C635   H539    1.110   1_655 S
C636   H658    1.075   .     S
C636   C638    1.385   .     A
C637   C639    1.385   .     A
C637   H659    1.075   .     S
C638   H645    1.085   .     S
C639   H653    1.085   .     S
C639   C127    1.390   1_556 S
C640   C809    1.333   .     S
C640   H828    1.087   .     S
C641   C976    1.333   1_545 S
C641   H982    1.087   1_545 S
C642   O671    1.309   .     A
C642   O669    1.307   .     A
Cu643  N664    2.038   .     S
Cu643  O669    1.938   .     S
Cu643  O668    1.951   .     S
Cu643  O672    1.917   .     S
Cu643  O665    1.952   .     S
Cu643  Cu644   2.712   .     S
Cu644  N663    2.038   .     S
Cu644  O671    1.917   .     S
Cu644  O667    1.951   .     S
Cu644  O670    1.938   .     S
Cu644  O666    1.952   .     S
H646   C809    1.087   .     S
H649   C522    1.110   1_655 S
H656   C509    1.085   1_655 S
H660   C976    1.087   1_545 S
I662   N552    2.082   1_655 S
N663   I549    2.082   1_655 S
N663   N552    1.278   1_655 S
C673   O723    1.297   .     A
C673   O721    1.297   .     A
C673   C696    1.431   .     S
C674   C676    1.480   .     S
C674   O726    1.307   .     A
C674   O728    1.309   .     A
C675   C681    1.401   .     A
C675   C679    1.418   .     A
C675   C698    1.480   .     S
C676   C682    1.401   .     A
C676   C680    1.418   .     A
C677   C686    1.400   .     A
C677   C679    1.400   .     A
C677   H824    1.085   1_455 S
C678   C680    1.400   .     A
C678   C687    1.400   .     A
C678   H769    1.085   .     S
C679   C803    1.508   1_455 S
C680   C746    1.508   .     S
C681   C683    1.406   .     A
C681   H711    1.074   .     S
C682   H710    1.074   .     S
C682   C685    1.406   .     A
C683   C688    1.429   .     A
C683   C686    1.414   .     A
C684   C697    1.431   .     S
C684   O724    1.297   .     A
C684   O722    1.297   .     A
C685   C689    1.429   .     A
C685   C687    1.414   .     A
C686   C190    1.390   1_556 S
C688   C693    1.416   .     A
C688   C185    1.428   1_556 S
C689   C692    1.416   .     A
C690   H704    1.111   .     S
C690   H703    1.107   .     S
C690   C792    1.508   1_455 S
C690   H817    1.110   1_455 S
C691   H706    1.107   .     S
C691   H708    1.111   .     S
C691   C735    1.508   .     S
C691   H763    1.110   .     S
C692   H714    1.075   .     S
C692   C694    1.385   .     A
C693   C695    1.385   .     A
C693   H715    1.075   .     S
C694   H701    1.085   .     S
C695   H709    1.085   .     S
C695   C183    1.390   1_556 S
C696   C865    1.333   .     S
C696   H884    1.087   .     S
C698   O727    1.309   .     A
C698   O725    1.307   .     A
Cu699  N720    2.038   .     S
Cu699  O725    1.938   .     S
Cu699  O724    1.951   .     S
Cu699  O728    1.917   .     S
Cu699  O721    1.952   .     S
Cu699  Cu700   2.712   .     S
Cu700  N719    2.038   .     S
Cu700  O727    1.917   .     S
Cu700  O723    1.951   .     S
Cu700  O726    1.938   .     S
Cu700  O722    1.952   .     S
H702   C865    1.087   .     S
H705   C746    1.110   .     S
H707   C803    1.110   1_455 S
H712   C733    1.085   .     S
H713   C790    1.085   1_455 S
I717   N831    2.082   1_455 S
I718   N776    2.082   .     S
N719   I773    2.082   .     S
N719   N776    1.278   .     S
N720   N831    1.278   1_455 S
N720   I830    2.082   1_455 S
C729   O779    1.297   .     A
C729   O777    1.297   .     A
C729   C752    1.431   .     S
C730   C732    1.480   .     S
C730   O782    1.307   .     A
C730   O784    1.309   .     A
C731   C737    1.401   .     A
C731   C735    1.418   .     A
C731   C754    1.480   .     S
C732   C738    1.401   .     A
C732   C736    1.418   .     A
C733   C742    1.400   .     A
C733   C735    1.400   .     A
C734   C736    1.400   .     A
C734   C743    1.400   .     A
C734   H825    1.085   .     S
C736   C802    1.508   .     S
C737   C739    1.406   .     A
C737   H767    1.074   .     S
C738   H766    1.074   .     S
C738   C741    1.406   .     A
C739   C744    1.429   .     A
C739   C742    1.414   .     A
C740   C753    1.431   .     S
C740   O780    1.297   .     A
C740   O778    1.297   .     A
C741   C745    1.429   .     A
C741   C743    1.414   .     A
C742   C246    1.390   1_556 S
C744   C749    1.416   .     A
C744   C241    1.428   1_556 S
C745   C748    1.416   .     A
C746   H760    1.111   .     S
C746   H759    1.107   .     S
C747   H762    1.107   .     S
C747   H764    1.111   .     S
C747   C791    1.508   .     S
C747   H819    1.110   .     S
C748   H770    1.075   .     S
C748   C750    1.385   .     A
C749   C751    1.385   .     A
C749   H771    1.075   .     S
C750   H757    1.085   .     S
C751   H765    1.085   .     S
C751   C239    1.390   1_556 S
C752   C921    1.333   .     S
C752   H940    1.087   .     S
C754   O783    1.309   .     A
C754   O781    1.307   .     A
Cu755  N776    2.038   .     S
Cu755  O781    1.938   .     S
Cu755  O780    1.951   .     S
Cu755  O784    1.917   .     S
Cu755  O777    1.952   .     S
Cu755  Cu756   2.712   .     S
Cu756  N775    2.038   .     S
Cu756  O783    1.917   .     S
Cu756  O779    1.951   .     S
Cu756  O782    1.938   .     S
Cu756  O778    1.952   .     S
H758   C921    1.087   .     S
H761   C802    1.110   .     S
H768   C789    1.085   .     S
I774   N832    2.082   .     S
N775   I829    2.082   .     S
N775   N832    1.278   .     S
C785   O835    1.297   .     A
C785   O833    1.297   .     A
C785   C808    1.431   .     S
C786   C788    1.480   .     S
C786   O838    1.307   .     A
C786   O840    1.309   .     A
C787   C793    1.401   .     A
C787   C791    1.418   .     A
C787   C810    1.480   .     S
C788   C794    1.401   .     A
C788   C792    1.418   .     A
C789   C798    1.400   .     A
C789   C791    1.400   .     A
C790   C792    1.400   .     A
C790   C799    1.400   .     A
C790   H713    1.085   1_655 S
C792   C690    1.508   1_655 S
C793   C795    1.406   .     A
C793   H823    1.074   .     S
C794   H822    1.074   .     S
C794   C797    1.406   .     A
C795   C800    1.429   .     A
C795   C798    1.414   .     A
C796   C809    1.431   .     S
C796   O836    1.297   .     A
C796   O834    1.297   .     A
C797   C801    1.429   .     A
C797   C799    1.414   .     A
C798   C302    1.390   1_556 S
C800   C805    1.416   .     A
C800   C297    1.428   1_556 S
C801   C804    1.416   .     A
C802   H816    1.111   .     S
C802   H815    1.107   .     S
C803   H818    1.107   .     S
C803   H820    1.111   .     S
C803   C679    1.508   1_655 S
C803   H707    1.110   1_655 S
C804   H826    1.075   .     S
C804   C806    1.385   .     A
C805   C807    1.385   .     A
C805   H827    1.075   .     S
C806   H813    1.085   .     S
C807   H821    1.085   .     S
C807   C295    1.390   1_556 S
C808   C977    1.333   .     S
C808   H996    1.087   .     S
C810   O839    1.309   .     A
C810   O837    1.307   .     A
Cu811  N832    2.038   .     S
Cu811  O837    1.938   .     S
Cu811  O836    1.951   .     S
Cu811  O840    1.917   .     S
Cu811  O833    1.952   .     S
Cu811  Cu812   2.712   .     S
Cu812  N831    2.038   .     S
Cu812  O839    1.917   .     S
Cu812  O835    1.951   .     S
Cu812  O838    1.938   .     S
Cu812  O834    1.952   .     S
H814   C977    1.087   .     S
H817   C690    1.110   1_655 S
H824   C677    1.085   1_655 S
I830   N720    2.082   1_655 S
N831   I717    2.082   1_655 S
N831   N720    1.278   1_655 S
C841   O891    1.297   .     A
C841   O889    1.297   .     A
C841   C864    1.431   .     S
C842   C844    1.480   .     S
C842   O894    1.307   .     A
C842   O896    1.309   .     A
C843   C849    1.401   .     A
C843   C847    1.418   .     A
C843   C866    1.480   .     S
C844   C850    1.401   .     A
C844   C848    1.418   .     A
C845   C854    1.400   .     A
C845   C847    1.400   .     A
C845   H992    1.085   1_455 S
C846   C848    1.400   .     A
C846   C855    1.400   .     A
C846   H937    1.085   .     S
C847   C971    1.508   1_455 S
C848   C914    1.508   .     S
C849   C851    1.406   .     A
C849   H879    1.074   .     S
C850   H878    1.074   .     S
C850   C853    1.406   .     A
C851   C856    1.429   .     A
C851   C854    1.414   .     A
C852   C865    1.431   .     S
C852   O892    1.297   .     A
C852   O890    1.297   .     A
C853   C857    1.429   .     A
C853   C855    1.414   .     A
C854   C358    1.390   1_556 S
C856   C861    1.416   .     A
C856   C353    1.428   1_556 S
C857   C860    1.416   .     A
C858   H872    1.111   .     S
C858   H871    1.107   .     S
C858   C960    1.508   1_455 S
C858   H985    1.110   1_455 S
C859   H874    1.107   .     S
C859   H876    1.111   .     S
C859   C903    1.508   .     S
C859   H931    1.110   .     S
C860   H882    1.075   .     S
C860   C862    1.385   .     A
C861   C863    1.385   .     A
C861   H883    1.075   .     S
C862   H869    1.085   .     S
C863   H877    1.085   .     S
C863   C351    1.390   1_556 S
C864   C529    1.333   1_565 S
C864   H548    1.087   1_565 S
C866   O895    1.309   .     A
C866   O893    1.307   .     A
Cu867  N888    2.038   .     S
Cu867  O893    1.938   .     S
Cu867  O892    1.951   .     S
Cu867  O896    1.917   .     S
Cu867  O889    1.952   .     S
Cu867  Cu868   2.712   .     S
Cu868  N887    2.038   .     S
Cu868  O895    1.917   .     S
Cu868  O891    1.951   .     S
Cu868  O894    1.938   .     S
Cu868  O890    1.952   .     S
H870   C529    1.087   1_565 S
H873   C914    1.110   .     S
H875   C971    1.110   1_455 S
H880   C901    1.085   .     S
H881   C958    1.085   1_455 S
I885   N999    2.082   1_455 S
I886   N944    2.082   .     S
N887   I941    2.082   .     S
N887   N944    1.278   .     S
N888   N999    1.278   1_455 S
N888   I998    2.082   1_455 S
C897   O947    1.297   .     A
C897   O945    1.297   .     A
C897   C920    1.431   .     S
C898   C900    1.480   .     S
C898   O950    1.307   .     A
C898   O952    1.309   .     A
C899   C905    1.401   .     A
C899   C903    1.418   .     A
C899   C922    1.480   .     S
C900   C906    1.401   .     A
C900   C904    1.418   .     A
C901   C910    1.400   .     A
C901   C903    1.400   .     A
C902   C904    1.400   .     A
C902   C911    1.400   .     A
C902   H993    1.085   .     S
C904   C970    1.508   .     S
C905   C907    1.406   .     A
C905   H935    1.074   .     S
C906   H934    1.074   .     S
C906   C909    1.406   .     A
C907   C912    1.429   .     A
C907   C910    1.414   .     A
C908   C921    1.431   .     S
C908   O948    1.297   .     A
C908   O946    1.297   .     A
C909   C913    1.429   .     A
C909   C911    1.414   .     A
C910   C414    1.390   1_556 S
C912   C917    1.416   .     A
C912   C409    1.428   1_556 S
C913   C916    1.416   .     A
C914   H928    1.111   .     S
C914   H927    1.107   .     S
C915   H930    1.107   .     S
C915   H932    1.111   .     S
C915   C959    1.508   .     S
C915   H987    1.110   .     S
C916   H938    1.075   .     S
C916   C918    1.385   .     A
C917   C919    1.385   .     A
C917   H939    1.075   .     S
C918   H925    1.085   .     S
C919   H933    1.085   .     S
C919   C407    1.390   1_556 S
C920   C585    1.333   1_565 S
C920   H604    1.087   1_565 S
C922   O951    1.309   .     A
C922   O949    1.307   .     A
Cu923  N944    2.038   .     S
Cu923  O949    1.938   .     S
Cu923  O948    1.951   .     S
Cu923  O952    1.917   .     S
Cu923  O945    1.952   .     S
Cu923  Cu924   2.712   .     S
Cu924  N943    2.038   .     S
Cu924  O951    1.917   .     S
Cu924  O947    1.951   .     S
Cu924  O950    1.938   .     S
Cu924  O946    1.952   .     S
H926   C585    1.087   1_565 S
H929   C970    1.110   .     S
H936   C957    1.085   .     S
I942   N1000   2.082   .     S
N943   I997    2.082   .     S
N943   N1000   1.278   .     S
C953   O1003   1.297   .     A
C953   O1001   1.297   .     A
C953   C976    1.431   .     S
C954   C956    1.480   .     S
C954   O1006   1.307   .     A
C954   O1008   1.309   .     A
C955   C961    1.401   .     A
C955   C959    1.418   .     A
C955   C978    1.480   .     S
C956   C962    1.401   .     A
C956   C960    1.418   .     A
C957   C966    1.400   .     A
C957   C959    1.400   .     A
C958   C960    1.400   .     A
C958   C967    1.400   .     A
C958   H881    1.085   1_655 S
C960   C858    1.508   1_655 S
C961   C963    1.406   .     A
C961   H991    1.074   .     S
C962   H990    1.074   .     S
C962   C965    1.406   .     A
C963   C968    1.429   .     A
C963   C966    1.414   .     A
C964   C977    1.431   .     S
C964   O1004   1.297   .     A
C964   O1002   1.297   .     A
C965   C969    1.429   .     A
C965   C967    1.414   .     A
C966   C470    1.390   1_556 S
C968   C973    1.416   .     A
C968   C465    1.428   1_556 S
C969   C972    1.416   .     A
C970   H984    1.111   .     S
C970   H983    1.107   .     S
C971   H986    1.107   .     S
C971   H988    1.111   .     S
C971   C847    1.508   1_655 S
C971   H875    1.110   1_655 S
C972   H994    1.075   .     S
C972   C974    1.385   .     A
C973   C975    1.385   .     A
C973   H995    1.075   .     S
C974   H981    1.085   .     S
C975   H989    1.085   .     S
C975   C463    1.390   1_556 S
C976   C641    1.333   1_565 S
C976   H660    1.087   1_565 S
C978   O1007   1.309   .     A
C978   O1005   1.307   .     A
Cu979  N1000   2.038   .     S
Cu979  O1005   1.938   .     S
Cu979  O1004   1.951   .     S
Cu979  O1008   1.917   .     S
Cu979  O1001   1.952   .     S
Cu979  Cu980   2.712   .     S
Cu980  N999    2.038   .     S
Cu980  O1007   1.917   .     S
Cu980  O1003   1.951   .     S
Cu980  O1006   1.938   .     S
Cu980  O1002   1.952   .     S
H982   C641    1.087   1_565 S
H985   C858    1.110   1_655 S
H992   C845    1.085   1_655 S
I998   N888    2.082   1_655 S
N999   I885    2.082   1_655 S
N999   N888    1.278   1_655 S
