data_str_m2_o1_o5_pcu_sym.34
_audit_creation_date              2020-01-03
_audit_creation_method            'Materials Studio'
_symmetry_space_group_name_H-M    'P1'
_symmetry_Int_Tables_number       1
_symmetry_cell_setting            triclinic
loop_
_symmetry_equiv_pos_as_xyz
  x,y,z
_cell_length_a                    32.5686
_cell_length_b                    28.7924
_cell_length_c                    27.2013
_cell_angle_alpha                 90.0000
_cell_angle_beta                  93.0822
_cell_angle_gamma                 89.9998
loop_
_atom_site_label
_atom_site_type_symbol
_atom_site_fract_x
_atom_site_fract_y
_atom_site_fract_z
_atom_site_U_iso_or_equiv
_atom_site_adp_type
_atom_site_occupancy
Br1    Br    0.10529   0.05621   0.08630   0.00000  Uiso   1.00
Br2    Br    0.22805   0.27713   0.24703   0.00000  Uiso   1.00
Br3    Br    0.22805   0.05621   0.24703   0.00000  Uiso   1.00
Br4    Br    0.10529   0.27713   0.08631   0.00000  Uiso   1.00
C5     C     0.08768   0.16667   0.17153   0.00000  Uiso   1.00
C6     C     0.02080   0.20914   0.17462   0.00000  Uiso   1.00
C7     C     0.29063   0.16667   0.15692   0.00000  Uiso   1.00
C8     C     0.04271   0.16667   0.17641   0.00000  Uiso   1.00
C9     C     0.14150   0.02470   0.13384   0.00000  Uiso   1.00
C10    C     0.19183   0.30864   0.19950   0.00000  Uiso   1.00
C11    C     0.19183   0.02470   0.19950   0.00000  Uiso   1.00
C12    C     0.14150   0.30864   0.13384   0.00000  Uiso   1.00
C13    C     0.03952   0.07947   0.19508   0.00000  Uiso   1.00
C14    C     0.29381   0.25386   0.13826   0.00000  Uiso   1.00
C15    C     0.29381   0.07947   0.13826   0.00000  Uiso   1.00
C16    C     0.24565   0.16667   0.16181   0.00000  Uiso   1.00
C17    C     0.03952   0.25387   0.19507   0.00000  Uiso   1.00
C18    C     0.16658   0.16667   0.07361   0.00000  Uiso   1.00
C19    C     0.16675   0.16667   0.25973   0.00000  Uiso   1.00
C20    C     0.16664   0.16667   0.02187   0.00000  Uiso   1.00
C21    C     0.16670   0.16667   0.31147   0.00000  Uiso   1.00
C22    C     0.02080   0.12420   0.17462   0.00000  Uiso   1.00
C23    C     0.31253   0.20914   0.15871   0.00000  Uiso   1.00
C24    C     0.31253   0.12420   0.15871   0.00000  Uiso   1.00
Cu25   Cu    0.16667   0.21355   0.16667   0.00000  Uiso   1.00
Cu26   Cu    0.16667   0.11978   0.16667   0.00000  Uiso   1.00
H27    H     0.06465   0.08641   0.22331   0.00000  Uiso   1.00
H28    H     0.06465   0.24692   0.22331   0.00000  Uiso   1.00
H29    H     0.05084   0.27563   0.16513   0.00000  Uiso   1.00
H30    H     0.01629   0.27413   0.21446   0.00000  Uiso   1.00
H31    H     0.01630   0.05920   0.21446   0.00000  Uiso   1.00
H32    H     0.05084   0.05770   0.16514   0.00000  Uiso   1.00
H33    H     0.26868   0.24692   0.11002   0.00000  Uiso   1.00
H34    H     0.28249   0.27563   0.16820   0.00000  Uiso   1.00
H35    H     0.31704   0.27413   0.11887   0.00000  Uiso   1.00
H36    H     0.26868   0.08641   0.11002   0.00000  Uiso   1.00
H37    H     0.31704   0.05921   0.11887   0.00000  Uiso   1.00
H38    H     0.28249   0.05770   0.16820   0.00000  Uiso   1.00
N39    N     0.16667   0.28402   0.16667   0.00000  Uiso   1.00
N40    N     0.16667   0.04931   0.16667   0.00000  Uiso   1.00
O41    O     0.10655   0.20625   0.16666   0.00000  Uiso   1.00
O42    O     0.22679   0.12709   0.16667   0.00000  Uiso   1.00
O43    O     0.22679   0.20625   0.16667   0.00000  Uiso   1.00
O44    O     0.10655   0.12709   0.16666   0.00000  Uiso   1.00
O45    O     0.16667   0.20625   0.09613   0.00000  Uiso   1.00
O46    O     0.16667   0.12708   0.23720   0.00000  Uiso   1.00
O47    O     0.16667   0.20625   0.23720   0.00000  Uiso   1.00
O48    O     0.16667   0.12708   0.09613   0.00000  Uiso   1.00
Br49   Br    0.43862   0.05621   0.08630   0.00000  Uiso   1.00
Br50   Br    0.56138   0.27713   0.24703   0.00000  Uiso   1.00
Br51   Br    0.56138   0.05621   0.24703   0.00000  Uiso   1.00
Br52   Br    0.43862   0.27713   0.08631   0.00000  Uiso   1.00
C53    C     0.42102   0.16667   0.17153   0.00000  Uiso   1.00
C54    C     0.35413   0.20914   0.17462   0.00000  Uiso   1.00
C55    C     0.62396   0.16667   0.15692   0.00000  Uiso   1.00
C56    C     0.37604   0.16667   0.17641   0.00000  Uiso   1.00
C57    C     0.47483   0.02470   0.13384   0.00000  Uiso   1.00
C58    C     0.52517   0.30864   0.19950   0.00000  Uiso   1.00
C59    C     0.52517   0.02470   0.19950   0.00000  Uiso   1.00
C60    C     0.47483   0.30864   0.13384   0.00000  Uiso   1.00
C61    C     0.37286   0.07947   0.19508   0.00000  Uiso   1.00
C62    C     0.62714   0.25386   0.13826   0.00000  Uiso   1.00
C63    C     0.62714   0.07947   0.13826   0.00000  Uiso   1.00
C64    C     0.57899   0.16667   0.16181   0.00000  Uiso   1.00
C65    C     0.37286   0.25387   0.19507   0.00000  Uiso   1.00
C66    C     0.49991   0.16667   0.07361   0.00000  Uiso   1.00
C67    C     0.50009   0.16667   0.25973   0.00000  Uiso   1.00
C68    C     0.49997   0.16667   0.02187   0.00000  Uiso   1.00
C69    C     0.50003   0.16667   0.31147   0.00000  Uiso   1.00
C70    C     0.35413   0.12420   0.17462   0.00000  Uiso   1.00
C71    C     0.64587   0.20914   0.15871   0.00000  Uiso   1.00
C72    C     0.64587   0.12420   0.15871   0.00000  Uiso   1.00
Cu73   Cu    0.50000   0.21355   0.16667   0.00000  Uiso   1.00
Cu74   Cu    0.50000   0.11978   0.16667   0.00000  Uiso   1.00
H75    H     0.39798   0.08641   0.22331   0.00000  Uiso   1.00
H76    H     0.39799   0.24692   0.22331   0.00000  Uiso   1.00
H77    H     0.38417   0.27563   0.16513   0.00000  Uiso   1.00
H78    H     0.34963   0.27413   0.21446   0.00000  Uiso   1.00
H79    H     0.34963   0.05920   0.21446   0.00000  Uiso   1.00
H80    H     0.38418   0.05770   0.16514   0.00000  Uiso   1.00
H81    H     0.60201   0.24692   0.11002   0.00000  Uiso   1.00
H82    H     0.61583   0.27563   0.16820   0.00000  Uiso   1.00
H83    H     0.65037   0.27413   0.11887   0.00000  Uiso   1.00
H84    H     0.60202   0.08641   0.11002   0.00000  Uiso   1.00
H85    H     0.65037   0.05921   0.11887   0.00000  Uiso   1.00
H86    H     0.61583   0.05770   0.16820   0.00000  Uiso   1.00
N87    N     0.50000   0.28402   0.16667   0.00000  Uiso   1.00
N88    N     0.50000   0.04931   0.16667   0.00000  Uiso   1.00
O89    O     0.43988   0.20625   0.16666   0.00000  Uiso   1.00
O90    O     0.56012   0.12709   0.16667   0.00000  Uiso   1.00
O91    O     0.56012   0.20625   0.16667   0.00000  Uiso   1.00
O92    O     0.43988   0.12709   0.16666   0.00000  Uiso   1.00
O93    O     0.50000   0.20625   0.09613   0.00000  Uiso   1.00
O94    O     0.50000   0.12708   0.23720   0.00000  Uiso   1.00
O95    O     0.50000   0.20625   0.23720   0.00000  Uiso   1.00
O96    O     0.50000   0.12708   0.09613   0.00000  Uiso   1.00
Br97   Br    0.77195   0.05621   0.08630   0.00000  Uiso   1.00
Br98   Br    0.89471   0.27713   0.24703   0.00000  Uiso   1.00
Br99   Br    0.89471   0.05621   0.24703   0.00000  Uiso   1.00
Br100  Br    0.77195   0.27713   0.08631   0.00000  Uiso   1.00
C101   C     0.75435   0.16667   0.17153   0.00000  Uiso   1.00
C102   C     0.68747   0.20914   0.17462   0.00000  Uiso   1.00
C103   C     0.95729   0.16667   0.15692   0.00000  Uiso   1.00
C104   C     0.70937   0.16667   0.17641   0.00000  Uiso   1.00
C105   C     0.80817   0.02470   0.13384   0.00000  Uiso   1.00
C106   C     0.85850   0.30864   0.19950   0.00000  Uiso   1.00
C107   C     0.85850   0.02470   0.19950   0.00000  Uiso   1.00
C108   C     0.80817   0.30864   0.13384   0.00000  Uiso   1.00
C109   C     0.70619   0.07947   0.19508   0.00000  Uiso   1.00
C110   C     0.96048   0.25386   0.13826   0.00000  Uiso   1.00
C111   C     0.96048   0.07947   0.13826   0.00000  Uiso   1.00
C112   C     0.91232   0.16667   0.16181   0.00000  Uiso   1.00
C113   C     0.70619   0.25387   0.19507   0.00000  Uiso   1.00
C114   C     0.83325   0.16667   0.07361   0.00000  Uiso   1.00
C115   C     0.83342   0.16667   0.25973   0.00000  Uiso   1.00
C116   C     0.83330   0.16667   0.02187   0.00000  Uiso   1.00
C117   C     0.83336   0.16667   0.31147   0.00000  Uiso   1.00
C118   C     0.68747   0.12420   0.17462   0.00000  Uiso   1.00
C119   C     0.97920   0.20914   0.15871   0.00000  Uiso   1.00
C120   C     0.97920   0.12420   0.15871   0.00000  Uiso   1.00
Cu121  Cu    0.83333   0.21355   0.16667   0.00000  Uiso   1.00
Cu122  Cu    0.83333   0.11978   0.16667   0.00000  Uiso   1.00
H123   H     0.73132   0.08641   0.22331   0.00000  Uiso   1.00
H124   H     0.73132   0.24692   0.22331   0.00000  Uiso   1.00
H125   H     0.71750   0.27563   0.16513   0.00000  Uiso   1.00
H126   H     0.68296   0.27413   0.21446   0.00000  Uiso   1.00
H127   H     0.68296   0.05920   0.21446   0.00000  Uiso   1.00
H128   H     0.71751   0.05770   0.16514   0.00000  Uiso   1.00
H129   H     0.93535   0.24692   0.11002   0.00000  Uiso   1.00
H130   H     0.94916   0.27563   0.16820   0.00000  Uiso   1.00
H131   H     0.98370   0.27413   0.11887   0.00000  Uiso   1.00
H132   H     0.93535   0.08641   0.11002   0.00000  Uiso   1.00
H133   H     0.98371   0.05921   0.11887   0.00000  Uiso   1.00
H134   H     0.94916   0.05770   0.16820   0.00000  Uiso   1.00
N135   N     0.83333   0.28402   0.16667   0.00000  Uiso   1.00
N136   N     0.83333   0.04931   0.16667   0.00000  Uiso   1.00
O137   O     0.77321   0.20625   0.16666   0.00000  Uiso   1.00
O138   O     0.89345   0.12709   0.16667   0.00000  Uiso   1.00
O139   O     0.89345   0.20625   0.16667   0.00000  Uiso   1.00
O140   O     0.77321   0.12709   0.16666   0.00000  Uiso   1.00
O141   O     0.83333   0.20625   0.09613   0.00000  Uiso   1.00
O142   O     0.83333   0.12708   0.23720   0.00000  Uiso   1.00
O143   O     0.83333   0.20625   0.23720   0.00000  Uiso   1.00
O144   O     0.83333   0.12708   0.09613   0.00000  Uiso   1.00
Br145  Br    0.10529   0.38954   0.08630   0.00000  Uiso   1.00
Br146  Br    0.22805   0.61046   0.24703   0.00000  Uiso   1.00
Br147  Br    0.22805   0.38954   0.24703   0.00000  Uiso   1.00
Br148  Br    0.10529   0.61046   0.08631   0.00000  Uiso   1.00
C149   C     0.08768   0.50000   0.17153   0.00000  Uiso   1.00
C150   C     0.02080   0.54247   0.17462   0.00000  Uiso   1.00
C151   C     0.29063   0.50000   0.15692   0.00000  Uiso   1.00
C152   C     0.04271   0.50000   0.17641   0.00000  Uiso   1.00
C153   C     0.14150   0.35803   0.13384   0.00000  Uiso   1.00
C154   C     0.19183   0.64197   0.19950   0.00000  Uiso   1.00
C155   C     0.19183   0.35803   0.19950   0.00000  Uiso   1.00
C156   C     0.14150   0.64197   0.13384   0.00000  Uiso   1.00
C157   C     0.03952   0.41280   0.19508   0.00000  Uiso   1.00
C158   C     0.29381   0.58720   0.13826   0.00000  Uiso   1.00
C159   C     0.29381   0.41280   0.13826   0.00000  Uiso   1.00
C160   C     0.24565   0.50000   0.16181   0.00000  Uiso   1.00
C161   C     0.03952   0.58720   0.19507   0.00000  Uiso   1.00
C162   C     0.16658   0.50000   0.07361   0.00000  Uiso   1.00
C163   C     0.16675   0.50000   0.25973   0.00000  Uiso   1.00
C164   C     0.16664   0.50000   0.02187   0.00000  Uiso   1.00
C165   C     0.16670   0.50000   0.31147   0.00000  Uiso   1.00
C166   C     0.02080   0.45753   0.17462   0.00000  Uiso   1.00
C167   C     0.31253   0.54247   0.15871   0.00000  Uiso   1.00
C168   C     0.31253   0.45753   0.15871   0.00000  Uiso   1.00
Cu169  Cu    0.16667   0.54689   0.16667   0.00000  Uiso   1.00
Cu170  Cu    0.16667   0.45311   0.16667   0.00000  Uiso   1.00
H171   H     0.06465   0.41975   0.22331   0.00000  Uiso   1.00
H172   H     0.06465   0.58025   0.22331   0.00000  Uiso   1.00
H173   H     0.05084   0.60897   0.16513   0.00000  Uiso   1.00
H174   H     0.01629   0.60746   0.21446   0.00000  Uiso   1.00
H175   H     0.01630   0.39254   0.21446   0.00000  Uiso   1.00
H176   H     0.05084   0.39104   0.16514   0.00000  Uiso   1.00
H177   H     0.26868   0.58025   0.11002   0.00000  Uiso   1.00
H178   H     0.28249   0.60896   0.16820   0.00000  Uiso   1.00
H179   H     0.31704   0.60746   0.11887   0.00000  Uiso   1.00
H180   H     0.26868   0.41975   0.11002   0.00000  Uiso   1.00
H181   H     0.31704   0.39254   0.11887   0.00000  Uiso   1.00
H182   H     0.28249   0.39104   0.16820   0.00000  Uiso   1.00
N183   N     0.16667   0.61736   0.16667   0.00000  Uiso   1.00
N184   N     0.16667   0.38264   0.16667   0.00000  Uiso   1.00
O185   O     0.10655   0.53958   0.16666   0.00000  Uiso   1.00
O186   O     0.22679   0.46042   0.16667   0.00000  Uiso   1.00
O187   O     0.22679   0.53958   0.16667   0.00000  Uiso   1.00
O188   O     0.10655   0.46042   0.16666   0.00000  Uiso   1.00
O189   O     0.16667   0.53959   0.09613   0.00000  Uiso   1.00
O190   O     0.16667   0.46041   0.23720   0.00000  Uiso   1.00
O191   O     0.16667   0.53959   0.23720   0.00000  Uiso   1.00
O192   O     0.16667   0.46041   0.09613   0.00000  Uiso   1.00
Br193  Br    0.43862   0.38954   0.08630   0.00000  Uiso   1.00
Br194  Br    0.56138   0.61046   0.24703   0.00000  Uiso   1.00
Br195  Br    0.56138   0.38954   0.24703   0.00000  Uiso   1.00
Br196  Br    0.43862   0.61046   0.08631   0.00000  Uiso   1.00
C197   C     0.42102   0.50000   0.17153   0.00000  Uiso   1.00
C198   C     0.35413   0.54247   0.17462   0.00000  Uiso   1.00
C199   C     0.62396   0.50000   0.15692   0.00000  Uiso   1.00
C200   C     0.37604   0.50000   0.17641   0.00000  Uiso   1.00
C201   C     0.47483   0.35803   0.13384   0.00000  Uiso   1.00
C202   C     0.52517   0.64197   0.19950   0.00000  Uiso   1.00
C203   C     0.52517   0.35803   0.19950   0.00000  Uiso   1.00
C204   C     0.47483   0.64197   0.13384   0.00000  Uiso   1.00
C205   C     0.37286   0.41280   0.19508   0.00000  Uiso   1.00
C206   C     0.62714   0.58720   0.13826   0.00000  Uiso   1.00
C207   C     0.62714   0.41280   0.13826   0.00000  Uiso   1.00
C208   C     0.57899   0.50000   0.16181   0.00000  Uiso   1.00
C209   C     0.37286   0.58720   0.19507   0.00000  Uiso   1.00
C210   C     0.49991   0.50000   0.07361   0.00000  Uiso   1.00
C211   C     0.50009   0.50000   0.25973   0.00000  Uiso   1.00
C212   C     0.49997   0.50000   0.02187   0.00000  Uiso   1.00
C213   C     0.50003   0.50000   0.31147   0.00000  Uiso   1.00
C214   C     0.35413   0.45753   0.17462   0.00000  Uiso   1.00
C215   C     0.64587   0.54247   0.15871   0.00000  Uiso   1.00
C216   C     0.64587   0.45753   0.15871   0.00000  Uiso   1.00
Cu217  Cu    0.50000   0.54689   0.16667   0.00000  Uiso   1.00
Cu218  Cu    0.50000   0.45311   0.16667   0.00000  Uiso   1.00
H219   H     0.39798   0.41975   0.22331   0.00000  Uiso   1.00
H220   H     0.39799   0.58025   0.22331   0.00000  Uiso   1.00
H221   H     0.38417   0.60897   0.16513   0.00000  Uiso   1.00
H222   H     0.34963   0.60746   0.21446   0.00000  Uiso   1.00
H223   H     0.34963   0.39254   0.21446   0.00000  Uiso   1.00
H224   H     0.38418   0.39104   0.16514   0.00000  Uiso   1.00
H225   H     0.60201   0.58025   0.11002   0.00000  Uiso   1.00
H226   H     0.61583   0.60896   0.16820   0.00000  Uiso   1.00
H227   H     0.65037   0.60746   0.11887   0.00000  Uiso   1.00
H228   H     0.60202   0.41975   0.11002   0.00000  Uiso   1.00
H229   H     0.65037   0.39254   0.11887   0.00000  Uiso   1.00
H230   H     0.61583   0.39104   0.16820   0.00000  Uiso   1.00
N231   N     0.50000   0.61736   0.16667   0.00000  Uiso   1.00
N232   N     0.50000   0.38264   0.16667   0.00000  Uiso   1.00
O233   O     0.43988   0.53958   0.16666   0.00000  Uiso   1.00
O234   O     0.56012   0.46042   0.16667   0.00000  Uiso   1.00
O235   O     0.56012   0.53958   0.16667   0.00000  Uiso   1.00
O236   O     0.43988   0.46042   0.16666   0.00000  Uiso   1.00
O237   O     0.50000   0.53959   0.09613   0.00000  Uiso   1.00
O238   O     0.50000   0.46041   0.23720   0.00000  Uiso   1.00
O239   O     0.50000   0.53959   0.23720   0.00000  Uiso   1.00
O240   O     0.50000   0.46041   0.09613   0.00000  Uiso   1.00
Br241  Br    0.77195   0.38954   0.08630   0.00000  Uiso   1.00
Br242  Br    0.89471   0.61046   0.24703   0.00000  Uiso   1.00
Br243  Br    0.89471   0.38954   0.24703   0.00000  Uiso   1.00
Br244  Br    0.77195   0.61046   0.08631   0.00000  Uiso   1.00
C245   C     0.75435   0.50000   0.17153   0.00000  Uiso   1.00
C246   C     0.68747   0.54247   0.17462   0.00000  Uiso   1.00
C247   C     0.95729   0.50000   0.15692   0.00000  Uiso   1.00
C248   C     0.70937   0.50000   0.17641   0.00000  Uiso   1.00
C249   C     0.80817   0.35803   0.13384   0.00000  Uiso   1.00
C250   C     0.85850   0.64197   0.19950   0.00000  Uiso   1.00
C251   C     0.85850   0.35803   0.19950   0.00000  Uiso   1.00
C252   C     0.80817   0.64197   0.13384   0.00000  Uiso   1.00
C253   C     0.70619   0.41280   0.19508   0.00000  Uiso   1.00
C254   C     0.96048   0.58720   0.13826   0.00000  Uiso   1.00
C255   C     0.96048   0.41280   0.13826   0.00000  Uiso   1.00
C256   C     0.91232   0.50000   0.16181   0.00000  Uiso   1.00
C257   C     0.70619   0.58720   0.19507   0.00000  Uiso   1.00
C258   C     0.83325   0.50000   0.07361   0.00000  Uiso   1.00
C259   C     0.83342   0.50000   0.25973   0.00000  Uiso   1.00
C260   C     0.83330   0.50000   0.02187   0.00000  Uiso   1.00
C261   C     0.83336   0.50000   0.31147   0.00000  Uiso   1.00
C262   C     0.68747   0.45753   0.17462   0.00000  Uiso   1.00
C263   C     0.97920   0.54247   0.15871   0.00000  Uiso   1.00
C264   C     0.97920   0.45753   0.15871   0.00000  Uiso   1.00
Cu265  Cu    0.83333   0.54689   0.16667   0.00000  Uiso   1.00
Cu266  Cu    0.83333   0.45311   0.16667   0.00000  Uiso   1.00
H267   H     0.73132   0.41975   0.22331   0.00000  Uiso   1.00
H268   H     0.73132   0.58025   0.22331   0.00000  Uiso   1.00
H269   H     0.71750   0.60897   0.16513   0.00000  Uiso   1.00
H270   H     0.68296   0.60746   0.21446   0.00000  Uiso   1.00
H271   H     0.68296   0.39254   0.21446   0.00000  Uiso   1.00
H272   H     0.71751   0.39104   0.16514   0.00000  Uiso   1.00
H273   H     0.93535   0.58025   0.11002   0.00000  Uiso   1.00
H274   H     0.94916   0.60896   0.16820   0.00000  Uiso   1.00
H275   H     0.98370   0.60746   0.11887   0.00000  Uiso   1.00
H276   H     0.93535   0.41975   0.11002   0.00000  Uiso   1.00
H277   H     0.98371   0.39254   0.11887   0.00000  Uiso   1.00
H278   H     0.94916   0.39104   0.16820   0.00000  Uiso   1.00
N279   N     0.83333   0.61736   0.16667   0.00000  Uiso   1.00
N280   N     0.83333   0.38264   0.16667   0.00000  Uiso   1.00
O281   O     0.77321   0.53958   0.16666   0.00000  Uiso   1.00
O282   O     0.89345   0.46042   0.16667   0.00000  Uiso   1.00
O283   O     0.89345   0.53958   0.16667   0.00000  Uiso   1.00
O284   O     0.77321   0.46042   0.16666   0.00000  Uiso   1.00
O285   O     0.83333   0.53959   0.09613   0.00000  Uiso   1.00
O286   O     0.83333   0.46041   0.23720   0.00000  Uiso   1.00
O287   O     0.83333   0.53959   0.23720   0.00000  Uiso   1.00
O288   O     0.83333   0.46041   0.09613   0.00000  Uiso   1.00
Br289  Br    0.10529   0.72287   0.08630   0.00000  Uiso   1.00
Br290  Br    0.22805   0.94379   0.24703   0.00000  Uiso   1.00
Br291  Br    0.22805   0.72287   0.24703   0.00000  Uiso   1.00
Br292  Br    0.10529   0.94379   0.08631   0.00000  Uiso   1.00
C293   C     0.08768   0.83333   0.17153   0.00000  Uiso   1.00
C294   C     0.02080   0.87580   0.17462   0.00000  Uiso   1.00
C295   C     0.29063   0.83333   0.15692   0.00000  Uiso   1.00
C296   C     0.04271   0.83333   0.17641   0.00000  Uiso   1.00
C297   C     0.14150   0.69136   0.13384   0.00000  Uiso   1.00
C298   C     0.19183   0.97530   0.19950   0.00000  Uiso   1.00
C299   C     0.19183   0.69136   0.19950   0.00000  Uiso   1.00
C300   C     0.14150   0.97530   0.13384   0.00000  Uiso   1.00
C301   C     0.03952   0.74614   0.19508   0.00000  Uiso   1.00
C302   C     0.29381   0.92053   0.13826   0.00000  Uiso   1.00
C303   C     0.29381   0.74613   0.13826   0.00000  Uiso   1.00
C304   C     0.24565   0.83333   0.16181   0.00000  Uiso   1.00
C305   C     0.03952   0.92053   0.19507   0.00000  Uiso   1.00
C306   C     0.16658   0.83333   0.07361   0.00000  Uiso   1.00
C307   C     0.16675   0.83333   0.25973   0.00000  Uiso   1.00
C308   C     0.16664   0.83333   0.02187   0.00000  Uiso   1.00
C309   C     0.16670   0.83333   0.31147   0.00000  Uiso   1.00
C310   C     0.02080   0.79086   0.17462   0.00000  Uiso   1.00
C311   C     0.31253   0.87580   0.15871   0.00000  Uiso   1.00
C312   C     0.31253   0.79086   0.15871   0.00000  Uiso   1.00
Cu313  Cu    0.16667   0.88022   0.16667   0.00000  Uiso   1.00
Cu314  Cu    0.16667   0.78645   0.16667   0.00000  Uiso   1.00
H315   H     0.06465   0.75308   0.22331   0.00000  Uiso   1.00
H316   H     0.06465   0.91359   0.22331   0.00000  Uiso   1.00
H317   H     0.05084   0.94230   0.16513   0.00000  Uiso   1.00
H318   H     0.01629   0.94079   0.21446   0.00000  Uiso   1.00
H319   H     0.01630   0.72587   0.21446   0.00000  Uiso   1.00
H320   H     0.05084   0.72437   0.16514   0.00000  Uiso   1.00
H321   H     0.26868   0.91359   0.11002   0.00000  Uiso   1.00
H322   H     0.28249   0.94230   0.16820   0.00000  Uiso   1.00
H323   H     0.31704   0.94079   0.11887   0.00000  Uiso   1.00
H324   H     0.26868   0.75308   0.11002   0.00000  Uiso   1.00
H325   H     0.31704   0.72587   0.11887   0.00000  Uiso   1.00
H326   H     0.28249   0.72437   0.16820   0.00000  Uiso   1.00
N327   N     0.16667   0.95069   0.16667   0.00000  Uiso   1.00
N328   N     0.16667   0.71598   0.16667   0.00000  Uiso   1.00
O329   O     0.10655   0.87291   0.16666   0.00000  Uiso   1.00
O330   O     0.22679   0.79375   0.16667   0.00000  Uiso   1.00
O331   O     0.22679   0.87291   0.16667   0.00000  Uiso   1.00
O332   O     0.10655   0.79375   0.16666   0.00000  Uiso   1.00
O333   O     0.16667   0.87292   0.09613   0.00000  Uiso   1.00
O334   O     0.16667   0.79375   0.23720   0.00000  Uiso   1.00
O335   O     0.16667   0.87292   0.23720   0.00000  Uiso   1.00
O336   O     0.16667   0.79375   0.09613   0.00000  Uiso   1.00
Br337  Br    0.43862   0.72287   0.08630   0.00000  Uiso   1.00
Br338  Br    0.56138   0.94379   0.24703   0.00000  Uiso   1.00
Br339  Br    0.56138   0.72287   0.24703   0.00000  Uiso   1.00
Br340  Br    0.43862   0.94379   0.08631   0.00000  Uiso   1.00
C341   C     0.42102   0.83333   0.17153   0.00000  Uiso   1.00
C342   C     0.35413   0.87580   0.17462   0.00000  Uiso   1.00
C343   C     0.62396   0.83333   0.15692   0.00000  Uiso   1.00
C344   C     0.37604   0.83333   0.17641   0.00000  Uiso   1.00
C345   C     0.47483   0.69136   0.13384   0.00000  Uiso   1.00
C346   C     0.52517   0.97530   0.19950   0.00000  Uiso   1.00
C347   C     0.52517   0.69136   0.19950   0.00000  Uiso   1.00
C348   C     0.47483   0.97530   0.13384   0.00000  Uiso   1.00
C349   C     0.37286   0.74614   0.19508   0.00000  Uiso   1.00
C350   C     0.62714   0.92053   0.13826   0.00000  Uiso   1.00
C351   C     0.62714   0.74613   0.13826   0.00000  Uiso   1.00
C352   C     0.57899   0.83333   0.16181   0.00000  Uiso   1.00
C353   C     0.37286   0.92053   0.19507   0.00000  Uiso   1.00
C354   C     0.49991   0.83333   0.07361   0.00000  Uiso   1.00
C355   C     0.50009   0.83333   0.25973   0.00000  Uiso   1.00
C356   C     0.49997   0.83333   0.02187   0.00000  Uiso   1.00
C357   C     0.50003   0.83333   0.31147   0.00000  Uiso   1.00
C358   C     0.35413   0.79086   0.17462   0.00000  Uiso   1.00
C359   C     0.64587   0.87580   0.15871   0.00000  Uiso   1.00
C360   C     0.64587   0.79086   0.15871   0.00000  Uiso   1.00
Cu361  Cu    0.50000   0.88022   0.16667   0.00000  Uiso   1.00
Cu362  Cu    0.50000   0.78645   0.16667   0.00000  Uiso   1.00
H363   H     0.39798   0.75308   0.22331   0.00000  Uiso   1.00
H364   H     0.39799   0.91359   0.22331   0.00000  Uiso   1.00
H365   H     0.38417   0.94230   0.16513   0.00000  Uiso   1.00
H366   H     0.34963   0.94079   0.21446   0.00000  Uiso   1.00
H367   H     0.34963   0.72587   0.21446   0.00000  Uiso   1.00
H368   H     0.38418   0.72437   0.16514   0.00000  Uiso   1.00
H369   H     0.60201   0.91359   0.11002   0.00000  Uiso   1.00
H370   H     0.61583   0.94230   0.16820   0.00000  Uiso   1.00
H371   H     0.65037   0.94079   0.11887   0.00000  Uiso   1.00
H372   H     0.60202   0.75308   0.11002   0.00000  Uiso   1.00
H373   H     0.65037   0.72587   0.11887   0.00000  Uiso   1.00
H374   H     0.61583   0.72437   0.16820   0.00000  Uiso   1.00
N375   N     0.50000   0.95069   0.16667   0.00000  Uiso   1.00
N376   N     0.50000   0.71598   0.16667   0.00000  Uiso   1.00
O377   O     0.43988   0.87291   0.16666   0.00000  Uiso   1.00
O378   O     0.56012   0.79375   0.16667   0.00000  Uiso   1.00
O379   O     0.56012   0.87291   0.16667   0.00000  Uiso   1.00
O380   O     0.43988   0.79375   0.16666   0.00000  Uiso   1.00
O381   O     0.50000   0.87292   0.09613   0.00000  Uiso   1.00
O382   O     0.50000   0.79375   0.23720   0.00000  Uiso   1.00
O383   O     0.50000   0.87292   0.23720   0.00000  Uiso   1.00
O384   O     0.50000   0.79375   0.09613   0.00000  Uiso   1.00
Br385  Br    0.77195   0.72287   0.08630   0.00000  Uiso   1.00
Br386  Br    0.89471   0.94379   0.24703   0.00000  Uiso   1.00
Br387  Br    0.89471   0.72287   0.24703   0.00000  Uiso   1.00
Br388  Br    0.77195   0.94379   0.08631   0.00000  Uiso   1.00
C389   C     0.75435   0.83333   0.17153   0.00000  Uiso   1.00
C390   C     0.68747   0.87580   0.17462   0.00000  Uiso   1.00
C391   C     0.95729   0.83333   0.15692   0.00000  Uiso   1.00
C392   C     0.70937   0.83333   0.17641   0.00000  Uiso   1.00
C393   C     0.80817   0.69136   0.13384   0.00000  Uiso   1.00
C394   C     0.85850   0.97530   0.19950   0.00000  Uiso   1.00
C395   C     0.85850   0.69136   0.19950   0.00000  Uiso   1.00
C396   C     0.80817   0.97530   0.13384   0.00000  Uiso   1.00
C397   C     0.70619   0.74614   0.19508   0.00000  Uiso   1.00
C398   C     0.96048   0.92053   0.13826   0.00000  Uiso   1.00
C399   C     0.96048   0.74613   0.13826   0.00000  Uiso   1.00
C400   C     0.91232   0.83333   0.16181   0.00000  Uiso   1.00
C401   C     0.70619   0.92053   0.19507   0.00000  Uiso   1.00
C402   C     0.83325   0.83333   0.07361   0.00000  Uiso   1.00
C403   C     0.83342   0.83333   0.25973   0.00000  Uiso   1.00
C404   C     0.83330   0.83333   0.02187   0.00000  Uiso   1.00
C405   C     0.83336   0.83333   0.31147   0.00000  Uiso   1.00
C406   C     0.68747   0.79086   0.17462   0.00000  Uiso   1.00
C407   C     0.97920   0.87580   0.15871   0.00000  Uiso   1.00
C408   C     0.97920   0.79086   0.15871   0.00000  Uiso   1.00
Cu409  Cu    0.83333   0.88022   0.16667   0.00000  Uiso   1.00
Cu410  Cu    0.83333   0.78645   0.16667   0.00000  Uiso   1.00
H411   H     0.73132   0.75308   0.22331   0.00000  Uiso   1.00
H412   H     0.73132   0.91359   0.22331   0.00000  Uiso   1.00
H413   H     0.71750   0.94230   0.16513   0.00000  Uiso   1.00
H414   H     0.68296   0.94079   0.21446   0.00000  Uiso   1.00
H415   H     0.68296   0.72587   0.21446   0.00000  Uiso   1.00
H416   H     0.71751   0.72437   0.16514   0.00000  Uiso   1.00
H417   H     0.93535   0.91359   0.11002   0.00000  Uiso   1.00
H418   H     0.94916   0.94230   0.16820   0.00000  Uiso   1.00
H419   H     0.98370   0.94079   0.11887   0.00000  Uiso   1.00
H420   H     0.93535   0.75308   0.11002   0.00000  Uiso   1.00
H421   H     0.98371   0.72587   0.11887   0.00000  Uiso   1.00
H422   H     0.94916   0.72437   0.16820   0.00000  Uiso   1.00
N423   N     0.83333   0.95069   0.16667   0.00000  Uiso   1.00
N424   N     0.83333   0.71598   0.16667   0.00000  Uiso   1.00
O425   O     0.77321   0.87291   0.16666   0.00000  Uiso   1.00
O426   O     0.89345   0.79375   0.16667   0.00000  Uiso   1.00
O427   O     0.89345   0.87291   0.16667   0.00000  Uiso   1.00
O428   O     0.77321   0.79375   0.16666   0.00000  Uiso   1.00
O429   O     0.83333   0.87292   0.09613   0.00000  Uiso   1.00
O430   O     0.83333   0.79375   0.23720   0.00000  Uiso   1.00
O431   O     0.83333   0.87292   0.23720   0.00000  Uiso   1.00
O432   O     0.83333   0.79375   0.09613   0.00000  Uiso   1.00
Br433  Br    0.10529   0.05621   0.41964   0.00000  Uiso   1.00
Br434  Br    0.22805   0.27713   0.58036   0.00000  Uiso   1.00
Br435  Br    0.22805   0.05621   0.58036   0.00000  Uiso   1.00
Br436  Br    0.10529   0.27713   0.41964   0.00000  Uiso   1.00
C437   C     0.08768   0.16667   0.50486   0.00000  Uiso   1.00
C438   C     0.02080   0.20914   0.50795   0.00000  Uiso   1.00
C439   C     0.29063   0.16667   0.49025   0.00000  Uiso   1.00
C440   C     0.04271   0.16667   0.50975   0.00000  Uiso   1.00
C441   C     0.14150   0.02470   0.46717   0.00000  Uiso   1.00
C442   C     0.19183   0.30864   0.53283   0.00000  Uiso   1.00
C443   C     0.19183   0.02470   0.53283   0.00000  Uiso   1.00
C444   C     0.14150   0.30864   0.46717   0.00000  Uiso   1.00
C445   C     0.03952   0.07947   0.52841   0.00000  Uiso   1.00
C446   C     0.29381   0.25386   0.47159   0.00000  Uiso   1.00
C447   C     0.29381   0.07947   0.47159   0.00000  Uiso   1.00
C448   C     0.24565   0.16667   0.49514   0.00000  Uiso   1.00
C449   C     0.03952   0.25387   0.52841   0.00000  Uiso   1.00
C450   C     0.16658   0.16667   0.40694   0.00000  Uiso   1.00
C451   C     0.16675   0.16667   0.59306   0.00000  Uiso   1.00
C452   C     0.16664   0.16667   0.35520   0.00000  Uiso   1.00
C453   C     0.16670   0.16667   0.64480   0.00000  Uiso   1.00
C454   C     0.02080   0.12420   0.50796   0.00000  Uiso   1.00
C455   C     0.31253   0.20914   0.49204   0.00000  Uiso   1.00
C456   C     0.31253   0.12420   0.49205   0.00000  Uiso   1.00
Cu457  Cu    0.16667   0.21355   0.50000   0.00000  Uiso   1.00
Cu458  Cu    0.16667   0.11978   0.50000   0.00000  Uiso   1.00
H459   H     0.06465   0.08641   0.55665   0.00000  Uiso   1.00
H460   H     0.06465   0.24692   0.55664   0.00000  Uiso   1.00
H461   H     0.05084   0.27563   0.49847   0.00000  Uiso   1.00
H462   H     0.01629   0.27413   0.54780   0.00000  Uiso   1.00
H463   H     0.01630   0.05920   0.54779   0.00000  Uiso   1.00
H464   H     0.05084   0.05770   0.49847   0.00000  Uiso   1.00
H465   H     0.26868   0.24692   0.44335   0.00000  Uiso   1.00
H466   H     0.28249   0.27563   0.50153   0.00000  Uiso   1.00
H467   H     0.31704   0.27413   0.45220   0.00000  Uiso   1.00
H468   H     0.26868   0.08641   0.44335   0.00000  Uiso   1.00
H469   H     0.31704   0.05921   0.45220   0.00000  Uiso   1.00
H470   H     0.28249   0.05770   0.50153   0.00000  Uiso   1.00
N471   N     0.16667   0.28402   0.50000   0.00000  Uiso   1.00
N472   N     0.16667   0.04931   0.50000   0.00000  Uiso   1.00
O473   O     0.10655   0.20625   0.50000   0.00000  Uiso   1.00
O474   O     0.22679   0.12709   0.50000   0.00000  Uiso   1.00
O475   O     0.22679   0.20625   0.50000   0.00000  Uiso   1.00
O476   O     0.10655   0.12709   0.50000   0.00000  Uiso   1.00
O477   O     0.16667   0.20625   0.42946   0.00000  Uiso   1.00
O478   O     0.16667   0.12708   0.57054   0.00000  Uiso   1.00
O479   O     0.16667   0.20625   0.57054   0.00000  Uiso   1.00
O480   O     0.16667   0.12708   0.42946   0.00000  Uiso   1.00
Br481  Br    0.43862   0.05621   0.41964   0.00000  Uiso   1.00
Br482  Br    0.56138   0.27713   0.58036   0.00000  Uiso   1.00
Br483  Br    0.56138   0.05621   0.58036   0.00000  Uiso   1.00
Br484  Br    0.43862   0.27713   0.41964   0.00000  Uiso   1.00
C485   C     0.42102   0.16667   0.50486   0.00000  Uiso   1.00
C486   C     0.35413   0.20914   0.50795   0.00000  Uiso   1.00
C487   C     0.62396   0.16667   0.49025   0.00000  Uiso   1.00
C488   C     0.37604   0.16667   0.50975   0.00000  Uiso   1.00
C489   C     0.47483   0.02470   0.46717   0.00000  Uiso   1.00
C490   C     0.52517   0.30864   0.53283   0.00000  Uiso   1.00
C491   C     0.52517   0.02470   0.53283   0.00000  Uiso   1.00
C492   C     0.47483   0.30864   0.46717   0.00000  Uiso   1.00
C493   C     0.37286   0.07947   0.52841   0.00000  Uiso   1.00
C494   C     0.62714   0.25386   0.47159   0.00000  Uiso   1.00
C495   C     0.62714   0.07947   0.47159   0.00000  Uiso   1.00
C496   C     0.57899   0.16667   0.49514   0.00000  Uiso   1.00
C497   C     0.37286   0.25387   0.52841   0.00000  Uiso   1.00
C498   C     0.49991   0.16667   0.40694   0.00000  Uiso   1.00
C499   C     0.50009   0.16667   0.59306   0.00000  Uiso   1.00
C500   C     0.49997   0.16667   0.35520   0.00000  Uiso   1.00
C501   C     0.50003   0.16667   0.64480   0.00000  Uiso   1.00
C502   C     0.35413   0.12420   0.50796   0.00000  Uiso   1.00
C503   C     0.64587   0.20914   0.49204   0.00000  Uiso   1.00
C504   C     0.64587   0.12420   0.49205   0.00000  Uiso   1.00
Cu505  Cu    0.50000   0.21355   0.50000   0.00000  Uiso   1.00
Cu506  Cu    0.50000   0.11978   0.50000   0.00000  Uiso   1.00
H507   H     0.39798   0.08641   0.55665   0.00000  Uiso   1.00
H508   H     0.39799   0.24692   0.55664   0.00000  Uiso   1.00
H509   H     0.38417   0.27563   0.49847   0.00000  Uiso   1.00
H510   H     0.34963   0.27413   0.54780   0.00000  Uiso   1.00
H511   H     0.34963   0.05920   0.54779   0.00000  Uiso   1.00
H512   H     0.38418   0.05770   0.49847   0.00000  Uiso   1.00
H513   H     0.60201   0.24692   0.44335   0.00000  Uiso   1.00
H514   H     0.61583   0.27563   0.50153   0.00000  Uiso   1.00
H515   H     0.65037   0.27413   0.45220   0.00000  Uiso   1.00
H516   H     0.60202   0.08641   0.44335   0.00000  Uiso   1.00
H517   H     0.65037   0.05921   0.45220   0.00000  Uiso   1.00
H518   H     0.61583   0.05770   0.50153   0.00000  Uiso   1.00
N519   N     0.50000   0.28402   0.50000   0.00000  Uiso   1.00
N520   N     0.50000   0.04931   0.50000   0.00000  Uiso   1.00
O521   O     0.43988   0.20625   0.50000   0.00000  Uiso   1.00
O522   O     0.56012   0.12709   0.50000   0.00000  Uiso   1.00
O523   O     0.56012   0.20625   0.50000   0.00000  Uiso   1.00
O524   O     0.43988   0.12709   0.50000   0.00000  Uiso   1.00
O525   O     0.50000   0.20625   0.42946   0.00000  Uiso   1.00
O526   O     0.50000   0.12708   0.57054   0.00000  Uiso   1.00
O527   O     0.50000   0.20625   0.57054   0.00000  Uiso   1.00
O528   O     0.50000   0.12708   0.42946   0.00000  Uiso   1.00
Br529  Br    0.77195   0.05621   0.41964   0.00000  Uiso   1.00
Br530  Br    0.89471   0.27713   0.58036   0.00000  Uiso   1.00
Br531  Br    0.89471   0.05621   0.58036   0.00000  Uiso   1.00
Br532  Br    0.77195   0.27713   0.41964   0.00000  Uiso   1.00
C533   C     0.75435   0.16667   0.50486   0.00000  Uiso   1.00
C534   C     0.68747   0.20914   0.50795   0.00000  Uiso   1.00
C535   C     0.95729   0.16667   0.49025   0.00000  Uiso   1.00
C536   C     0.70937   0.16667   0.50975   0.00000  Uiso   1.00
C537   C     0.80817   0.02470   0.46717   0.00000  Uiso   1.00
C538   C     0.85850   0.30864   0.53283   0.00000  Uiso   1.00
C539   C     0.85850   0.02470   0.53283   0.00000  Uiso   1.00
C540   C     0.80817   0.30864   0.46717   0.00000  Uiso   1.00
C541   C     0.70619   0.07947   0.52841   0.00000  Uiso   1.00
C542   C     0.96048   0.25386   0.47159   0.00000  Uiso   1.00
C543   C     0.96048   0.07947   0.47159   0.00000  Uiso   1.00
C544   C     0.91232   0.16667   0.49514   0.00000  Uiso   1.00
C545   C     0.70619   0.25387   0.52841   0.00000  Uiso   1.00
C546   C     0.83325   0.16667   0.40694   0.00000  Uiso   1.00
C547   C     0.83342   0.16667   0.59306   0.00000  Uiso   1.00
C548   C     0.83330   0.16667   0.35520   0.00000  Uiso   1.00
C549   C     0.83336   0.16667   0.64480   0.00000  Uiso   1.00
C550   C     0.68747   0.12420   0.50796   0.00000  Uiso   1.00
C551   C     0.97920   0.20914   0.49204   0.00000  Uiso   1.00
C552   C     0.97920   0.12420   0.49205   0.00000  Uiso   1.00
Cu553  Cu    0.83333   0.21355   0.50000   0.00000  Uiso   1.00
Cu554  Cu    0.83333   0.11978   0.50000   0.00000  Uiso   1.00
H555   H     0.73132   0.08641   0.55665   0.00000  Uiso   1.00
H556   H     0.73132   0.24692   0.55664   0.00000  Uiso   1.00
H557   H     0.71750   0.27563   0.49847   0.00000  Uiso   1.00
H558   H     0.68296   0.27413   0.54780   0.00000  Uiso   1.00
H559   H     0.68296   0.05920   0.54779   0.00000  Uiso   1.00
H560   H     0.71751   0.05770   0.49847   0.00000  Uiso   1.00
H561   H     0.93535   0.24692   0.44335   0.00000  Uiso   1.00
H562   H     0.94916   0.27563   0.50153   0.00000  Uiso   1.00
H563   H     0.98370   0.27413   0.45220   0.00000  Uiso   1.00
H564   H     0.93535   0.08641   0.44335   0.00000  Uiso   1.00
H565   H     0.98371   0.05921   0.45220   0.00000  Uiso   1.00
H566   H     0.94916   0.05770   0.50153   0.00000  Uiso   1.00
N567   N     0.83333   0.28402   0.50000   0.00000  Uiso   1.00
N568   N     0.83333   0.04931   0.50000   0.00000  Uiso   1.00
O569   O     0.77321   0.20625   0.50000   0.00000  Uiso   1.00
O570   O     0.89345   0.12709   0.50000   0.00000  Uiso   1.00
O571   O     0.89345   0.20625   0.50000   0.00000  Uiso   1.00
O572   O     0.77321   0.12709   0.50000   0.00000  Uiso   1.00
O573   O     0.83333   0.20625   0.42946   0.00000  Uiso   1.00
O574   O     0.83333   0.12708   0.57054   0.00000  Uiso   1.00
O575   O     0.83333   0.20625   0.57054   0.00000  Uiso   1.00
O576   O     0.83333   0.12708   0.42946   0.00000  Uiso   1.00
Br577  Br    0.10529   0.38954   0.41964   0.00000  Uiso   1.00
Br578  Br    0.22805   0.61046   0.58036   0.00000  Uiso   1.00
Br579  Br    0.22805   0.38954   0.58036   0.00000  Uiso   1.00
Br580  Br    0.10529   0.61046   0.41964   0.00000  Uiso   1.00
C581   C     0.08768   0.50000   0.50486   0.00000  Uiso   1.00
C582   C     0.02080   0.54247   0.50795   0.00000  Uiso   1.00
C583   C     0.29063   0.50000   0.49025   0.00000  Uiso   1.00
C584   C     0.04271   0.50000   0.50975   0.00000  Uiso   1.00
C585   C     0.14150   0.35803   0.46717   0.00000  Uiso   1.00
C586   C     0.19183   0.64197   0.53283   0.00000  Uiso   1.00
C587   C     0.19183   0.35803   0.53283   0.00000  Uiso   1.00
C588   C     0.14150   0.64197   0.46717   0.00000  Uiso   1.00
C589   C     0.03952   0.41280   0.52841   0.00000  Uiso   1.00
C590   C     0.29381   0.58720   0.47159   0.00000  Uiso   1.00
C591   C     0.29381   0.41280   0.47159   0.00000  Uiso   1.00
C592   C     0.24565   0.50000   0.49514   0.00000  Uiso   1.00
C593   C     0.03952   0.58720   0.52841   0.00000  Uiso   1.00
C594   C     0.16658   0.50000   0.40694   0.00000  Uiso   1.00
C595   C     0.16675   0.50000   0.59306   0.00000  Uiso   1.00
C596   C     0.16664   0.50000   0.35520   0.00000  Uiso   1.00
C597   C     0.16670   0.50000   0.64480   0.00000  Uiso   1.00
C598   C     0.02080   0.45753   0.50796   0.00000  Uiso   1.00
C599   C     0.31253   0.54247   0.49204   0.00000  Uiso   1.00
C600   C     0.31253   0.45753   0.49205   0.00000  Uiso   1.00
Cu601  Cu    0.16667   0.54689   0.50000   0.00000  Uiso   1.00
Cu602  Cu    0.16667   0.45311   0.50000   0.00000  Uiso   1.00
H603   H     0.06465   0.41975   0.55665   0.00000  Uiso   1.00
H604   H     0.06465   0.58025   0.55664   0.00000  Uiso   1.00
H605   H     0.05084   0.60897   0.49847   0.00000  Uiso   1.00
H606   H     0.01629   0.60746   0.54780   0.00000  Uiso   1.00
H607   H     0.01630   0.39254   0.54779   0.00000  Uiso   1.00
H608   H     0.05084   0.39104   0.49847   0.00000  Uiso   1.00
H609   H     0.26868   0.58025   0.44335   0.00000  Uiso   1.00
H610   H     0.28249   0.60896   0.50153   0.00000  Uiso   1.00
H611   H     0.31704   0.60746   0.45220   0.00000  Uiso   1.00
H612   H     0.26868   0.41975   0.44335   0.00000  Uiso   1.00
H613   H     0.31704   0.39254   0.45220   0.00000  Uiso   1.00
H614   H     0.28249   0.39104   0.50153   0.00000  Uiso   1.00
N615   N     0.16667   0.61736   0.50000   0.00000  Uiso   1.00
N616   N     0.16667   0.38264   0.50000   0.00000  Uiso   1.00
O617   O     0.10655   0.53958   0.50000   0.00000  Uiso   1.00
O618   O     0.22679   0.46042   0.50000   0.00000  Uiso   1.00
O619   O     0.22679   0.53958   0.50000   0.00000  Uiso   1.00
O620   O     0.10655   0.46042   0.50000   0.00000  Uiso   1.00
O621   O     0.16667   0.53959   0.42946   0.00000  Uiso   1.00
O622   O     0.16667   0.46041   0.57054   0.00000  Uiso   1.00
O623   O     0.16667   0.53959   0.57054   0.00000  Uiso   1.00
O624   O     0.16667   0.46041   0.42946   0.00000  Uiso   1.00
Br625  Br    0.43862   0.38954   0.41964   0.00000  Uiso   1.00
Br626  Br    0.56138   0.61046   0.58036   0.00000  Uiso   1.00
Br627  Br    0.56138   0.38954   0.58036   0.00000  Uiso   1.00
Br628  Br    0.43862   0.61046   0.41964   0.00000  Uiso   1.00
C629   C     0.42102   0.50000   0.50486   0.00000  Uiso   1.00
C630   C     0.35413   0.54247   0.50795   0.00000  Uiso   1.00
C631   C     0.62396   0.50000   0.49025   0.00000  Uiso   1.00
C632   C     0.37604   0.50000   0.50975   0.00000  Uiso   1.00
C633   C     0.47483   0.35803   0.46717   0.00000  Uiso   1.00
C634   C     0.52517   0.64197   0.53283   0.00000  Uiso   1.00
C635   C     0.52517   0.35803   0.53283   0.00000  Uiso   1.00
C636   C     0.47483   0.64197   0.46717   0.00000  Uiso   1.00
C637   C     0.37286   0.41280   0.52841   0.00000  Uiso   1.00
C638   C     0.62714   0.58720   0.47159   0.00000  Uiso   1.00
C639   C     0.62714   0.41280   0.47159   0.00000  Uiso   1.00
C640   C     0.57899   0.50000   0.49514   0.00000  Uiso   1.00
C641   C     0.37286   0.58720   0.52841   0.00000  Uiso   1.00
C642   C     0.49991   0.50000   0.40694   0.00000  Uiso   1.00
C643   C     0.50009   0.50000   0.59306   0.00000  Uiso   1.00
C644   C     0.49997   0.50000   0.35520   0.00000  Uiso   1.00
C645   C     0.50003   0.50000   0.64480   0.00000  Uiso   1.00
C646   C     0.35413   0.45753   0.50796   0.00000  Uiso   1.00
C647   C     0.64587   0.54247   0.49204   0.00000  Uiso   1.00
C648   C     0.64587   0.45753   0.49205   0.00000  Uiso   1.00
Cu649  Cu    0.50000   0.54689   0.50000   0.00000  Uiso   1.00
Cu650  Cu    0.50000   0.45311   0.50000   0.00000  Uiso   1.00
H651   H     0.39798   0.41975   0.55665   0.00000  Uiso   1.00
H652   H     0.39799   0.58025   0.55664   0.00000  Uiso   1.00
H653   H     0.38417   0.60897   0.49847   0.00000  Uiso   1.00
H654   H     0.34963   0.60746   0.54780   0.00000  Uiso   1.00
H655   H     0.34963   0.39254   0.54779   0.00000  Uiso   1.00
H656   H     0.38418   0.39104   0.49847   0.00000  Uiso   1.00
H657   H     0.60201   0.58025   0.44335   0.00000  Uiso   1.00
H658   H     0.61583   0.60896   0.50153   0.00000  Uiso   1.00
H659   H     0.65037   0.60746   0.45220   0.00000  Uiso   1.00
H660   H     0.60202   0.41975   0.44335   0.00000  Uiso   1.00
H661   H     0.65037   0.39254   0.45220   0.00000  Uiso   1.00
H662   H     0.61583   0.39104   0.50153   0.00000  Uiso   1.00
N663   N     0.50000   0.61736   0.50000   0.00000  Uiso   1.00
N664   N     0.50000   0.38264   0.50000   0.00000  Uiso   1.00
O665   O     0.43988   0.53958   0.50000   0.00000  Uiso   1.00
O666   O     0.56012   0.46042   0.50000   0.00000  Uiso   1.00
O667   O     0.56012   0.53958   0.50000   0.00000  Uiso   1.00
O668   O     0.43988   0.46042   0.50000   0.00000  Uiso   1.00
O669   O     0.50000   0.53959   0.42946   0.00000  Uiso   1.00
O670   O     0.50000   0.46041   0.57054   0.00000  Uiso   1.00
O671   O     0.50000   0.53959   0.57054   0.00000  Uiso   1.00
O672   O     0.50000   0.46041   0.42946   0.00000  Uiso   1.00
Br673  Br    0.77195   0.38954   0.41964   0.00000  Uiso   1.00
Br674  Br    0.89471   0.61046   0.58036   0.00000  Uiso   1.00
Br675  Br    0.89471   0.38954   0.58036   0.00000  Uiso   1.00
Br676  Br    0.77195   0.61046   0.41964   0.00000  Uiso   1.00
C677   C     0.75435   0.50000   0.50486   0.00000  Uiso   1.00
C678   C     0.68747   0.54247   0.50795   0.00000  Uiso   1.00
C679   C     0.95729   0.50000   0.49025   0.00000  Uiso   1.00
C680   C     0.70937   0.50000   0.50975   0.00000  Uiso   1.00
C681   C     0.80817   0.35803   0.46717   0.00000  Uiso   1.00
C682   C     0.85850   0.64197   0.53283   0.00000  Uiso   1.00
C683   C     0.85850   0.35803   0.53283   0.00000  Uiso   1.00
C684   C     0.80817   0.64197   0.46717   0.00000  Uiso   1.00
C685   C     0.70619   0.41280   0.52841   0.00000  Uiso   1.00
C686   C     0.96048   0.58720   0.47159   0.00000  Uiso   1.00
C687   C     0.96048   0.41280   0.47159   0.00000  Uiso   1.00
C688   C     0.91232   0.50000   0.49514   0.00000  Uiso   1.00
C689   C     0.70619   0.58720   0.52841   0.00000  Uiso   1.00
C690   C     0.83325   0.50000   0.40694   0.00000  Uiso   1.00
C691   C     0.83342   0.50000   0.59306   0.00000  Uiso   1.00
C692   C     0.83330   0.50000   0.35520   0.00000  Uiso   1.00
C693   C     0.83336   0.50000   0.64480   0.00000  Uiso   1.00
C694   C     0.68747   0.45753   0.50796   0.00000  Uiso   1.00
C695   C     0.97920   0.54247   0.49204   0.00000  Uiso   1.00
C696   C     0.97920   0.45753   0.49205   0.00000  Uiso   1.00
Cu697  Cu    0.83333   0.54689   0.50000   0.00000  Uiso   1.00
Cu698  Cu    0.83333   0.45311   0.50000   0.00000  Uiso   1.00
H699   H     0.73132   0.41975   0.55665   0.00000  Uiso   1.00
H700   H     0.73132   0.58025   0.55664   0.00000  Uiso   1.00
H701   H     0.71750   0.60897   0.49847   0.00000  Uiso   1.00
H702   H     0.68296   0.60746   0.54780   0.00000  Uiso   1.00
H703   H     0.68296   0.39254   0.54779   0.00000  Uiso   1.00
H704   H     0.71751   0.39104   0.49847   0.00000  Uiso   1.00
H705   H     0.93535   0.58025   0.44335   0.00000  Uiso   1.00
H706   H     0.94916   0.60896   0.50153   0.00000  Uiso   1.00
H707   H     0.98370   0.60746   0.45220   0.00000  Uiso   1.00
H708   H     0.93535   0.41975   0.44335   0.00000  Uiso   1.00
H709   H     0.98371   0.39254   0.45220   0.00000  Uiso   1.00
H710   H     0.94916   0.39104   0.50153   0.00000  Uiso   1.00
N711   N     0.83333   0.61736   0.50000   0.00000  Uiso   1.00
N712   N     0.83333   0.38264   0.50000   0.00000  Uiso   1.00
O713   O     0.77321   0.53958   0.50000   0.00000  Uiso   1.00
O714   O     0.89345   0.46042   0.50000   0.00000  Uiso   1.00
O715   O     0.89345   0.53958   0.50000   0.00000  Uiso   1.00
O716   O     0.77321   0.46042   0.50000   0.00000  Uiso   1.00
O717   O     0.83333   0.53959   0.42946   0.00000  Uiso   1.00
O718   O     0.83333   0.46041   0.57054   0.00000  Uiso   1.00
O719   O     0.83333   0.53959   0.57054   0.00000  Uiso   1.00
O720   O     0.83333   0.46041   0.42946   0.00000  Uiso   1.00
Br721  Br    0.10529   0.72287   0.41964   0.00000  Uiso   1.00
Br722  Br    0.22805   0.94379   0.58036   0.00000  Uiso   1.00
Br723  Br    0.22805   0.72287   0.58036   0.00000  Uiso   1.00
Br724  Br    0.10529   0.94379   0.41964   0.00000  Uiso   1.00
C725   C     0.08768   0.83333   0.50486   0.00000  Uiso   1.00
C726   C     0.02080   0.87580   0.50795   0.00000  Uiso   1.00
C727   C     0.29063   0.83333   0.49025   0.00000  Uiso   1.00
C728   C     0.04271   0.83333   0.50975   0.00000  Uiso   1.00
C729   C     0.14150   0.69136   0.46717   0.00000  Uiso   1.00
C730   C     0.19183   0.97530   0.53283   0.00000  Uiso   1.00
C731   C     0.19183   0.69136   0.53283   0.00000  Uiso   1.00
C732   C     0.14150   0.97530   0.46717   0.00000  Uiso   1.00
C733   C     0.03952   0.74614   0.52841   0.00000  Uiso   1.00
C734   C     0.29381   0.92053   0.47159   0.00000  Uiso   1.00
C735   C     0.29381   0.74613   0.47159   0.00000  Uiso   1.00
C736   C     0.24565   0.83333   0.49514   0.00000  Uiso   1.00
C737   C     0.03952   0.92053   0.52841   0.00000  Uiso   1.00
C738   C     0.16658   0.83333   0.40694   0.00000  Uiso   1.00
C739   C     0.16675   0.83333   0.59306   0.00000  Uiso   1.00
C740   C     0.16664   0.83333   0.35520   0.00000  Uiso   1.00
C741   C     0.16670   0.83333   0.64480   0.00000  Uiso   1.00
C742   C     0.02080   0.79086   0.50796   0.00000  Uiso   1.00
C743   C     0.31253   0.87580   0.49204   0.00000  Uiso   1.00
C744   C     0.31253   0.79086   0.49205   0.00000  Uiso   1.00
Cu745  Cu    0.16667   0.88022   0.50000   0.00000  Uiso   1.00
Cu746  Cu    0.16667   0.78645   0.50000   0.00000  Uiso   1.00
H747   H     0.06465   0.75308   0.55665   0.00000  Uiso   1.00
H748   H     0.06465   0.91359   0.55664   0.00000  Uiso   1.00
H749   H     0.05084   0.94230   0.49847   0.00000  Uiso   1.00
H750   H     0.01629   0.94079   0.54780   0.00000  Uiso   1.00
H751   H     0.01630   0.72587   0.54779   0.00000  Uiso   1.00
H752   H     0.05084   0.72437   0.49847   0.00000  Uiso   1.00
H753   H     0.26868   0.91359   0.44335   0.00000  Uiso   1.00
H754   H     0.28249   0.94230   0.50153   0.00000  Uiso   1.00
H755   H     0.31704   0.94079   0.45220   0.00000  Uiso   1.00
H756   H     0.26868   0.75308   0.44335   0.00000  Uiso   1.00
H757   H     0.31704   0.72587   0.45220   0.00000  Uiso   1.00
H758   H     0.28249   0.72437   0.50153   0.00000  Uiso   1.00
N759   N     0.16667   0.95069   0.50000   0.00000  Uiso   1.00
N760   N     0.16667   0.71598   0.50000   0.00000  Uiso   1.00
O761   O     0.10655   0.87291   0.50000   0.00000  Uiso   1.00
O762   O     0.22679   0.79375   0.50000   0.00000  Uiso   1.00
O763   O     0.22679   0.87291   0.50000   0.00000  Uiso   1.00
O764   O     0.10655   0.79375   0.50000   0.00000  Uiso   1.00
O765   O     0.16667   0.87292   0.42946   0.00000  Uiso   1.00
O766   O     0.16667   0.79375   0.57054   0.00000  Uiso   1.00
O767   O     0.16667   0.87292   0.57054   0.00000  Uiso   1.00
O768   O     0.16667   0.79375   0.42946   0.00000  Uiso   1.00
Br769  Br    0.43862   0.72287   0.41964   0.00000  Uiso   1.00
Br770  Br    0.56138   0.94379   0.58036   0.00000  Uiso   1.00
Br771  Br    0.56138   0.72287   0.58036   0.00000  Uiso   1.00
Br772  Br    0.43862   0.94379   0.41964   0.00000  Uiso   1.00
C773   C     0.42102   0.83333   0.50486   0.00000  Uiso   1.00
C774   C     0.35413   0.87580   0.50795   0.00000  Uiso   1.00
C775   C     0.62396   0.83333   0.49025   0.00000  Uiso   1.00
C776   C     0.37604   0.83333   0.50975   0.00000  Uiso   1.00
C777   C     0.47483   0.69136   0.46717   0.00000  Uiso   1.00
C778   C     0.52517   0.97530   0.53283   0.00000  Uiso   1.00
C779   C     0.52517   0.69136   0.53283   0.00000  Uiso   1.00
C780   C     0.47483   0.97530   0.46717   0.00000  Uiso   1.00
C781   C     0.37286   0.74614   0.52841   0.00000  Uiso   1.00
C782   C     0.62714   0.92053   0.47159   0.00000  Uiso   1.00
C783   C     0.62714   0.74613   0.47159   0.00000  Uiso   1.00
C784   C     0.57899   0.83333   0.49514   0.00000  Uiso   1.00
C785   C     0.37286   0.92053   0.52841   0.00000  Uiso   1.00
C786   C     0.49991   0.83333   0.40694   0.00000  Uiso   1.00
C787   C     0.50009   0.83333   0.59306   0.00000  Uiso   1.00
C788   C     0.49997   0.83333   0.35520   0.00000  Uiso   1.00
C789   C     0.50003   0.83333   0.64480   0.00000  Uiso   1.00
C790   C     0.35413   0.79086   0.50796   0.00000  Uiso   1.00
C791   C     0.64587   0.87580   0.49204   0.00000  Uiso   1.00
C792   C     0.64587   0.79086   0.49205   0.00000  Uiso   1.00
Cu793  Cu    0.50000   0.88022   0.50000   0.00000  Uiso   1.00
Cu794  Cu    0.50000   0.78645   0.50000   0.00000  Uiso   1.00
H795   H     0.39798   0.75308   0.55665   0.00000  Uiso   1.00
H796   H     0.39799   0.91359   0.55664   0.00000  Uiso   1.00
H797   H     0.38417   0.94230   0.49847   0.00000  Uiso   1.00
H798   H     0.34963   0.94079   0.54780   0.00000  Uiso   1.00
H799   H     0.34963   0.72587   0.54779   0.00000  Uiso   1.00
H800   H     0.38418   0.72437   0.49847   0.00000  Uiso   1.00
H801   H     0.60201   0.91359   0.44335   0.00000  Uiso   1.00
H802   H     0.61583   0.94230   0.50153   0.00000  Uiso   1.00
H803   H     0.65037   0.94079   0.45220   0.00000  Uiso   1.00
H804   H     0.60202   0.75308   0.44335   0.00000  Uiso   1.00
H805   H     0.65037   0.72587   0.45220   0.00000  Uiso   1.00
H806   H     0.61583   0.72437   0.50153   0.00000  Uiso   1.00
N807   N     0.50000   0.95069   0.50000   0.00000  Uiso   1.00
N808   N     0.50000   0.71598   0.50000   0.00000  Uiso   1.00
O809   O     0.43988   0.87291   0.50000   0.00000  Uiso   1.00
O810   O     0.56012   0.79375   0.50000   0.00000  Uiso   1.00
O811   O     0.56012   0.87291   0.50000   0.00000  Uiso   1.00
O812   O     0.43988   0.79375   0.50000   0.00000  Uiso   1.00
O813   O     0.50000   0.87292   0.42946   0.00000  Uiso   1.00
O814   O     0.50000   0.79375   0.57054   0.00000  Uiso   1.00
O815   O     0.50000   0.87292   0.57054   0.00000  Uiso   1.00
O816   O     0.50000   0.79375   0.42946   0.00000  Uiso   1.00
Br817  Br    0.77195   0.72287   0.41964   0.00000  Uiso   1.00
Br818  Br    0.89471   0.94379   0.58036   0.00000  Uiso   1.00
Br819  Br    0.89471   0.72287   0.58036   0.00000  Uiso   1.00
Br820  Br    0.77195   0.94379   0.41964   0.00000  Uiso   1.00
C821   C     0.75435   0.83333   0.50486   0.00000  Uiso   1.00
C822   C     0.68747   0.87580   0.50795   0.00000  Uiso   1.00
C823   C     0.95729   0.83333   0.49025   0.00000  Uiso   1.00
C824   C     0.70937   0.83333   0.50975   0.00000  Uiso   1.00
C825   C     0.80817   0.69136   0.46717   0.00000  Uiso   1.00
C826   C     0.85850   0.97530   0.53283   0.00000  Uiso   1.00
C827   C     0.85850   0.69136   0.53283   0.00000  Uiso   1.00
C828   C     0.80817   0.97530   0.46717   0.00000  Uiso   1.00
C829   C     0.70619   0.74614   0.52841   0.00000  Uiso   1.00
C830   C     0.96048   0.92053   0.47159   0.00000  Uiso   1.00
C831   C     0.96048   0.74613   0.47159   0.00000  Uiso   1.00
C832   C     0.91232   0.83333   0.49514   0.00000  Uiso   1.00
C833   C     0.70619   0.92053   0.52841   0.00000  Uiso   1.00
C834   C     0.83325   0.83333   0.40694   0.00000  Uiso   1.00
C835   C     0.83342   0.83333   0.59306   0.00000  Uiso   1.00
C836   C     0.83330   0.83333   0.35520   0.00000  Uiso   1.00
C837   C     0.83336   0.83333   0.64480   0.00000  Uiso   1.00
C838   C     0.68747   0.79086   0.50796   0.00000  Uiso   1.00
C839   C     0.97920   0.87580   0.49204   0.00000  Uiso   1.00
C840   C     0.97920   0.79086   0.49205   0.00000  Uiso   1.00
Cu841  Cu    0.83333   0.88022   0.50000   0.00000  Uiso   1.00
Cu842  Cu    0.83333   0.78645   0.50000   0.00000  Uiso   1.00
H843   H     0.73132   0.75308   0.55665   0.00000  Uiso   1.00
H844   H     0.73132   0.91359   0.55664   0.00000  Uiso   1.00
H845   H     0.71750   0.94230   0.49847   0.00000  Uiso   1.00
H846   H     0.68296   0.94079   0.54780   0.00000  Uiso   1.00
H847   H     0.68296   0.72587   0.54779   0.00000  Uiso   1.00
H848   H     0.71751   0.72437   0.49847   0.00000  Uiso   1.00
H849   H     0.93535   0.91359   0.44335   0.00000  Uiso   1.00
H850   H     0.94916   0.94230   0.50153   0.00000  Uiso   1.00
H851   H     0.98370   0.94079   0.45220   0.00000  Uiso   1.00
H852   H     0.93535   0.75308   0.44335   0.00000  Uiso   1.00
H853   H     0.98371   0.72587   0.45220   0.00000  Uiso   1.00
H854   H     0.94916   0.72437   0.50153   0.00000  Uiso   1.00
N855   N     0.83333   0.95069   0.50000   0.00000  Uiso   1.00
N856   N     0.83333   0.71598   0.50000   0.00000  Uiso   1.00
O857   O     0.77321   0.87291   0.50000   0.00000  Uiso   1.00
O858   O     0.89345   0.79375   0.50000   0.00000  Uiso   1.00
O859   O     0.89345   0.87291   0.50000   0.00000  Uiso   1.00
O860   O     0.77321   0.79375   0.50000   0.00000  Uiso   1.00
O861   O     0.83333   0.87292   0.42946   0.00000  Uiso   1.00
O862   O     0.83333   0.79375   0.57054   0.00000  Uiso   1.00
O863   O     0.83333   0.87292   0.57054   0.00000  Uiso   1.00
O864   O     0.83333   0.79375   0.42946   0.00000  Uiso   1.00
Br865  Br    0.10529   0.05621   0.75297   0.00000  Uiso   1.00
Br866  Br    0.22805   0.27713   0.91369   0.00000  Uiso   1.00
Br867  Br    0.22805   0.05621   0.91369   0.00000  Uiso   1.00
Br868  Br    0.10529   0.27713   0.75297   0.00000  Uiso   1.00
C869   C     0.08768   0.16667   0.83819   0.00000  Uiso   1.00
C870   C     0.02080   0.20914   0.84129   0.00000  Uiso   1.00
C871   C     0.29063   0.16667   0.82359   0.00000  Uiso   1.00
C872   C     0.04271   0.16667   0.84308   0.00000  Uiso   1.00
C873   C     0.14150   0.02470   0.80050   0.00000  Uiso   1.00
C874   C     0.19183   0.30864   0.86616   0.00000  Uiso   1.00
C875   C     0.19183   0.02470   0.86616   0.00000  Uiso   1.00
C876   C     0.14150   0.30864   0.80050   0.00000  Uiso   1.00
C877   C     0.03952   0.07947   0.86174   0.00000  Uiso   1.00
C878   C     0.29381   0.25386   0.80492   0.00000  Uiso   1.00
C879   C     0.29381   0.07947   0.80493   0.00000  Uiso   1.00
C880   C     0.24565   0.16667   0.82847   0.00000  Uiso   1.00
C881   C     0.03952   0.25387   0.86174   0.00000  Uiso   1.00
C882   C     0.16658   0.16667   0.74027   0.00000  Uiso   1.00
C883   C     0.16675   0.16667   0.92639   0.00000  Uiso   1.00
C884   C     0.16664   0.16667   0.68853   0.00000  Uiso   1.00
C885   C     0.16670   0.16667   0.97813   0.00000  Uiso   1.00
C886   C     0.02080   0.12420   0.84129   0.00000  Uiso   1.00
C887   C     0.31253   0.20914   0.82538   0.00000  Uiso   1.00
C888   C     0.31253   0.12420   0.82538   0.00000  Uiso   1.00
Cu889  Cu    0.16667   0.21355   0.83333   0.00000  Uiso   1.00
Cu890  Cu    0.16667   0.11978   0.83333   0.00000  Uiso   1.00
H891   H     0.06465   0.08641   0.88998   0.00000  Uiso   1.00
H892   H     0.06465   0.24692   0.88998   0.00000  Uiso   1.00
H893   H     0.05084   0.27563   0.83180   0.00000  Uiso   1.00
H894   H     0.01629   0.27413   0.88113   0.00000  Uiso   1.00
H895   H     0.01630   0.05920   0.88113   0.00000  Uiso   1.00
H896   H     0.05084   0.05770   0.83180   0.00000  Uiso   1.00
H897   H     0.26868   0.24692   0.77669   0.00000  Uiso   1.00
H898   H     0.28249   0.27563   0.83486   0.00000  Uiso   1.00
H899   H     0.31704   0.27413   0.78554   0.00000  Uiso   1.00
H900   H     0.26868   0.08641   0.77669   0.00000  Uiso   1.00
H901   H     0.31704   0.05921   0.78554   0.00000  Uiso   1.00
H902   H     0.28249   0.05770   0.83486   0.00000  Uiso   1.00
N903   N     0.16667   0.28402   0.83333   0.00000  Uiso   1.00
N904   N     0.16667   0.04931   0.83333   0.00000  Uiso   1.00
O905   O     0.10655   0.20625   0.83333   0.00000  Uiso   1.00
O906   O     0.22679   0.12709   0.83334   0.00000  Uiso   1.00
O907   O     0.22679   0.20625   0.83334   0.00000  Uiso   1.00
O908   O     0.10655   0.12709   0.83333   0.00000  Uiso   1.00
O909   O     0.16667   0.20625   0.76280   0.00000  Uiso   1.00
O910   O     0.16667   0.12708   0.90387   0.00000  Uiso   1.00
O911   O     0.16667   0.20625   0.90387   0.00000  Uiso   1.00
O912   O     0.16667   0.12708   0.76280   0.00000  Uiso   1.00
Br913  Br    0.43862   0.05621   0.75297   0.00000  Uiso   1.00
Br914  Br    0.56138   0.27713   0.91369   0.00000  Uiso   1.00
Br915  Br    0.56138   0.05621   0.91369   0.00000  Uiso   1.00
Br916  Br    0.43862   0.27713   0.75297   0.00000  Uiso   1.00
C917   C     0.42102   0.16667   0.83819   0.00000  Uiso   1.00
C918   C     0.35413   0.20914   0.84129   0.00000  Uiso   1.00
C919   C     0.62396   0.16667   0.82359   0.00000  Uiso   1.00
C920   C     0.37604   0.16667   0.84308   0.00000  Uiso   1.00
C921   C     0.47483   0.02470   0.80050   0.00000  Uiso   1.00
C922   C     0.52517   0.30864   0.86616   0.00000  Uiso   1.00
C923   C     0.52517   0.02470   0.86616   0.00000  Uiso   1.00
C924   C     0.47483   0.30864   0.80050   0.00000  Uiso   1.00
C925   C     0.37286   0.07947   0.86174   0.00000  Uiso   1.00
C926   C     0.62714   0.25386   0.80492   0.00000  Uiso   1.00
C927   C     0.62714   0.07947   0.80493   0.00000  Uiso   1.00
C928   C     0.57899   0.16667   0.82847   0.00000  Uiso   1.00
C929   C     0.37286   0.25387   0.86174   0.00000  Uiso   1.00
C930   C     0.49991   0.16667   0.74027   0.00000  Uiso   1.00
C931   C     0.50009   0.16667   0.92639   0.00000  Uiso   1.00
C932   C     0.49997   0.16667   0.68853   0.00000  Uiso   1.00
C933   C     0.50003   0.16667   0.97813   0.00000  Uiso   1.00
C934   C     0.35413   0.12420   0.84129   0.00000  Uiso   1.00
C935   C     0.64587   0.20914   0.82538   0.00000  Uiso   1.00
C936   C     0.64587   0.12420   0.82538   0.00000  Uiso   1.00
Cu937  Cu    0.50000   0.21355   0.83333   0.00000  Uiso   1.00
Cu938  Cu    0.50000   0.11978   0.83333   0.00000  Uiso   1.00
H939   H     0.39798   0.08641   0.88998   0.00000  Uiso   1.00
H940   H     0.39799   0.24692   0.88998   0.00000  Uiso   1.00
H941   H     0.38417   0.27563   0.83180   0.00000  Uiso   1.00
H942   H     0.34963   0.27413   0.88113   0.00000  Uiso   1.00
H943   H     0.34963   0.05920   0.88113   0.00000  Uiso   1.00
H944   H     0.38418   0.05770   0.83180   0.00000  Uiso   1.00
H945   H     0.60201   0.24692   0.77669   0.00000  Uiso   1.00
H946   H     0.61583   0.27563   0.83486   0.00000  Uiso   1.00
H947   H     0.65037   0.27413   0.78554   0.00000  Uiso   1.00
H948   H     0.60202   0.08641   0.77669   0.00000  Uiso   1.00
H949   H     0.65037   0.05921   0.78554   0.00000  Uiso   1.00
H950   H     0.61583   0.05770   0.83486   0.00000  Uiso   1.00
N951   N     0.50000   0.28402   0.83333   0.00000  Uiso   1.00
N952   N     0.50000   0.04931   0.83333   0.00000  Uiso   1.00
O953   O     0.43988   0.20625   0.83333   0.00000  Uiso   1.00
O954   O     0.56012   0.12709   0.83334   0.00000  Uiso   1.00
O955   O     0.56012   0.20625   0.83334   0.00000  Uiso   1.00
O956   O     0.43988   0.12709   0.83333   0.00000  Uiso   1.00
O957   O     0.50000   0.20625   0.76280   0.00000  Uiso   1.00
O958   O     0.50000   0.12708   0.90387   0.00000  Uiso   1.00
O959   O     0.50000   0.20625   0.90387   0.00000  Uiso   1.00
O960   O     0.50000   0.12708   0.76280   0.00000  Uiso   1.00
Br961  Br    0.77195   0.05621   0.75297   0.00000  Uiso   1.00
Br962  Br    0.89471   0.27713   0.91369   0.00000  Uiso   1.00
Br963  Br    0.89471   0.05621   0.91369   0.00000  Uiso   1.00
Br964  Br    0.77195   0.27713   0.75297   0.00000  Uiso   1.00
C965   C     0.75435   0.16667   0.83819   0.00000  Uiso   1.00
C966   C     0.68747   0.20914   0.84129   0.00000  Uiso   1.00
C967   C     0.95729   0.16667   0.82359   0.00000  Uiso   1.00
C968   C     0.70937   0.16667   0.84308   0.00000  Uiso   1.00
C969   C     0.80817   0.02470   0.80050   0.00000  Uiso   1.00
C970   C     0.85850   0.30864   0.86616   0.00000  Uiso   1.00
C971   C     0.85850   0.02470   0.86616   0.00000  Uiso   1.00
C972   C     0.80817   0.30864   0.80050   0.00000  Uiso   1.00
C973   C     0.70619   0.07947   0.86174   0.00000  Uiso   1.00
C974   C     0.96048   0.25386   0.80492   0.00000  Uiso   1.00
C975   C     0.96048   0.07947   0.80493   0.00000  Uiso   1.00
C976   C     0.91232   0.16667   0.82847   0.00000  Uiso   1.00
C977   C     0.70619   0.25387   0.86174   0.00000  Uiso   1.00
C978   C     0.83325   0.16667   0.74027   0.00000  Uiso   1.00
C979   C     0.83342   0.16667   0.92639   0.00000  Uiso   1.00
C980   C     0.83330   0.16667   0.68853   0.00000  Uiso   1.00
C981   C     0.83336   0.16667   0.97813   0.00000  Uiso   1.00
C982   C     0.68747   0.12420   0.84129   0.00000  Uiso   1.00
C983   C     0.97920   0.20914   0.82538   0.00000  Uiso   1.00
C984   C     0.97920   0.12420   0.82538   0.00000  Uiso   1.00
Cu985  Cu    0.83333   0.21355   0.83333   0.00000  Uiso   1.00
Cu986  Cu    0.83333   0.11978   0.83333   0.00000  Uiso   1.00
H987   H     0.73132   0.08641   0.88998   0.00000  Uiso   1.00
H988   H     0.73132   0.24692   0.88998   0.00000  Uiso   1.00
H989   H     0.71750   0.27563   0.83180   0.00000  Uiso   1.00
H990   H     0.68296   0.27413   0.88113   0.00000  Uiso   1.00
H991   H     0.68296   0.05920   0.88113   0.00000  Uiso   1.00
H992   H     0.71751   0.05770   0.83180   0.00000  Uiso   1.00
H993   H     0.93535   0.24692   0.77669   0.00000  Uiso   1.00
H994   H     0.94916   0.27563   0.83486   0.00000  Uiso   1.00
H995   H     0.98370   0.27413   0.78554   0.00000  Uiso   1.00
H996   H     0.93535   0.08641   0.77669   0.00000  Uiso   1.00
H997   H     0.98371   0.05921   0.78554   0.00000  Uiso   1.00
H998   H     0.94916   0.05770   0.83486   0.00000  Uiso   1.00
N999   N     0.83333   0.28402   0.83333   0.00000  Uiso   1.00
N1000  N     0.83333   0.04931   0.83333   0.00000  Uiso   1.00
O1001  O     0.77321   0.20625   0.83333   0.00000  Uiso   1.00
O1002  O     0.89345   0.12709   0.83334   0.00000  Uiso   1.00
O1003  O     0.89345   0.20625   0.83334   0.00000  Uiso   1.00
O1004  O     0.77321   0.12709   0.83333   0.00000  Uiso   1.00
O1005  O     0.83333   0.20625   0.76280   0.00000  Uiso   1.00
O1006  O     0.83333   0.12708   0.90387   0.00000  Uiso   1.00
O1007  O     0.83333   0.20625   0.90387   0.00000  Uiso   1.00
O1008  O     0.83333   0.12708   0.76280   0.00000  Uiso   1.00
Br1009 Br    0.10529   0.38954   0.75297   0.00000  Uiso   1.00
Br1010 Br    0.22805   0.61046   0.91369   0.00000  Uiso   1.00
Br1011 Br    0.22805   0.38954   0.91369   0.00000  Uiso   1.00
Br1012 Br    0.10529   0.61046   0.75297   0.00000  Uiso   1.00
C1013  C     0.08768   0.50000   0.83819   0.00000  Uiso   1.00
C1014  C     0.02080   0.54247   0.84129   0.00000  Uiso   1.00
C1015  C     0.29063   0.50000   0.82359   0.00000  Uiso   1.00
C1016  C     0.04271   0.50000   0.84308   0.00000  Uiso   1.00
C1017  C     0.14150   0.35803   0.80050   0.00000  Uiso   1.00
C1018  C     0.19183   0.64197   0.86616   0.00000  Uiso   1.00
C1019  C     0.19183   0.35803   0.86616   0.00000  Uiso   1.00
C1020  C     0.14150   0.64197   0.80050   0.00000  Uiso   1.00
C1021  C     0.03952   0.41280   0.86174   0.00000  Uiso   1.00
C1022  C     0.29381   0.58720   0.80492   0.00000  Uiso   1.00
C1023  C     0.29381   0.41280   0.80493   0.00000  Uiso   1.00
C1024  C     0.24565   0.50000   0.82847   0.00000  Uiso   1.00
C1025  C     0.03952   0.58720   0.86174   0.00000  Uiso   1.00
C1026  C     0.16658   0.50000   0.74027   0.00000  Uiso   1.00
C1027  C     0.16675   0.50000   0.92639   0.00000  Uiso   1.00
C1028  C     0.16664   0.50000   0.68853   0.00000  Uiso   1.00
C1029  C     0.16670   0.50000   0.97813   0.00000  Uiso   1.00
C1030  C     0.02080   0.45753   0.84129   0.00000  Uiso   1.00
C1031  C     0.31253   0.54247   0.82538   0.00000  Uiso   1.00
C1032  C     0.31253   0.45753   0.82538   0.00000  Uiso   1.00
Cu1033 Cu    0.16667   0.54689   0.83333   0.00000  Uiso   1.00
Cu1034 Cu    0.16667   0.45311   0.83333   0.00000  Uiso   1.00
H1035  H     0.06465   0.41975   0.88998   0.00000  Uiso   1.00
H1036  H     0.06465   0.58025   0.88998   0.00000  Uiso   1.00
H1037  H     0.05084   0.60897   0.83180   0.00000  Uiso   1.00
H1038  H     0.01629   0.60746   0.88113   0.00000  Uiso   1.00
H1039  H     0.01630   0.39254   0.88113   0.00000  Uiso   1.00
H1040  H     0.05084   0.39104   0.83180   0.00000  Uiso   1.00
H1041  H     0.26868   0.58025   0.77669   0.00000  Uiso   1.00
H1042  H     0.28249   0.60896   0.83486   0.00000  Uiso   1.00
H1043  H     0.31704   0.60746   0.78554   0.00000  Uiso   1.00
H1044  H     0.26868   0.41975   0.77669   0.00000  Uiso   1.00
H1045  H     0.31704   0.39254   0.78554   0.00000  Uiso   1.00
H1046  H     0.28249   0.39104   0.83486   0.00000  Uiso   1.00
N1047  N     0.16667   0.61736   0.83333   0.00000  Uiso   1.00
N1048  N     0.16667   0.38264   0.83333   0.00000  Uiso   1.00
O1049  O     0.10655   0.53958   0.83333   0.00000  Uiso   1.00
O1050  O     0.22679   0.46042   0.83334   0.00000  Uiso   1.00
O1051  O     0.22679   0.53958   0.83334   0.00000  Uiso   1.00
O1052  O     0.10655   0.46042   0.83333   0.00000  Uiso   1.00
O1053  O     0.16667   0.53959   0.76280   0.00000  Uiso   1.00
O1054  O     0.16667   0.46041   0.90387   0.00000  Uiso   1.00
O1055  O     0.16667   0.53959   0.90387   0.00000  Uiso   1.00
O1056  O     0.16667   0.46041   0.76280   0.00000  Uiso   1.00
Br1057 Br    0.43862   0.38954   0.75297   0.00000  Uiso   1.00
Br1058 Br    0.56138   0.61046   0.91369   0.00000  Uiso   1.00
Br1059 Br    0.56138   0.38954   0.91369   0.00000  Uiso   1.00
Br1060 Br    0.43862   0.61046   0.75297   0.00000  Uiso   1.00
C1061  C     0.42102   0.50000   0.83819   0.00000  Uiso   1.00
C1062  C     0.35413   0.54247   0.84129   0.00000  Uiso   1.00
C1063  C     0.62396   0.50000   0.82359   0.00000  Uiso   1.00
C1064  C     0.37604   0.50000   0.84308   0.00000  Uiso   1.00
C1065  C     0.47483   0.35803   0.80050   0.00000  Uiso   1.00
C1066  C     0.52517   0.64197   0.86616   0.00000  Uiso   1.00
C1067  C     0.52517   0.35803   0.86616   0.00000  Uiso   1.00
C1068  C     0.47483   0.64197   0.80050   0.00000  Uiso   1.00
C1069  C     0.37286   0.41280   0.86174   0.00000  Uiso   1.00
C1070  C     0.62714   0.58720   0.80492   0.00000  Uiso   1.00
C1071  C     0.62714   0.41280   0.80493   0.00000  Uiso   1.00
C1072  C     0.57899   0.50000   0.82847   0.00000  Uiso   1.00
C1073  C     0.37286   0.58720   0.86174   0.00000  Uiso   1.00
C1074  C     0.49991   0.50000   0.74027   0.00000  Uiso   1.00
C1075  C     0.50009   0.50000   0.92639   0.00000  Uiso   1.00
C1076  C     0.49997   0.50000   0.68853   0.00000  Uiso   1.00
C1077  C     0.50003   0.50000   0.97813   0.00000  Uiso   1.00
C1078  C     0.35413   0.45753   0.84129   0.00000  Uiso   1.00
C1079  C     0.64587   0.54247   0.82538   0.00000  Uiso   1.00
C1080  C     0.64587   0.45753   0.82538   0.00000  Uiso   1.00
Cu1081 Cu    0.50000   0.54689   0.83333   0.00000  Uiso   1.00
Cu1082 Cu    0.50000   0.45311   0.83333   0.00000  Uiso   1.00
H1083  H     0.39798   0.41975   0.88998   0.00000  Uiso   1.00
H1084  H     0.39799   0.58025   0.88998   0.00000  Uiso   1.00
H1085  H     0.38417   0.60897   0.83180   0.00000  Uiso   1.00
H1086  H     0.34963   0.60746   0.88113   0.00000  Uiso   1.00
H1087  H     0.34963   0.39254   0.88113   0.00000  Uiso   1.00
H1088  H     0.38418   0.39104   0.83180   0.00000  Uiso   1.00
H1089  H     0.60201   0.58025   0.77669   0.00000  Uiso   1.00
H1090  H     0.61583   0.60896   0.83486   0.00000  Uiso   1.00
H1091  H     0.65037   0.60746   0.78554   0.00000  Uiso   1.00
H1092  H     0.60202   0.41975   0.77669   0.00000  Uiso   1.00
H1093  H     0.65037   0.39254   0.78554   0.00000  Uiso   1.00
H1094  H     0.61583   0.39104   0.83486   0.00000  Uiso   1.00
N1095  N     0.50000   0.61736   0.83333   0.00000  Uiso   1.00
N1096  N     0.50000   0.38264   0.83333   0.00000  Uiso   1.00
O1097  O     0.43988   0.53958   0.83333   0.00000  Uiso   1.00
O1098  O     0.56012   0.46042   0.83334   0.00000  Uiso   1.00
O1099  O     0.56012   0.53958   0.83334   0.00000  Uiso   1.00
O1100  O     0.43988   0.46042   0.83333   0.00000  Uiso   1.00
O1101  O     0.50000   0.53959   0.76280   0.00000  Uiso   1.00
O1102  O     0.50000   0.46041   0.90387   0.00000  Uiso   1.00
O1103  O     0.50000   0.53959   0.90387   0.00000  Uiso   1.00
O1104  O     0.50000   0.46041   0.76280   0.00000  Uiso   1.00
Br1105 Br    0.77195   0.38954   0.75297   0.00000  Uiso   1.00
Br1106 Br    0.89471   0.61046   0.91369   0.00000  Uiso   1.00
Br1107 Br    0.89471   0.38954   0.91369   0.00000  Uiso   1.00
Br1108 Br    0.77195   0.61046   0.75297   0.00000  Uiso   1.00
C1109  C     0.75435   0.50000   0.83819   0.00000  Uiso   1.00
C1110  C     0.68747   0.54247   0.84129   0.00000  Uiso   1.00
C1111  C     0.95729   0.50000   0.82359   0.00000  Uiso   1.00
C1112  C     0.70937   0.50000   0.84308   0.00000  Uiso   1.00
C1113  C     0.80817   0.35803   0.80050   0.00000  Uiso   1.00
C1114  C     0.85850   0.64197   0.86616   0.00000  Uiso   1.00
C1115  C     0.85850   0.35803   0.86616   0.00000  Uiso   1.00
C1116  C     0.80817   0.64197   0.80050   0.00000  Uiso   1.00
C1117  C     0.70619   0.41280   0.86174   0.00000  Uiso   1.00
C1118  C     0.96048   0.58720   0.80492   0.00000  Uiso   1.00
C1119  C     0.96048   0.41280   0.80493   0.00000  Uiso   1.00
C1120  C     0.91232   0.50000   0.82847   0.00000  Uiso   1.00
C1121  C     0.70619   0.58720   0.86174   0.00000  Uiso   1.00
C1122  C     0.83325   0.50000   0.74027   0.00000  Uiso   1.00
C1123  C     0.83342   0.50000   0.92639   0.00000  Uiso   1.00
C1124  C     0.83330   0.50000   0.68853   0.00000  Uiso   1.00
C1125  C     0.83336   0.50000   0.97813   0.00000  Uiso   1.00
C1126  C     0.68747   0.45753   0.84129   0.00000  Uiso   1.00
C1127  C     0.97920   0.54247   0.82538   0.00000  Uiso   1.00
C1128  C     0.97920   0.45753   0.82538   0.00000  Uiso   1.00
Cu1129 Cu    0.83333   0.54689   0.83333   0.00000  Uiso   1.00
Cu1130 Cu    0.83333   0.45311   0.83333   0.00000  Uiso   1.00
H1131  H     0.73132   0.41975   0.88998   0.00000  Uiso   1.00
H1132  H     0.73132   0.58025   0.88998   0.00000  Uiso   1.00
H1133  H     0.71750   0.60897   0.83180   0.00000  Uiso   1.00
H1134  H     0.68296   0.60746   0.88113   0.00000  Uiso   1.00
H1135  H     0.68296   0.39254   0.88113   0.00000  Uiso   1.00
H1136  H     0.71751   0.39104   0.83180   0.00000  Uiso   1.00
H1137  H     0.93535   0.58025   0.77669   0.00000  Uiso   1.00
H1138  H     0.94916   0.60896   0.83486   0.00000  Uiso   1.00
H1139  H     0.98370   0.60746   0.78554   0.00000  Uiso   1.00
H1140  H     0.93535   0.41975   0.77669   0.00000  Uiso   1.00
H1141  H     0.98371   0.39254   0.78554   0.00000  Uiso   1.00
H1142  H     0.94916   0.39104   0.83486   0.00000  Uiso   1.00
N1143  N     0.83333   0.61736   0.83333   0.00000  Uiso   1.00
N1144  N     0.83333   0.38264   0.83333   0.00000  Uiso   1.00
O1145  O     0.77321   0.53958   0.83333   0.00000  Uiso   1.00
O1146  O     0.89345   0.46042   0.83334   0.00000  Uiso   1.00
O1147  O     0.89345   0.53958   0.83334   0.00000  Uiso   1.00
O1148  O     0.77321   0.46042   0.83333   0.00000  Uiso   1.00
O1149  O     0.83333   0.53959   0.76280   0.00000  Uiso   1.00
O1150  O     0.83333   0.46041   0.90387   0.00000  Uiso   1.00
O1151  O     0.83333   0.53959   0.90387   0.00000  Uiso   1.00
O1152  O     0.83333   0.46041   0.76280   0.00000  Uiso   1.00
Br1153 Br    0.10529   0.72287   0.75297   0.00000  Uiso   1.00
Br1154 Br    0.22805   0.94379   0.91369   0.00000  Uiso   1.00
Br1155 Br    0.22805   0.72287   0.91369   0.00000  Uiso   1.00
Br1156 Br    0.10529   0.94379   0.75297   0.00000  Uiso   1.00
C1157  C     0.08768   0.83333   0.83819   0.00000  Uiso   1.00
C1158  C     0.02080   0.87580   0.84129   0.00000  Uiso   1.00
C1159  C     0.29063   0.83333   0.82359   0.00000  Uiso   1.00
C1160  C     0.04271   0.83333   0.84308   0.00000  Uiso   1.00
C1161  C     0.14150   0.69136   0.80050   0.00000  Uiso   1.00
C1162  C     0.19183   0.97530   0.86616   0.00000  Uiso   1.00
C1163  C     0.19183   0.69136   0.86616   0.00000  Uiso   1.00
C1164  C     0.14150   0.97530   0.80050   0.00000  Uiso   1.00
C1165  C     0.03952   0.74614   0.86174   0.00000  Uiso   1.00
C1166  C     0.29381   0.92053   0.80492   0.00000  Uiso   1.00
C1167  C     0.29381   0.74613   0.80493   0.00000  Uiso   1.00
C1168  C     0.24565   0.83333   0.82847   0.00000  Uiso   1.00
C1169  C     0.03952   0.92053   0.86174   0.00000  Uiso   1.00
C1170  C     0.16658   0.83333   0.74027   0.00000  Uiso   1.00
C1171  C     0.16675   0.83333   0.92639   0.00000  Uiso   1.00
C1172  C     0.16664   0.83333   0.68853   0.00000  Uiso   1.00
C1173  C     0.16670   0.83333   0.97813   0.00000  Uiso   1.00
C1174  C     0.02080   0.79086   0.84129   0.00000  Uiso   1.00
C1175  C     0.31253   0.87580   0.82538   0.00000  Uiso   1.00
C1176  C     0.31253   0.79086   0.82538   0.00000  Uiso   1.00
Cu1177 Cu    0.16667   0.88022   0.83333   0.00000  Uiso   1.00
Cu1178 Cu    0.16667   0.78645   0.83333   0.00000  Uiso   1.00
H1179  H     0.06465   0.75308   0.88998   0.00000  Uiso   1.00
H1180  H     0.06465   0.91359   0.88998   0.00000  Uiso   1.00
H1181  H     0.05084   0.94230   0.83180   0.00000  Uiso   1.00
H1182  H     0.01629   0.94079   0.88113   0.00000  Uiso   1.00
H1183  H     0.01630   0.72587   0.88113   0.00000  Uiso   1.00
H1184  H     0.05084   0.72437   0.83180   0.00000  Uiso   1.00
H1185  H     0.26868   0.91359   0.77669   0.00000  Uiso   1.00
H1186  H     0.28249   0.94230   0.83486   0.00000  Uiso   1.00
H1187  H     0.31704   0.94079   0.78554   0.00000  Uiso   1.00
H1188  H     0.26868   0.75308   0.77669   0.00000  Uiso   1.00
H1189  H     0.31704   0.72587   0.78554   0.00000  Uiso   1.00
H1190  H     0.28249   0.72437   0.83486   0.00000  Uiso   1.00
N1191  N     0.16667   0.95069   0.83333   0.00000  Uiso   1.00
N1192  N     0.16667   0.71598   0.83333   0.00000  Uiso   1.00
O1193  O     0.10655   0.87291   0.83333   0.00000  Uiso   1.00
O1194  O     0.22679   0.79375   0.83334   0.00000  Uiso   1.00
O1195  O     0.22679   0.87291   0.83334   0.00000  Uiso   1.00
O1196  O     0.10655   0.79375   0.83333   0.00000  Uiso   1.00
O1197  O     0.16667   0.87292   0.76280   0.00000  Uiso   1.00
O1198  O     0.16667   0.79375   0.90387   0.00000  Uiso   1.00
O1199  O     0.16667   0.87292   0.90387   0.00000  Uiso   1.00
O1200  O     0.16667   0.79375   0.76280   0.00000  Uiso   1.00
Br1201 Br    0.43862   0.72287   0.75297   0.00000  Uiso   1.00
Br1202 Br    0.56138   0.94379   0.91369   0.00000  Uiso   1.00
Br1203 Br    0.56138   0.72287   0.91369   0.00000  Uiso   1.00
Br1204 Br    0.43862   0.94379   0.75297   0.00000  Uiso   1.00
C1205  C     0.42102   0.83333   0.83819   0.00000  Uiso   1.00
C1206  C     0.35413   0.87580   0.84129   0.00000  Uiso   1.00
C1207  C     0.62396   0.83333   0.82359   0.00000  Uiso   1.00
C1208  C     0.37604   0.83333   0.84308   0.00000  Uiso   1.00
C1209  C     0.47483   0.69136   0.80050   0.00000  Uiso   1.00
C1210  C     0.52517   0.97530   0.86616   0.00000  Uiso   1.00
C1211  C     0.52517   0.69136   0.86616   0.00000  Uiso   1.00
C1212  C     0.47483   0.97530   0.80050   0.00000  Uiso   1.00
C1213  C     0.37286   0.74614   0.86174   0.00000  Uiso   1.00
C1214  C     0.62714   0.92053   0.80492   0.00000  Uiso   1.00
C1215  C     0.62714   0.74613   0.80493   0.00000  Uiso   1.00
C1216  C     0.57899   0.83333   0.82847   0.00000  Uiso   1.00
C1217  C     0.37286   0.92053   0.86174   0.00000  Uiso   1.00
C1218  C     0.49991   0.83333   0.74027   0.00000  Uiso   1.00
C1219  C     0.50009   0.83333   0.92639   0.00000  Uiso   1.00
C1220  C     0.49997   0.83333   0.68853   0.00000  Uiso   1.00
C1221  C     0.50003   0.83333   0.97813   0.00000  Uiso   1.00
C1222  C     0.35413   0.79086   0.84129   0.00000  Uiso   1.00
C1223  C     0.64587   0.87580   0.82538   0.00000  Uiso   1.00
C1224  C     0.64587   0.79086   0.82538   0.00000  Uiso   1.00
Cu1225 Cu    0.50000   0.88022   0.83333   0.00000  Uiso   1.00
Cu1226 Cu    0.50000   0.78645   0.83333   0.00000  Uiso   1.00
H1227  H     0.39798   0.75308   0.88998   0.00000  Uiso   1.00
H1228  H     0.39799   0.91359   0.88998   0.00000  Uiso   1.00
H1229  H     0.38417   0.94230   0.83180   0.00000  Uiso   1.00
H1230  H     0.34963   0.94079   0.88113   0.00000  Uiso   1.00
H1231  H     0.34963   0.72587   0.88113   0.00000  Uiso   1.00
H1232  H     0.38418   0.72437   0.83180   0.00000  Uiso   1.00
H1233  H     0.60201   0.91359   0.77669   0.00000  Uiso   1.00
H1234  H     0.61583   0.94230   0.83486   0.00000  Uiso   1.00
H1235  H     0.65037   0.94079   0.78554   0.00000  Uiso   1.00
H1236  H     0.60202   0.75308   0.77669   0.00000  Uiso   1.00
H1237  H     0.65037   0.72587   0.78554   0.00000  Uiso   1.00
H1238  H     0.61583   0.72437   0.83486   0.00000  Uiso   1.00
N1239  N     0.50000   0.95069   0.83333   0.00000  Uiso   1.00
N1240  N     0.50000   0.71598   0.83333   0.00000  Uiso   1.00
O1241  O     0.43988   0.87291   0.83333   0.00000  Uiso   1.00
O1242  O     0.56012   0.79375   0.83334   0.00000  Uiso   1.00
O1243  O     0.56012   0.87291   0.83334   0.00000  Uiso   1.00
O1244  O     0.43988   0.79375   0.83333   0.00000  Uiso   1.00
O1245  O     0.50000   0.87292   0.76280   0.00000  Uiso   1.00
O1246  O     0.50000   0.79375   0.90387   0.00000  Uiso   1.00
O1247  O     0.50000   0.87292   0.90387   0.00000  Uiso   1.00
O1248  O     0.50000   0.79375   0.76280   0.00000  Uiso   1.00
Br1249 Br    0.77195   0.72287   0.75297   0.00000  Uiso   1.00
Br1250 Br    0.89471   0.94379   0.91369   0.00000  Uiso   1.00
Br1251 Br    0.89471   0.72287   0.91369   0.00000  Uiso   1.00
Br1252 Br    0.77195   0.94379   0.75297   0.00000  Uiso   1.00
C1253  C     0.75435   0.83333   0.83819   0.00000  Uiso   1.00
C1254  C     0.68747   0.87580   0.84129   0.00000  Uiso   1.00
C1255  C     0.95729   0.83333   0.82359   0.00000  Uiso   1.00
C1256  C     0.70937   0.83333   0.84308   0.00000  Uiso   1.00
C1257  C     0.80817   0.69136   0.80050   0.00000  Uiso   1.00
C1258  C     0.85850   0.97530   0.86616   0.00000  Uiso   1.00
C1259  C     0.85850   0.69136   0.86616   0.00000  Uiso   1.00
C1260  C     0.80817   0.97530   0.80050   0.00000  Uiso   1.00
C1261  C     0.70619   0.74614   0.86174   0.00000  Uiso   1.00
C1262  C     0.96048   0.92053   0.80492   0.00000  Uiso   1.00
C1263  C     0.96048   0.74613   0.80493   0.00000  Uiso   1.00
C1264  C     0.91232   0.83333   0.82847   0.00000  Uiso   1.00
C1265  C     0.70619   0.92053   0.86174   0.00000  Uiso   1.00
C1266  C     0.83325   0.83333   0.74027   0.00000  Uiso   1.00
C1267  C     0.83342   0.83333   0.92639   0.00000  Uiso   1.00
C1268  C     0.83330   0.83333   0.68853   0.00000  Uiso   1.00
C1269  C     0.83336   0.83333   0.97813   0.00000  Uiso   1.00
C1270  C     0.68747   0.79086   0.84129   0.00000  Uiso   1.00
C1271  C     0.97920   0.87580   0.82538   0.00000  Uiso   1.00
C1272  C     0.97920   0.79086   0.82538   0.00000  Uiso   1.00
Cu1273 Cu    0.83333   0.88022   0.83333   0.00000  Uiso   1.00
Cu1274 Cu    0.83333   0.78645   0.83333   0.00000  Uiso   1.00
H1275  H     0.73132   0.75308   0.88998   0.00000  Uiso   1.00
H1276  H     0.73132   0.91359   0.88998   0.00000  Uiso   1.00
H1277  H     0.71750   0.94230   0.83180   0.00000  Uiso   1.00
H1278  H     0.68296   0.94079   0.88113   0.00000  Uiso   1.00
H1279  H     0.68296   0.72587   0.88113   0.00000  Uiso   1.00
H1280  H     0.71751   0.72437   0.83180   0.00000  Uiso   1.00
H1281  H     0.93535   0.91359   0.77669   0.00000  Uiso   1.00
H1282  H     0.94916   0.94230   0.83486   0.00000  Uiso   1.00
H1283  H     0.98370   0.94079   0.78554   0.00000  Uiso   1.00
H1284  H     0.93535   0.75308   0.77669   0.00000  Uiso   1.00
H1285  H     0.98371   0.72587   0.78554   0.00000  Uiso   1.00
H1286  H     0.94916   0.72437   0.83486   0.00000  Uiso   1.00
N1287  N     0.83333   0.95069   0.83333   0.00000  Uiso   1.00
N1288  N     0.83333   0.71598   0.83333   0.00000  Uiso   1.00
O1289  O     0.77321   0.87291   0.83333   0.00000  Uiso   1.00
O1290  O     0.89345   0.79375   0.83334   0.00000  Uiso   1.00
O1291  O     0.89345   0.87291   0.83334   0.00000  Uiso   1.00
O1292  O     0.77321   0.79375   0.83333   0.00000  Uiso   1.00
O1293  O     0.83333   0.87292   0.76280   0.00000  Uiso   1.00
O1294  O     0.83333   0.79375   0.90387   0.00000  Uiso   1.00
O1295  O     0.83333   0.87292   0.90387   0.00000  Uiso   1.00
O1296  O     0.83333   0.79375   0.76280   0.00000  Uiso   1.00
loop_
_geom_bond_atom_site_label_1
_geom_bond_atom_site_label_2
_geom_bond_distance
_geom_bond_site_symmetry_2
_ccdc_geom_bond_type
Br1    C9      1.929   .     S
Br2    C10     1.929   .     S
Br3    C11     1.929   .     S
Br4    C12     1.929   .     S
C5     C8      1.478   .     S
C5     O44     1.305   .     A
C5     O41     1.305   .     A
C6     C17     1.518   .     S
C6     C8      1.415   .     A
C6     C119    1.400   1_455 S
C7     C23     1.415   .     A
C7     C24     1.415   .     A
C7     C16     1.478   .     S
C8     C22     1.415   .     A
C9     N40     1.376   .     A
C9     C300    1.422   1_545 S
C10    N39     1.376   .     A
C10    C155    1.422   .     S
C11    N40     1.376   .     A
C11    C298    1.422   1_545 S
C12    N39     1.376   .     A
C12    C153    1.422   .     S
C13    H32     1.106   .     S
C13    C22     1.518   .     S
C13    H31     1.111   .     S
C13    H27     1.110   .     S
C14    C23     1.518   .     S
C14    H34     1.106   .     S
C14    H33     1.110   .     S
C14    H35     1.111   .     S
C15    H38     1.106   .     S
C15    H37     1.111   .     S
C15    C24     1.518   .     S
C15    H36     1.110   .     S
C16    O43     1.305   .     A
C16    O42     1.305   .     A
C17    H29     1.106   .     S
C17    H30     1.111   .     S
C17    H28     1.110   .     S
C18    C20     1.408   .     S
C18    O45     1.294   .     A
C18    O48     1.294   .     A
C19    O46     1.294   .     A
C19    C21     1.408   .     S
C19    O47     1.294   .     A
C20    C885    1.190   1_554 S
C21    C452    1.190   .     S
C22    C120    1.400   1_455 S
C23    C54     1.400   .     S
C24    C70     1.400   .     S
Cu25   O45     1.930   .     S
Cu25   O47     1.930   .     S
Cu25   O43     1.969   .     S
Cu25   N39     2.029   .     S
Cu25   O41     1.969   .     S
Cu25   Cu26    2.700   .     S
Cu26   O48     1.930   .     S
Cu26   O44     1.969   .     S
Cu26   N40     2.029   .     S
Cu26   O46     1.930   .     S
Cu26   O42     1.969   .     S
Br49   C57     1.929   .     S
Br50   C58     1.929   .     S
Br51   C59     1.929   .     S
Br52   C60     1.929   .     S
C53    C56     1.478   .     S
C53    O92     1.305   .     A
C53    O89     1.305   .     A
C54    C65     1.518   .     S
C54    C56     1.415   .     A
C55    C71     1.415   .     A
C55    C72     1.415   .     A
C55    C64     1.478   .     S
C56    C70     1.415   .     A
C57    N88     1.376   .     A
C57    C348    1.422   1_545 S
C58    N87     1.376   .     A
C58    C203    1.422   .     S
C59    N88     1.376   .     A
C59    C346    1.422   1_545 S
C60    N87     1.376   .     A
C60    C201    1.422   .     S
C61    H80     1.106   .     S
C61    C70     1.518   .     S
C61    H79     1.111   .     S
C61    H75     1.110   .     S
C62    C71     1.518   .     S
C62    H82     1.106   .     S
C62    H81     1.110   .     S
C62    H83     1.111   .     S
C63    H86     1.106   .     S
C63    H85     1.111   .     S
C63    C72     1.518   .     S
C63    H84     1.110   .     S
C64    O91     1.305   .     A
C64    O90     1.305   .     A
C65    H77     1.106   .     S
C65    H78     1.111   .     S
C65    H76     1.110   .     S
C66    C68     1.408   .     S
C66    O93     1.294   .     A
C66    O96     1.294   .     A
C67    O94     1.294   .     A
C67    C69     1.408   .     S
C67    O95     1.294   .     A
C68    C933    1.190   1_554 S
C69    C500    1.190   .     S
C71    C102    1.400   .     S
C72    C118    1.400   .     S
Cu73   O93     1.930   .     S
Cu73   O95     1.930   .     S
Cu73   O91     1.969   .     S
Cu73   N87     2.029   .     S
Cu73   O89     1.969   .     S
Cu73   Cu74    2.700   .     S
Cu74   O96     1.930   .     S
Cu74   O92     1.969   .     S
Cu74   N88     2.029   .     S
Cu74   O94     1.930   .     S
Cu74   O90     1.969   .     S
Br97   C105    1.929   .     S
Br98   C106    1.929   .     S
Br99   C107    1.929   .     S
Br100  C108    1.929   .     S
C101   C104    1.478   .     S
C101   O140    1.305   .     A
C101   O137    1.305   .     A
C102   C113    1.518   .     S
C102   C104    1.415   .     A
C103   C119    1.415   .     A
C103   C120    1.415   .     A
C103   C112    1.478   .     S
C104   C118    1.415   .     A
C105   N136    1.376   .     A
C105   C396    1.422   1_545 S
C106   N135    1.376   .     A
C106   C251    1.422   .     S
C107   N136    1.376   .     A
C107   C394    1.422   1_545 S
C108   N135    1.376   .     A
C108   C249    1.422   .     S
C109   H128    1.106   .     S
C109   C118    1.518   .     S
C109   H127    1.111   .     S
C109   H123    1.110   .     S
C110   C119    1.518   .     S
C110   H130    1.106   .     S
C110   H129    1.110   .     S
C110   H131    1.111   .     S
C111   H134    1.106   .     S
C111   H133    1.111   .     S
C111   C120    1.518   .     S
C111   H132    1.110   .     S
C112   O139    1.305   .     A
C112   O138    1.305   .     A
C113   H125    1.106   .     S
C113   H126    1.111   .     S
C113   H124    1.110   .     S
C114   C116    1.408   .     S
C114   O141    1.294   .     A
C114   O144    1.294   .     A
C115   O142    1.294   .     A
C115   C117    1.408   .     S
C115   O143    1.294   .     A
C116   C981    1.190   1_554 S
C117   C548    1.190   .     S
C119   C6      1.400   1_655 S
C120   C22     1.400   1_655 S
Cu121  O141    1.930   .     S
Cu121  O143    1.930   .     S
Cu121  O139    1.969   .     S
Cu121  N135    2.029   .     S
Cu121  O137    1.969   .     S
Cu121  Cu122   2.700   .     S
Cu122  O144    1.930   .     S
Cu122  O140    1.969   .     S
Cu122  N136    2.029   .     S
Cu122  O142    1.930   .     S
Cu122  O138    1.969   .     S
Br145  C153    1.929   .     S
Br146  C154    1.929   .     S
Br147  C155    1.929   .     S
Br148  C156    1.929   .     S
C149   C152    1.478   .     S
C149   O188    1.305   .     A
C149   O185    1.305   .     A
C150   C161    1.518   .     S
C150   C152    1.415   .     A
C150   C263    1.400   1_455 S
C151   C167    1.415   .     A
C151   C168    1.415   .     A
C151   C160    1.478   .     S
C152   C166    1.415   .     A
C153   N184    1.376   .     A
C154   N183    1.376   .     A
C154   C299    1.422   .     S
C155   N184    1.376   .     A
C156   N183    1.376   .     A
C156   C297    1.422   .     S
C157   H176    1.106   .     S
C157   C166    1.518   .     S
C157   H175    1.111   .     S
C157   H171    1.110   .     S
C158   C167    1.518   .     S
C158   H178    1.106   .     S
C158   H177    1.110   .     S
C158   H179    1.111   .     S
C159   H182    1.106   .     S
C159   H181    1.111   .     S
C159   C168    1.518   .     S
C159   H180    1.110   .     S
C160   O187    1.305   .     A
C160   O186    1.305   .     A
C161   H173    1.106   .     S
C161   H174    1.111   .     S
C161   H172    1.110   .     S
C162   C164    1.408   .     S
C162   O189    1.294   .     A
C162   O192    1.294   .     A
C163   O190    1.294   .     A
C163   C165    1.408   .     S
C163   O191    1.294   .     A
C164   C1029   1.190   1_554 S
C165   C596    1.190   .     S
C166   C264    1.400   1_455 S
C167   C198    1.400   .     S
C168   C214    1.400   .     S
Cu169  O189    1.930   .     S
Cu169  O191    1.930   .     S
Cu169  O187    1.969   .     S
Cu169  N183    2.029   .     S
Cu169  O185    1.969   .     S
Cu169  Cu170   2.700   .     S
Cu170  O192    1.930   .     S
Cu170  O188    1.969   .     S
Cu170  N184    2.029   .     S
Cu170  O190    1.930   .     S
Cu170  O186    1.969   .     S
Br193  C201    1.929   .     S
Br194  C202    1.929   .     S
Br195  C203    1.929   .     S
Br196  C204    1.929   .     S
C197   C200    1.478   .     S
C197   O236    1.305   .     A
C197   O233    1.305   .     A
C198   C209    1.518   .     S
C198   C200    1.415   .     A
C199   C215    1.415   .     A
C199   C216    1.415   .     A
C199   C208    1.478   .     S
C200   C214    1.415   .     A
C201   N232    1.376   .     A
C202   N231    1.376   .     A
C202   C347    1.422   .     S
C203   N232    1.376   .     A
C204   N231    1.376   .     A
C204   C345    1.422   .     S
C205   H224    1.106   .     S
C205   C214    1.518   .     S
C205   H223    1.111   .     S
C205   H219    1.110   .     S
C206   C215    1.518   .     S
C206   H226    1.106   .     S
C206   H225    1.110   .     S
C206   H227    1.111   .     S
C207   H230    1.106   .     S
C207   H229    1.111   .     S
C207   C216    1.518   .     S
C207   H228    1.110   .     S
C208   O235    1.305   .     A
C208   O234    1.305   .     A
C209   H221    1.106   .     S
C209   H222    1.111   .     S
C209   H220    1.110   .     S
C210   C212    1.408   .     S
C210   O237    1.294   .     A
C210   O240    1.294   .     A
C211   O238    1.294   .     A
C211   C213    1.408   .     S
C211   O239    1.294   .     A
C212   C1077   1.190   1_554 S
C213   C644    1.190   .     S
C215   C246    1.400   .     S
C216   C262    1.400   .     S
Cu217  O237    1.930   .     S
Cu217  O239    1.930   .     S
Cu217  O235    1.969   .     S
Cu217  N231    2.029   .     S
Cu217  O233    1.969   .     S
Cu217  Cu218   2.700   .     S
Cu218  O240    1.930   .     S
Cu218  O236    1.969   .     S
Cu218  N232    2.029   .     S
Cu218  O238    1.930   .     S
Cu218  O234    1.969   .     S
Br241  C249    1.929   .     S
Br242  C250    1.929   .     S
Br243  C251    1.929   .     S
Br244  C252    1.929   .     S
C245   C248    1.478   .     S
C245   O284    1.305   .     A
C245   O281    1.305   .     A
C246   C257    1.518   .     S
C246   C248    1.415   .     A
C247   C263    1.415   .     A
C247   C264    1.415   .     A
C247   C256    1.478   .     S
C248   C262    1.415   .     A
C249   N280    1.376   .     A
C250   N279    1.376   .     A
C250   C395    1.422   .     S
C251   N280    1.376   .     A
C252   N279    1.376   .     A
C252   C393    1.422   .     S
C253   H272    1.106   .     S
C253   C262    1.518   .     S
C253   H271    1.111   .     S
C253   H267    1.110   .     S
C254   C263    1.518   .     S
C254   H274    1.106   .     S
C254   H273    1.110   .     S
C254   H275    1.111   .     S
C255   H278    1.106   .     S
C255   H277    1.111   .     S
C255   C264    1.518   .     S
C255   H276    1.110   .     S
C256   O283    1.305   .     A
C256   O282    1.305   .     A
C257   H269    1.106   .     S
C257   H270    1.111   .     S
C257   H268    1.110   .     S
C258   C260    1.408   .     S
C258   O285    1.294   .     A
C258   O288    1.294   .     A
C259   O286    1.294   .     A
C259   C261    1.408   .     S
C259   O287    1.294   .     A
C260   C1125   1.190   1_554 S
C261   C692    1.190   .     S
C263   C150    1.400   1_655 S
C264   C166    1.400   1_655 S
Cu265  O285    1.930   .     S
Cu265  O287    1.930   .     S
Cu265  O283    1.969   .     S
Cu265  N279    2.029   .     S
Cu265  O281    1.969   .     S
Cu265  Cu266   2.700   .     S
Cu266  O288    1.930   .     S
Cu266  O284    1.969   .     S
Cu266  N280    2.029   .     S
Cu266  O286    1.930   .     S
Cu266  O282    1.969   .     S
Br289  C297    1.929   .     S
Br290  C298    1.929   .     S
Br291  C299    1.929   .     S
Br292  C300    1.929   .     S
C293   C296    1.478   .     S
C293   O332    1.305   .     A
C293   O329    1.305   .     A
C294   C305    1.518   .     S
C294   C296    1.415   .     A
C294   C407    1.400   1_455 S
C295   C311    1.415   .     A
C295   C312    1.415   .     A
C295   C304    1.478   .     S
C296   C310    1.415   .     A
C297   N328    1.376   .     A
C298   N327    1.376   .     A
C298   C11     1.422   1_565 S
C299   N328    1.376   .     A
C300   N327    1.376   .     A
C300   C9      1.422   1_565 S
C301   H320    1.106   .     S
C301   C310    1.518   .     S
C301   H319    1.111   .     S
C301   H315    1.110   .     S
C302   C311    1.518   .     S
C302   H322    1.106   .     S
C302   H321    1.110   .     S
C302   H323    1.111   .     S
C303   H326    1.106   .     S
C303   H325    1.111   .     S
C303   C312    1.518   .     S
C303   H324    1.110   .     S
C304   O331    1.305   .     A
C304   O330    1.305   .     A
C305   H317    1.106   .     S
C305   H318    1.111   .     S
C305   H316    1.110   .     S
C306   C308    1.408   .     S
C306   O333    1.294   .     A
C306   O336    1.294   .     A
C307   O334    1.294   .     A
C307   C309    1.408   .     S
C307   O335    1.294   .     A
C308   C1173   1.190   1_554 S
C309   C740    1.190   .     S
C310   C408    1.400   1_455 S
C311   C342    1.400   .     S
C312   C358    1.400   .     S
Cu313  O333    1.930   .     S
Cu313  O335    1.930   .     S
Cu313  O331    1.969   .     S
Cu313  N327    2.029   .     S
Cu313  O329    1.969   .     S
Cu313  Cu314   2.700   .     S
Cu314  O336    1.930   .     S
Cu314  O332    1.969   .     S
Cu314  N328    2.029   .     S
Cu314  O334    1.930   .     S
Cu314  O330    1.969   .     S
Br337  C345    1.929   .     S
Br338  C346    1.929   .     S
Br339  C347    1.929   .     S
Br340  C348    1.929   .     S
C341   C344    1.478   .     S
C341   O380    1.305   .     A
C341   O377    1.305   .     A
C342   C353    1.518   .     S
C342   C344    1.415   .     A
C343   C359    1.415   .     A
C343   C360    1.415   .     A
C343   C352    1.478   .     S
C344   C358    1.415   .     A
C345   N376    1.376   .     A
C346   N375    1.376   .     A
C346   C59     1.422   1_565 S
C347   N376    1.376   .     A
C348   N375    1.376   .     A
C348   C57     1.422   1_565 S
C349   H368    1.106   .     S
C349   C358    1.518   .     S
C349   H367    1.111   .     S
C349   H363    1.110   .     S
C350   C359    1.518   .     S
C350   H370    1.106   .     S
C350   H369    1.110   .     S
C350   H371    1.111   .     S
C351   H374    1.106   .     S
C351   H373    1.111   .     S
C351   C360    1.518   .     S
C351   H372    1.110   .     S
C352   O379    1.305   .     A
C352   O378    1.305   .     A
C353   H365    1.106   .     S
C353   H366    1.111   .     S
C353   H364    1.110   .     S
C354   C356    1.408   .     S
C354   O381    1.294   .     A
C354   O384    1.294   .     A
C355   O382    1.294   .     A
C355   C357    1.408   .     S
C355   O383    1.294   .     A
C356   C1221   1.190   1_554 S
C357   C788    1.190   .     S
C359   C390    1.400   .     S
C360   C406    1.400   .     S
Cu361  O381    1.930   .     S
Cu361  O383    1.930   .     S
Cu361  O379    1.969   .     S
Cu361  N375    2.029   .     S
Cu361  O377    1.969   .     S
Cu361  Cu362   2.700   .     S
Cu362  O384    1.930   .     S
Cu362  O380    1.969   .     S
Cu362  N376    2.029   .     S
Cu362  O382    1.930   .     S
Cu362  O378    1.969   .     S
Br385  C393    1.929   .     S
Br386  C394    1.929   .     S
Br387  C395    1.929   .     S
Br388  C396    1.929   .     S
C389   C392    1.478   .     S
C389   O428    1.305   .     A
C389   O425    1.305   .     A
C390   C401    1.518   .     S
C390   C392    1.415   .     A
C391   C407    1.415   .     A
C391   C408    1.415   .     A
C391   C400    1.478   .     S
C392   C406    1.415   .     A
C393   N424    1.376   .     A
C394   N423    1.376   .     A
C394   C107    1.422   1_565 S
C395   N424    1.376   .     A
C396   N423    1.376   .     A
C396   C105    1.422   1_565 S
C397   H416    1.106   .     S
C397   C406    1.518   .     S
C397   H415    1.111   .     S
C397   H411    1.110   .     S
C398   C407    1.518   .     S
C398   H418    1.106   .     S
C398   H417    1.110   .     S
C398   H419    1.111   .     S
C399   H422    1.106   .     S
C399   H421    1.111   .     S
C399   C408    1.518   .     S
C399   H420    1.110   .     S
C400   O427    1.305   .     A
C400   O426    1.305   .     A
C401   H413    1.106   .     S
C401   H414    1.111   .     S
C401   H412    1.110   .     S
C402   C404    1.408   .     S
C402   O429    1.294   .     A
C402   O432    1.294   .     A
C403   O430    1.294   .     A
C403   C405    1.408   .     S
C403   O431    1.294   .     A
C404   C1269   1.190   1_554 S
C405   C836    1.190   .     S
C407   C294    1.400   1_655 S
C408   C310    1.400   1_655 S
Cu409  O429    1.930   .     S
Cu409  O431    1.930   .     S
Cu409  O427    1.969   .     S
Cu409  N423    2.029   .     S
Cu409  O425    1.969   .     S
Cu409  Cu410   2.700   .     S
Cu410  O432    1.930   .     S
Cu410  O428    1.969   .     S
Cu410  N424    2.029   .     S
Cu410  O430    1.930   .     S
Cu410  O426    1.969   .     S
Br433  C441    1.929   .     S
Br434  C442    1.929   .     S
Br435  C443    1.929   .     S
Br436  C444    1.929   .     S
C437   C440    1.478   .     S
C437   O476    1.305   .     A
C437   O473    1.305   .     A
C438   C449    1.518   .     S
C438   C440    1.415   .     A
C438   C551    1.400   1_455 S
C439   C455    1.415   .     A
C439   C456    1.415   .     A
C439   C448    1.478   .     S
C440   C454    1.415   .     A
C441   N472    1.376   .     A
C441   C732    1.422   1_545 S
C442   N471    1.376   .     A
C442   C587    1.422   .     S
C443   N472    1.376   .     A
C443   C730    1.422   1_545 S
C444   N471    1.376   .     A
C444   C585    1.422   .     S
C445   H464    1.106   .     S
C445   C454    1.518   .     S
C445   H463    1.111   .     S
C445   H459    1.110   .     S
C446   C455    1.518   .     S
C446   H466    1.106   .     S
C446   H465    1.110   .     S
C446   H467    1.111   .     S
C447   H470    1.106   .     S
C447   H469    1.111   .     S
C447   C456    1.518   .     S
C447   H468    1.110   .     S
C448   O475    1.305   .     A
C448   O474    1.305   .     A
C449   H461    1.106   .     S
C449   H462    1.111   .     S
C449   H460    1.110   .     S
C450   C452    1.408   .     S
C450   O477    1.294   .     A
C450   O480    1.294   .     A
C451   O478    1.294   .     A
C451   C453    1.408   .     S
C451   O479    1.294   .     A
C453   C884    1.190   .     S
C454   C552    1.400   1_455 S
C455   C486    1.400   .     S
C456   C502    1.400   .     S
Cu457  O477    1.930   .     S
Cu457  O479    1.930   .     S
Cu457  O475    1.969   .     S
Cu457  N471    2.029   .     S
Cu457  O473    1.969   .     S
Cu457  Cu458   2.700   .     S
Cu458  O480    1.930   .     S
Cu458  O476    1.969   .     S
Cu458  N472    2.029   .     S
Cu458  O478    1.930   .     S
Cu458  O474    1.969   .     S
Br481  C489    1.929   .     S
Br482  C490    1.929   .     S
Br483  C491    1.929   .     S
Br484  C492    1.929   .     S
C485   C488    1.478   .     S
C485   O524    1.305   .     A
C485   O521    1.305   .     A
C486   C497    1.518   .     S
C486   C488    1.415   .     A
C487   C503    1.415   .     A
C487   C504    1.415   .     A
C487   C496    1.478   .     S
C488   C502    1.415   .     A
C489   N520    1.376   .     A
C489   C780    1.422   1_545 S
C490   N519    1.376   .     A
C490   C635    1.422   .     S
C491   N520    1.376   .     A
C491   C778    1.422   1_545 S
C492   N519    1.376   .     A
C492   C633    1.422   .     S
C493   H512    1.106   .     S
C493   C502    1.518   .     S
C493   H511    1.111   .     S
C493   H507    1.110   .     S
C494   C503    1.518   .     S
C494   H514    1.106   .     S
C494   H513    1.110   .     S
C494   H515    1.111   .     S
C495   H518    1.106   .     S
C495   H517    1.111   .     S
C495   C504    1.518   .     S
C495   H516    1.110   .     S
C496   O523    1.305   .     A
C496   O522    1.305   .     A
C497   H509    1.106   .     S
C497   H510    1.111   .     S
C497   H508    1.110   .     S
C498   C500    1.408   .     S
C498   O525    1.294   .     A
C498   O528    1.294   .     A
C499   O526    1.294   .     A
C499   C501    1.408   .     S
C499   O527    1.294   .     A
C501   C932    1.190   .     S
C503   C534    1.400   .     S
C504   C550    1.400   .     S
Cu505  O525    1.930   .     S
Cu505  O527    1.930   .     S
Cu505  O523    1.969   .     S
Cu505  N519    2.029   .     S
Cu505  O521    1.969   .     S
Cu505  Cu506   2.700   .     S
Cu506  O528    1.930   .     S
Cu506  O524    1.969   .     S
Cu506  N520    2.029   .     S
Cu506  O526    1.930   .     S
Cu506  O522    1.969   .     S
Br529  C537    1.929   .     S
Br530  C538    1.929   .     S
Br531  C539    1.929   .     S
Br532  C540    1.929   .     S
C533   C536    1.478   .     S
C533   O572    1.305   .     A
C533   O569    1.305   .     A
C534   C545    1.518   .     S
C534   C536    1.415   .     A
C535   C551    1.415   .     A
C535   C552    1.415   .     A
C535   C544    1.478   .     S
C536   C550    1.415   .     A
C537   N568    1.376   .     A
C537   C828    1.422   1_545 S
C538   N567    1.376   .     A
C538   C683    1.422   .     S
C539   N568    1.376   .     A
C539   C826    1.422   1_545 S
C540   N567    1.376   .     A
C540   C681    1.422   .     S
C541   H560    1.106   .     S
C541   C550    1.518   .     S
C541   H559    1.111   .     S
C541   H555    1.110   .     S
C542   C551    1.518   .     S
C542   H562    1.106   .     S
C542   H561    1.110   .     S
C542   H563    1.111   .     S
C543   H566    1.106   .     S
C543   H565    1.111   .     S
C543   C552    1.518   .     S
C543   H564    1.110   .     S
C544   O571    1.305   .     A
C544   O570    1.305   .     A
C545   H557    1.106   .     S
C545   H558    1.111   .     S
C545   H556    1.110   .     S
C546   C548    1.408   .     S
C546   O573    1.294   .     A
C546   O576    1.294   .     A
C547   O574    1.294   .     A
C547   C549    1.408   .     S
C547   O575    1.294   .     A
C549   C980    1.190   .     S
C551   C438    1.400   1_655 S
C552   C454    1.400   1_655 S
Cu553  O573    1.930   .     S
Cu553  O575    1.930   .     S
Cu553  O571    1.969   .     S
Cu553  N567    2.029   .     S
Cu553  O569    1.969   .     S
Cu553  Cu554   2.700   .     S
Cu554  O576    1.930   .     S
Cu554  O572    1.969   .     S
Cu554  N568    2.029   .     S
Cu554  O574    1.930   .     S
Cu554  O570    1.969   .     S
Br577  C585    1.929   .     S
Br578  C586    1.929   .     S
Br579  C587    1.929   .     S
Br580  C588    1.929   .     S
C581   C584    1.478   .     S
C581   O620    1.305   .     A
C581   O617    1.305   .     A
C582   C593    1.518   .     S
C582   C584    1.415   .     A
C582   C695    1.400   1_455 S
C583   C599    1.415   .     A
C583   C600    1.415   .     A
C583   C592    1.478   .     S
C584   C598    1.415   .     A
C585   N616    1.376   .     A
C586   N615    1.376   .     A
C586   C731    1.422   .     S
C587   N616    1.376   .     A
C588   N615    1.376   .     A
C588   C729    1.422   .     S
C589   H608    1.106   .     S
C589   C598    1.518   .     S
C589   H607    1.111   .     S
C589   H603    1.110   .     S
C590   C599    1.518   .     S
C590   H610    1.106   .     S
C590   H609    1.110   .     S
C590   H611    1.111   .     S
C591   H614    1.106   .     S
C591   H613    1.111   .     S
C591   C600    1.518   .     S
C591   H612    1.110   .     S
C592   O619    1.305   .     A
C592   O618    1.305   .     A
C593   H605    1.106   .     S
C593   H606    1.111   .     S
C593   H604    1.110   .     S
C594   C596    1.408   .     S
C594   O621    1.294   .     A
C594   O624    1.294   .     A
C595   O622    1.294   .     A
C595   C597    1.408   .     S
C595   O623    1.294   .     A
C597   C1028   1.190   .     S
C598   C696    1.400   1_455 S
C599   C630    1.400   .     S
C600   C646    1.400   .     S
Cu601  O621    1.930   .     S
Cu601  O623    1.930   .     S
Cu601  O619    1.969   .     S
Cu601  N615    2.029   .     S
Cu601  O617    1.969   .     S
Cu601  Cu602   2.700   .     S
Cu602  O624    1.930   .     S
Cu602  O620    1.969   .     S
Cu602  N616    2.029   .     S
Cu602  O622    1.930   .     S
Cu602  O618    1.969   .     S
Br625  C633    1.929   .     S
Br626  C634    1.929   .     S
Br627  C635    1.929   .     S
Br628  C636    1.929   .     S
C629   C632    1.478   .     S
C629   O668    1.305   .     A
C629   O665    1.305   .     A
C630   C641    1.518   .     S
C630   C632    1.415   .     A
C631   C647    1.415   .     A
C631   C648    1.415   .     A
C631   C640    1.478   .     S
C632   C646    1.415   .     A
C633   N664    1.376   .     A
C634   N663    1.376   .     A
C634   C779    1.422   .     S
C635   N664    1.376   .     A
C636   N663    1.376   .     A
C636   C777    1.422   .     S
C637   H656    1.106   .     S
C637   C646    1.518   .     S
C637   H655    1.111   .     S
C637   H651    1.110   .     S
C638   C647    1.518   .     S
C638   H658    1.106   .     S
C638   H657    1.110   .     S
C638   H659    1.111   .     S
C639   H662    1.106   .     S
C639   H661    1.111   .     S
C639   C648    1.518   .     S
C639   H660    1.110   .     S
C640   O667    1.305   .     A
C640   O666    1.305   .     A
C641   H653    1.106   .     S
C641   H654    1.111   .     S
C641   H652    1.110   .     S
C642   C644    1.408   .     S
C642   O669    1.294   .     A
C642   O672    1.294   .     A
C643   O670    1.294   .     A
C643   C645    1.408   .     S
C643   O671    1.294   .     A
C645   C1076   1.190   .     S
C647   C678    1.400   .     S
C648   C694    1.400   .     S
Cu649  O669    1.930   .     S
Cu649  O671    1.930   .     S
Cu649  O667    1.969   .     S
Cu649  N663    2.029   .     S
Cu649  O665    1.969   .     S
Cu649  Cu650   2.700   .     S
Cu650  O672    1.930   .     S
Cu650  O668    1.969   .     S
Cu650  N664    2.029   .     S
Cu650  O670    1.930   .     S
Cu650  O666    1.969   .     S
Br673  C681    1.929   .     S
Br674  C682    1.929   .     S
Br675  C683    1.929   .     S
Br676  C684    1.929   .     S
C677   C680    1.478   .     S
C677   O716    1.305   .     A
C677   O713    1.305   .     A
C678   C689    1.518   .     S
C678   C680    1.415   .     A
C679   C695    1.415   .     A
C679   C696    1.415   .     A
C679   C688    1.478   .     S
C680   C694    1.415   .     A
C681   N712    1.376   .     A
C682   N711    1.376   .     A
C682   C827    1.422   .     S
C683   N712    1.376   .     A
C684   N711    1.376   .     A
C684   C825    1.422   .     S
C685   H704    1.106   .     S
C685   C694    1.518   .     S
C685   H703    1.111   .     S
C685   H699    1.110   .     S
C686   C695    1.518   .     S
C686   H706    1.106   .     S
C686   H705    1.110   .     S
C686   H707    1.111   .     S
C687   H710    1.106   .     S
C687   H709    1.111   .     S
C687   C696    1.518   .     S
C687   H708    1.110   .     S
C688   O715    1.305   .     A
C688   O714    1.305   .     A
C689   H701    1.106   .     S
C689   H702    1.111   .     S
C689   H700    1.110   .     S
C690   C692    1.408   .     S
C690   O717    1.294   .     A
C690   O720    1.294   .     A
C691   O718    1.294   .     A
C691   C693    1.408   .     S
C691   O719    1.294   .     A
C693   C1124   1.190   .     S
C695   C582    1.400   1_655 S
C696   C598    1.400   1_655 S
Cu697  O717    1.930   .     S
Cu697  O719    1.930   .     S
Cu697  O715    1.969   .     S
Cu697  N711    2.029   .     S
Cu697  O713    1.969   .     S
Cu697  Cu698   2.700   .     S
Cu698  O720    1.930   .     S
Cu698  O716    1.969   .     S
Cu698  N712    2.029   .     S
Cu698  O718    1.930   .     S
Cu698  O714    1.969   .     S
Br721  C729    1.929   .     S
Br722  C730    1.929   .     S
Br723  C731    1.929   .     S
Br724  C732    1.929   .     S
C725   C728    1.478   .     S
C725   O764    1.305   .     A
C725   O761    1.305   .     A
C726   C737    1.518   .     S
C726   C728    1.415   .     A
C726   C839    1.400   1_455 S
C727   C743    1.415   .     A
C727   C744    1.415   .     A
C727   C736    1.478   .     S
C728   C742    1.415   .     A
C729   N760    1.376   .     A
C730   N759    1.376   .     A
C730   C443    1.422   1_565 S
C731   N760    1.376   .     A
C732   N759    1.376   .     A
C732   C441    1.422   1_565 S
C733   H752    1.106   .     S
C733   C742    1.518   .     S
C733   H751    1.111   .     S
C733   H747    1.110   .     S
C734   C743    1.518   .     S
C734   H754    1.106   .     S
C734   H753    1.110   .     S
C734   H755    1.111   .     S
C735   H758    1.106   .     S
C735   H757    1.111   .     S
C735   C744    1.518   .     S
C735   H756    1.110   .     S
C736   O763    1.305   .     A
C736   O762    1.305   .     A
C737   H749    1.106   .     S
C737   H750    1.111   .     S
C737   H748    1.110   .     S
C738   C740    1.408   .     S
C738   O765    1.294   .     A
C738   O768    1.294   .     A
C739   O766    1.294   .     A
C739   C741    1.408   .     S
C739   O767    1.294   .     A
C741   C1172   1.190   .     S
C742   C840    1.400   1_455 S
C743   C774    1.400   .     S
C744   C790    1.400   .     S
Cu745  O765    1.930   .     S
Cu745  O767    1.930   .     S
Cu745  O763    1.969   .     S
Cu745  N759    2.029   .     S
Cu745  O761    1.969   .     S
Cu745  Cu746   2.700   .     S
Cu746  O768    1.930   .     S
Cu746  O764    1.969   .     S
Cu746  N760    2.029   .     S
Cu746  O766    1.930   .     S
Cu746  O762    1.969   .     S
Br769  C777    1.929   .     S
Br770  C778    1.929   .     S
Br771  C779    1.929   .     S
Br772  C780    1.929   .     S
C773   C776    1.478   .     S
C773   O812    1.305   .     A
C773   O809    1.305   .     A
C774   C785    1.518   .     S
C774   C776    1.415   .     A
C775   C791    1.415   .     A
C775   C792    1.415   .     A
C775   C784    1.478   .     S
C776   C790    1.415   .     A
C777   N808    1.376   .     A
C778   N807    1.376   .     A
C778   C491    1.422   1_565 S
C779   N808    1.376   .     A
C780   N807    1.376   .     A
C780   C489    1.422   1_565 S
C781   H800    1.106   .     S
C781   C790    1.518   .     S
C781   H799    1.111   .     S
C781   H795    1.110   .     S
C782   C791    1.518   .     S
C782   H802    1.106   .     S
C782   H801    1.110   .     S
C782   H803    1.111   .     S
C783   H806    1.106   .     S
C783   H805    1.111   .     S
C783   C792    1.518   .     S
C783   H804    1.110   .     S
C784   O811    1.305   .     A
C784   O810    1.305   .     A
C785   H797    1.106   .     S
C785   H798    1.111   .     S
C785   H796    1.110   .     S
C786   C788    1.408   .     S
C786   O813    1.294   .     A
C786   O816    1.294   .     A
C787   O814    1.294   .     A
C787   C789    1.408   .     S
C787   O815    1.294   .     A
C789   C1220   1.190   .     S
C791   C822    1.400   .     S
C792   C838    1.400   .     S
Cu793  O813    1.930   .     S
Cu793  O815    1.930   .     S
Cu793  O811    1.969   .     S
Cu793  N807    2.029   .     S
Cu793  O809    1.969   .     S
Cu793  Cu794   2.700   .     S
Cu794  O816    1.930   .     S
Cu794  O812    1.969   .     S
Cu794  N808    2.029   .     S
Cu794  O814    1.930   .     S
Cu794  O810    1.969   .     S
Br817  C825    1.929   .     S
Br818  C826    1.929   .     S
Br819  C827    1.929   .     S
Br820  C828    1.929   .     S
C821   C824    1.478   .     S
C821   O860    1.305   .     A
C821   O857    1.305   .     A
C822   C833    1.518   .     S
C822   C824    1.415   .     A
C823   C839    1.415   .     A
C823   C840    1.415   .     A
C823   C832    1.478   .     S
C824   C838    1.415   .     A
C825   N856    1.376   .     A
C826   N855    1.376   .     A
C826   C539    1.422   1_565 S
C827   N856    1.376   .     A
C828   N855    1.376   .     A
C828   C537    1.422   1_565 S
C829   H848    1.106   .     S
C829   C838    1.518   .     S
C829   H847    1.111   .     S
C829   H843    1.110   .     S
C830   C839    1.518   .     S
C830   H850    1.106   .     S
C830   H849    1.110   .     S
C830   H851    1.111   .     S
C831   H854    1.106   .     S
C831   H853    1.111   .     S
C831   C840    1.518   .     S
C831   H852    1.110   .     S
C832   O859    1.305   .     A
C832   O858    1.305   .     A
C833   H845    1.106   .     S
C833   H846    1.111   .     S
C833   H844    1.110   .     S
C834   C836    1.408   .     S
C834   O861    1.294   .     A
C834   O864    1.294   .     A
C835   O862    1.294   .     A
C835   C837    1.408   .     S
C835   O863    1.294   .     A
C837   C1268   1.190   .     S
C839   C726    1.400   1_655 S
C840   C742    1.400   1_655 S
Cu841  O861    1.930   .     S
Cu841  O863    1.930   .     S
Cu841  O859    1.969   .     S
Cu841  N855    2.029   .     S
Cu841  O857    1.969   .     S
Cu841  Cu842   2.700   .     S
Cu842  O864    1.930   .     S
Cu842  O860    1.969   .     S
Cu842  N856    2.029   .     S
Cu842  O862    1.930   .     S
Cu842  O858    1.969   .     S
Br865  C873    1.929   .     S
Br866  C874    1.929   .     S
Br867  C875    1.929   .     S
Br868  C876    1.929   .     S
C869   C872    1.478   .     S
C869   O908    1.305   .     A
C869   O905    1.305   .     A
C870   C881    1.518   .     S
C870   C872    1.415   .     A
C870   C983    1.400   1_455 S
C871   C887    1.415   .     A
C871   C888    1.415   .     A
C871   C880    1.478   .     S
C872   C886    1.415   .     A
C873   N904    1.376   .     A
C873   C1164   1.422   1_545 S
C874   N903    1.376   .     A
C874   C1019   1.422   .     S
C875   N904    1.376   .     A
C875   C1162   1.422   1_545 S
C876   N903    1.376   .     A
C876   C1017   1.422   .     S
C877   H896    1.106   .     S
C877   C886    1.518   .     S
C877   H895    1.111   .     S
C877   H891    1.110   .     S
C878   C887    1.518   .     S
C878   H898    1.106   .     S
C878   H897    1.110   .     S
C878   H899    1.111   .     S
C879   H902    1.106   .     S
C879   H901    1.111   .     S
C879   C888    1.518   .     S
C879   H900    1.110   .     S
C880   O907    1.305   .     A
C880   O906    1.305   .     A
C881   H893    1.106   .     S
C881   H894    1.111   .     S
C881   H892    1.110   .     S
C882   C884    1.408   .     S
C882   O909    1.294   .     A
C882   O912    1.294   .     A
C883   O910    1.294   .     A
C883   C885    1.408   .     S
C883   O911    1.294   .     A
C885   C20     1.190   1_556 S
C886   C984    1.400   1_455 S
C887   C918    1.400   .     S
C888   C934    1.400   .     S
Cu889  O909    1.930   .     S
Cu889  O911    1.930   .     S
Cu889  O907    1.969   .     S
Cu889  N903    2.029   .     S
Cu889  O905    1.969   .     S
Cu889  Cu890   2.700   .     S
Cu890  O912    1.930   .     S
Cu890  O908    1.969   .     S
Cu890  N904    2.029   .     S
Cu890  O910    1.930   .     S
Cu890  O906    1.969   .     S
Br913  C921    1.929   .     S
Br914  C922    1.929   .     S
Br915  C923    1.929   .     S
Br916  C924    1.929   .     S
C917   C920    1.478   .     S
C917   O956    1.305   .     A
C917   O953    1.305   .     A
C918   C929    1.518   .     S
C918   C920    1.415   .     A
C919   C935    1.415   .     A
C919   C936    1.415   .     A
C919   C928    1.478   .     S
C920   C934    1.415   .     A
C921   N952    1.376   .     A
C921   C1212   1.422   1_545 S
C922   N951    1.376   .     A
C922   C1067   1.422   .     S
C923   N952    1.376   .     A
C923   C1210   1.422   1_545 S
C924   N951    1.376   .     A
C924   C1065   1.422   .     S
C925   H944    1.106   .     S
C925   C934    1.518   .     S
C925   H943    1.111   .     S
C925   H939    1.110   .     S
C926   C935    1.518   .     S
C926   H946    1.106   .     S
C926   H945    1.110   .     S
C926   H947    1.111   .     S
C927   H950    1.106   .     S
C927   H949    1.111   .     S
C927   C936    1.518   .     S
C927   H948    1.110   .     S
C928   O955    1.305   .     A
C928   O954    1.305   .     A
C929   H941    1.106   .     S
C929   H942    1.111   .     S
C929   H940    1.110   .     S
C930   C932    1.408   .     S
C930   O957    1.294   .     A
C930   O960    1.294   .     A
C931   O958    1.294   .     A
C931   C933    1.408   .     S
C931   O959    1.294   .     A
C933   C68     1.190   1_556 S
C935   C966    1.400   .     S
C936   C982    1.400   .     S
Cu937  O957    1.930   .     S
Cu937  O959    1.930   .     S
Cu937  O955    1.969   .     S
Cu937  N951    2.029   .     S
Cu937  O953    1.969   .     S
Cu937  Cu938   2.700   .     S
Cu938  O960    1.930   .     S
Cu938  O956    1.969   .     S
Cu938  N952    2.029   .     S
Cu938  O958    1.930   .     S
Cu938  O954    1.969   .     S
Br961  C969    1.929   .     S
Br962  C970    1.929   .     S
Br963  C971    1.929   .     S
Br964  C972    1.929   .     S
C965   C968    1.478   .     S
C965   O1004   1.305   .     A
C965   O1001   1.305   .     A
C966   C977    1.518   .     S
C966   C968    1.415   .     A
C967   C983    1.415   .     A
C967   C984    1.415   .     A
C967   C976    1.478   .     S
C968   C982    1.415   .     A
C969   N1000   1.376   .     A
C969   C1260   1.422   1_545 S
C970   N999    1.376   .     A
C970   C1115   1.422   .     S
C971   N1000   1.376   .     A
C971   C1258   1.422   1_545 S
C972   N999    1.376   .     A
C972   C1113   1.422   .     S
C973   H992    1.106   .     S
C973   C982    1.518   .     S
C973   H991    1.111   .     S
C973   H987    1.110   .     S
C974   C983    1.518   .     S
C974   H994    1.106   .     S
C974   H993    1.110   .     S
C974   H995    1.111   .     S
C975   H998    1.106   .     S
C975   H997    1.111   .     S
C975   C984    1.518   .     S
C975   H996    1.110   .     S
C976   O1003   1.305   .     A
C976   O1002   1.305   .     A
C977   H989    1.106   .     S
C977   H990    1.111   .     S
C977   H988    1.110   .     S
C978   C980    1.408   .     S
C978   O1005   1.294   .     A
C978   O1008   1.294   .     A
C979   O1006   1.294   .     A
C979   C981    1.408   .     S
C979   O1007   1.294   .     A
C981   C116    1.190   1_556 S
C983   C870    1.400   1_655 S
C984   C886    1.400   1_655 S
Cu985  O1005   1.930   .     S
Cu985  O1007   1.930   .     S
Cu985  O1003   1.969   .     S
Cu985  N999    2.029   .     S
Cu985  O1001   1.969   .     S
Cu985  Cu986   2.700   .     S
Cu986  O1008   1.930   .     S
Cu986  O1004   1.969   .     S
Cu986  N1000   2.029   .     S
Cu986  O1006   1.930   .     S
Cu986  O1002   1.969   .     S
Br1009 C1017   1.929   .     S
Br1010 C1018   1.929   .     S
Br1011 C1019   1.929   .     S
Br1012 C1020   1.929   .     S
C1013  C1016   1.478   .     S
C1013  O1052   1.305   .     A
C1013  O1049   1.305   .     A
C1014  C1025   1.518   .     S
C1014  C1016   1.415   .     A
C1014  C1127   1.400   1_455 S
C1015  C1031   1.415   .     A
C1015  C1032   1.415   .     A
C1015  C1024   1.478   .     S
C1016  C1030   1.415   .     A
C1017  N1048   1.376   .     A
C1018  N1047   1.376   .     A
C1018  C1163   1.422   .     S
C1019  N1048   1.376   .     A
C1020  N1047   1.376   .     A
C1020  C1161   1.422   .     S
C1021  H1040   1.106   .     S
C1021  C1030   1.518   .     S
C1021  H1039   1.111   .     S
C1021  H1035   1.110   .     S
C1022  C1031   1.518   .     S
C1022  H1042   1.106   .     S
C1022  H1041   1.110   .     S
C1022  H1043   1.111   .     S
C1023  H1046   1.106   .     S
C1023  H1045   1.111   .     S
C1023  C1032   1.518   .     S
C1023  H1044   1.110   .     S
C1024  O1051   1.305   .     A
C1024  O1050   1.305   .     A
C1025  H1037   1.106   .     S
C1025  H1038   1.111   .     S
C1025  H1036   1.110   .     S
C1026  C1028   1.408   .     S
C1026  O1053   1.294   .     A
C1026  O1056   1.294   .     A
C1027  O1054   1.294   .     A
C1027  C1029   1.408   .     S
C1027  O1055   1.294   .     A
C1029  C164    1.190   1_556 S
C1030  C1128   1.400   1_455 S
C1031  C1062   1.400   .     S
C1032  C1078   1.400   .     S
Cu1033 O1053   1.930   .     S
Cu1033 O1055   1.930   .     S
Cu1033 O1051   1.969   .     S
Cu1033 N1047   2.029   .     S
Cu1033 O1049   1.969   .     S
Cu1033 Cu1034  2.700   .     S
Cu1034 O1056   1.930   .     S
Cu1034 O1052   1.969   .     S
Cu1034 N1048   2.029   .     S
Cu1034 O1054   1.930   .     S
Cu1034 O1050   1.969   .     S
Br1057 C1065   1.929   .     S
Br1058 C1066   1.929   .     S
Br1059 C1067   1.929   .     S
Br1060 C1068   1.929   .     S
C1061  C1064   1.478   .     S
C1061  O1100   1.305   .     A
C1061  O1097   1.305   .     A
C1062  C1073   1.518   .     S
C1062  C1064   1.415   .     A
C1063  C1079   1.415   .     A
C1063  C1080   1.415   .     A
C1063  C1072   1.478   .     S
C1064  C1078   1.415   .     A
C1065  N1096   1.376   .     A
C1066  N1095   1.376   .     A
C1066  C1211   1.422   .     S
C1067  N1096   1.376   .     A
C1068  N1095   1.376   .     A
C1068  C1209   1.422   .     S
C1069  H1088   1.106   .     S
C1069  C1078   1.518   .     S
C1069  H1087   1.111   .     S
C1069  H1083   1.110   .     S
C1070  C1079   1.518   .     S
C1070  H1090   1.106   .     S
C1070  H1089   1.110   .     S
C1070  H1091   1.111   .     S
C1071  H1094   1.106   .     S
C1071  H1093   1.111   .     S
C1071  C1080   1.518   .     S
C1071  H1092   1.110   .     S
C1072  O1099   1.305   .     A
C1072  O1098   1.305   .     A
C1073  H1085   1.106   .     S
C1073  H1086   1.111   .     S
C1073  H1084   1.110   .     S
C1074  C1076   1.408   .     S
C1074  O1101   1.294   .     A
C1074  O1104   1.294   .     A
C1075  O1102   1.294   .     A
C1075  C1077   1.408   .     S
C1075  O1103   1.294   .     A
C1077  C212    1.190   1_556 S
C1079  C1110   1.400   .     S
C1080  C1126   1.400   .     S
Cu1081 O1101   1.930   .     S
Cu1081 O1103   1.930   .     S
Cu1081 O1099   1.969   .     S
Cu1081 N1095   2.029   .     S
Cu1081 O1097   1.969   .     S
Cu1081 Cu1082  2.700   .     S
Cu1082 O1104   1.930   .     S
Cu1082 O1100   1.969   .     S
Cu1082 N1096   2.029   .     S
Cu1082 O1102   1.930   .     S
Cu1082 O1098   1.969   .     S
Br1105 C1113   1.929   .     S
Br1106 C1114   1.929   .     S
Br1107 C1115   1.929   .     S
Br1108 C1116   1.929   .     S
C1109  C1112   1.478   .     S
C1109  O1148   1.305   .     A
C1109  O1145   1.305   .     A
C1110  C1121   1.518   .     S
C1110  C1112   1.415   .     A
C1111  C1127   1.415   .     A
C1111  C1128   1.415   .     A
C1111  C1120   1.478   .     S
C1112  C1126   1.415   .     A
C1113  N1144   1.376   .     A
C1114  N1143   1.376   .     A
C1114  C1259   1.422   .     S
C1115  N1144   1.376   .     A
C1116  N1143   1.376   .     A
C1116  C1257   1.422   .     S
C1117  H1136   1.106   .     S
C1117  C1126   1.518   .     S
C1117  H1135   1.111   .     S
C1117  H1131   1.110   .     S
C1118  C1127   1.518   .     S
C1118  H1138   1.106   .     S
C1118  H1137   1.110   .     S
C1118  H1139   1.111   .     S
C1119  H1142   1.106   .     S
C1119  H1141   1.111   .     S
C1119  C1128   1.518   .     S
C1119  H1140   1.110   .     S
C1120  O1147   1.305   .     A
C1120  O1146   1.305   .     A
C1121  H1133   1.106   .     S
C1121  H1134   1.111   .     S
C1121  H1132   1.110   .     S
C1122  C1124   1.408   .     S
C1122  O1149   1.294   .     A
C1122  O1152   1.294   .     A
C1123  O1150   1.294   .     A
C1123  C1125   1.408   .     S
C1123  O1151   1.294   .     A
C1125  C260    1.190   1_556 S
C1127  C1014   1.400   1_655 S
C1128  C1030   1.400   1_655 S
Cu1129 O1149   1.930   .     S
Cu1129 O1151   1.930   .     S
Cu1129 O1147   1.969   .     S
Cu1129 N1143   2.029   .     S
Cu1129 O1145   1.969   .     S
Cu1129 Cu1130  2.700   .     S
Cu1130 O1152   1.930   .     S
Cu1130 O1148   1.969   .     S
Cu1130 N1144   2.029   .     S
Cu1130 O1150   1.930   .     S
Cu1130 O1146   1.969   .     S
Br1153 C1161   1.929   .     S
Br1154 C1162   1.929   .     S
Br1155 C1163   1.929   .     S
Br1156 C1164   1.929   .     S
C1157  C1160   1.478   .     S
C1157  O1196   1.305   .     A
C1157  O1193   1.305   .     A
C1158  C1169   1.518   .     S
C1158  C1160   1.415   .     A
C1158  C1271   1.400   1_455 S
C1159  C1175   1.415   .     A
C1159  C1176   1.415   .     A
C1159  C1168   1.478   .     S
C1160  C1174   1.415   .     A
C1161  N1192   1.376   .     A
C1162  N1191   1.376   .     A
C1162  C875    1.422   1_565 S
C1163  N1192   1.376   .     A
C1164  N1191   1.376   .     A
C1164  C873    1.422   1_565 S
C1165  H1184   1.106   .     S
C1165  C1174   1.518   .     S
C1165  H1183   1.111   .     S
C1165  H1179   1.110   .     S
C1166  C1175   1.518   .     S
C1166  H1186   1.106   .     S
C1166  H1185   1.110   .     S
C1166  H1187   1.111   .     S
C1167  H1190   1.106   .     S
C1167  H1189   1.111   .     S
C1167  C1176   1.518   .     S
C1167  H1188   1.110   .     S
C1168  O1195   1.305   .     A
C1168  O1194   1.305   .     A
C1169  H1181   1.106   .     S
C1169  H1182   1.111   .     S
C1169  H1180   1.110   .     S
C1170  C1172   1.408   .     S
C1170  O1197   1.294   .     A
C1170  O1200   1.294   .     A
C1171  O1198   1.294   .     A
C1171  C1173   1.408   .     S
C1171  O1199   1.294   .     A
C1173  C308    1.190   1_556 S
C1174  C1272   1.400   1_455 S
C1175  C1206   1.400   .     S
C1176  C1222   1.400   .     S
Cu1177 O1197   1.930   .     S
Cu1177 O1199   1.930   .     S
Cu1177 O1195   1.969   .     S
Cu1177 N1191   2.029   .     S
Cu1177 O1193   1.969   .     S
Cu1177 Cu1178  2.700   .     S
Cu1178 O1200   1.930   .     S
Cu1178 O1196   1.969   .     S
Cu1178 N1192   2.029   .     S
Cu1178 O1198   1.930   .     S
Cu1178 O1194   1.969   .     S
Br1201 C1209   1.929   .     S
Br1202 C1210   1.929   .     S
Br1203 C1211   1.929   .     S
Br1204 C1212   1.929   .     S
C1205  C1208   1.478   .     S
C1205  O1244   1.305   .     A
C1205  O1241   1.305   .     A
C1206  C1217   1.518   .     S
C1206  C1208   1.415   .     A
C1207  C1223   1.415   .     A
C1207  C1224   1.415   .     A
C1207  C1216   1.478   .     S
C1208  C1222   1.415   .     A
C1209  N1240   1.376   .     A
C1210  N1239   1.376   .     A
C1210  C923    1.422   1_565 S
C1211  N1240   1.376   .     A
C1212  N1239   1.376   .     A
C1212  C921    1.422   1_565 S
C1213  H1232   1.106   .     S
C1213  C1222   1.518   .     S
C1213  H1231   1.111   .     S
C1213  H1227   1.110   .     S
C1214  C1223   1.518   .     S
C1214  H1234   1.106   .     S
C1214  H1233   1.110   .     S
C1214  H1235   1.111   .     S
C1215  H1238   1.106   .     S
C1215  H1237   1.111   .     S
C1215  C1224   1.518   .     S
C1215  H1236   1.110   .     S
C1216  O1243   1.305   .     A
C1216  O1242   1.305   .     A
C1217  H1229   1.106   .     S
C1217  H1230   1.111   .     S
C1217  H1228   1.110   .     S
C1218  C1220   1.408   .     S
C1218  O1245   1.294   .     A
C1218  O1248   1.294   .     A
C1219  O1246   1.294   .     A
C1219  C1221   1.408   .     S
C1219  O1247   1.294   .     A
C1221  C356    1.190   1_556 S
C1223  C1254   1.400   .     S
C1224  C1270   1.400   .     S
Cu1225 O1245   1.930   .     S
Cu1225 O1247   1.930   .     S
Cu1225 O1243   1.969   .     S
Cu1225 N1239   2.029   .     S
Cu1225 O1241   1.969   .     S
Cu1225 Cu1226  2.700   .     S
Cu1226 O1248   1.930   .     S
Cu1226 O1244   1.969   .     S
Cu1226 N1240   2.029   .     S
Cu1226 O1246   1.930   .     S
Cu1226 O1242   1.969   .     S
Br1249 C1257   1.929   .     S
Br1250 C1258   1.929   .     S
Br1251 C1259   1.929   .     S
Br1252 C1260   1.929   .     S
C1253  C1256   1.478   .     S
C1253  O1292   1.305   .     A
C1253  O1289   1.305   .     A
C1254  C1265   1.518   .     S
C1254  C1256   1.415   .     A
C1255  C1271   1.415   .     A
C1255  C1272   1.415   .     A
C1255  C1264   1.478   .     S
C1256  C1270   1.415   .     A
C1257  N1288   1.376   .     A
C1258  N1287   1.376   .     A
C1258  C971    1.422   1_565 S
C1259  N1288   1.376   .     A
C1260  N1287   1.376   .     A
C1260  C969    1.422   1_565 S
C1261  H1280   1.106   .     S
C1261  C1270   1.518   .     S
C1261  H1279   1.111   .     S
C1261  H1275   1.110   .     S
C1262  C1271   1.518   .     S
C1262  H1282   1.106   .     S
C1262  H1281   1.110   .     S
C1262  H1283   1.111   .     S
C1263  H1286   1.106   .     S
C1263  H1285   1.111   .     S
C1263  C1272   1.518   .     S
C1263  H1284   1.110   .     S
C1264  O1291   1.305   .     A
C1264  O1290   1.305   .     A
C1265  H1277   1.106   .     S
C1265  H1278   1.111   .     S
C1265  H1276   1.110   .     S
C1266  C1268   1.408   .     S
C1266  O1293   1.294   .     A
C1266  O1296   1.294   .     A
C1267  O1294   1.294   .     A
C1267  C1269   1.408   .     S
C1267  O1295   1.294   .     A
C1269  C404    1.190   1_556 S
C1271  C1158   1.400   1_655 S
C1272  C1174   1.400   1_655 S
Cu1273 O1293   1.930   .     S
Cu1273 O1295   1.930   .     S
Cu1273 O1291   1.969   .     S
Cu1273 N1287   2.029   .     S
Cu1273 O1289   1.969   .     S
Cu1273 Cu1274  2.700   .     S
Cu1274 O1296   1.930   .     S
Cu1274 O1292   1.969   .     S
Cu1274 N1288   2.029   .     S
Cu1274 O1294   1.930   .     S
Cu1274 O1290   1.969   .     S
