data_str_m2_o10_o16_pcu_sym.44
_audit_creation_date              2020-01-03
_audit_creation_method            'Materials Studio'
_symmetry_space_group_name_H-M    'P1'
_symmetry_Int_Tables_number       1
_symmetry_cell_setting            triclinic
loop_
_symmetry_equiv_pos_as_xyz
  x,y,z
_cell_length_a                    22.4042
_cell_length_b                    26.1204
_cell_length_c                    26.8741
_cell_angle_alpha                 94.4821
_cell_angle_beta                  77.6497
_cell_angle_gamma                 102.0208
loop_
_atom_site_label
_atom_site_type_symbol
_atom_site_fract_x
_atom_site_fract_y
_atom_site_fract_z
_atom_site_U_iso_or_equiv
_atom_site_adp_type
_atom_site_occupancy
C1     C     0.18202   0.26650   0.24998   0.00000  Uiso   1.00
C2     C     0.10917   0.15878   0.40453   0.00000  Uiso   1.00
C3     C     0.19125   0.32228   0.24882   0.00000  Uiso   1.00
C4     C     0.13234   0.16361   0.34762   0.00000  Uiso   1.00
C5     C     0.14578   0.01111   0.24225   0.00000  Uiso   1.00
C6     C     0.15262   0.06683   0.24666   0.00000  Uiso   1.00
C7     C     0.20023   0.16945   0.15313   0.00000  Uiso   1.00
C8     C     0.28808   0.22277   0.02717   0.00000  Uiso   1.00
C9     C     0.21996   0.17570   0.09811   0.00000  Uiso   1.00
C10    C     0.04757   0.13211   0.42579   0.00000  Uiso   1.00
C11    C     0.03133   0.11896   0.47763   0.00000  Uiso   1.00
C12    C     0.13731   0.16030   0.48844   0.00000  Uiso   1.00
C13    C     0.07673   0.13269   0.00800   0.00000  Uiso   1.00
C14    C     0.32992   0.25275   0.31495   0.00000  Uiso   1.00
C15    C     0.32931   0.31138   0.31197   0.00000  Uiso   1.00
C16    C     0.27256   0.32837   0.34632   0.00000  Uiso   1.00
C17    C     0.33170   0.11756   0.39377   0.00000  Uiso   1.00
C18    C     0.29475   0.06403   0.03931   0.00000  Uiso   1.00
C19    C     0.23145   0.02674   0.04510   0.00000  Uiso   1.00
C20    C     0.21526   0.33134   0.09503   0.00000  Uiso   1.00
C21    C     0.15050   0.17762   0.43808   0.00000  Uiso   1.00
C22    C     0.18432   0.17431   0.01832   0.00000  Uiso   1.00
C23    C     0.24131   0.20843   0.49847   0.00000  Uiso   1.00
C24    C     0.24925   0.23049   0.45154   0.00000  Uiso   1.00
C25    C     0.20300   0.21674   0.42324   0.00000  Uiso   1.00
C26    C     0.17608   0.15674   0.06779   0.00000  Uiso   1.00
C27    C     0.27726   0.20675   0.07707   0.00000  Uiso   1.00
Cu28   Cu    0.10710   0.16105   0.24435   0.00000  Uiso   1.00
Cu29   Cu    0.22623   0.17228   0.25564   0.00000  Uiso   1.00
H30    H     0.31189   0.22132   0.10004   0.00000  Uiso   1.00
H31    H     0.03224   0.24869   0.33669   0.00000  Uiso   1.00
H32    H     0.28518   0.23186   0.33568   0.00000  Uiso   1.00
H33    H     0.03871   0.00205   0.32275   0.00000  Uiso   1.00
H34    H     0.32968   0.32065   0.27223   0.00000  Uiso   1.00
H35    H     0.22878   0.30311   0.33945   0.00000  Uiso   1.00
H36    H     0.27022   0.03504   0.33703   0.00000  Uiso   1.00
H37    H     0.27524   0.32792   0.38703   0.00000  Uiso   1.00
H38    H     0.28602   0.09668   0.41458   0.00000  Uiso   1.00
H39    H     0.32318   0.15344   0.37919   0.00000  Uiso   1.00
H40    H     0.01469   0.09125   0.36182   0.00000  Uiso   1.00
H41    H     0.10248   0.32133   0.23426   0.00000  Uiso   1.00
H42    H     0.29526   0.08924   0.07461   0.00000  Uiso   1.00
H43    H     0.33148   0.03995   0.03396   0.00000  Uiso   1.00
H44    H     0.19455   0.04912   0.04442   0.00000  Uiso   1.00
H45    H     0.23241   0.33103   0.01256   0.00000  Uiso   1.00
H46    H     0.25295   0.31083   0.09806   0.00000  Uiso   1.00
H47    H     0.17129   0.30198   0.09652   0.00000  Uiso   1.00
H48    H     0.20879   0.02622   0.12794   0.00000  Uiso   1.00
H49    H     0.32717   0.11716   0.22418   0.00000  Uiso   1.00
H50    H     0.29035   0.25961   0.43747   0.00000  Uiso   1.00
H51    H     0.33169   0.24859   0.01194   0.00000  Uiso   1.00
H52    H     0.13500   0.12945   0.08467   0.00000  Uiso   1.00
H53    H     0.06261   0.12479   0.04779   0.00000  Uiso   1.00
H54    H     0.20575   0.23880   0.39083   0.00000  Uiso   1.00
H55    H     0.23560   0.01214   0.25457   0.00000  Uiso   1.00
N56    N     0.31574   0.18074   0.26416   0.00000  Uiso   1.00
N57    N     0.01759   0.15259   0.23584   0.00000  Uiso   1.00
O58    O     0.12797   0.23807   0.24633   0.00000  Uiso   1.00
O59    O     0.30268   0.09579   0.49722   0.00000  Uiso   1.00
O60    O     0.22858   0.24755   0.25586   0.00000  Uiso   1.00
O61    O     0.09181   0.15960   0.31839   0.00000  Uiso   1.00
O62    O     0.19242   0.16908   0.32793   0.00000  Uiso   1.00
O63    O     0.10476   0.08578   0.24413   0.00000  Uiso   1.00
O64    O     0.20536   0.09526   0.25367   0.00000  Uiso   1.00
O65    O     0.14092   0.16425   0.17207   0.00000  Uiso   1.00
O66    O     0.24152   0.17373   0.18160   0.00000  Uiso   1.00
O67    O     0.01217   0.23114   0.26541   0.00000  Uiso   1.00
C68    C     0.51536   0.26650   0.24998   0.00000  Uiso   1.00
C69    C     0.44251   0.15878   0.40453   0.00000  Uiso   1.00
C70    C     0.52458   0.32228   0.24882   0.00000  Uiso   1.00
C71    C     0.46567   0.16361   0.34762   0.00000  Uiso   1.00
C72    C     0.47911   0.01111   0.24225   0.00000  Uiso   1.00
C73    C     0.48596   0.06683   0.24666   0.00000  Uiso   1.00
C74    C     0.53356   0.16945   0.15313   0.00000  Uiso   1.00
C75    C     0.62141   0.22277   0.02717   0.00000  Uiso   1.00
C76    C     0.55329   0.17570   0.09811   0.00000  Uiso   1.00
C77    C     0.38091   0.13211   0.42579   0.00000  Uiso   1.00
C78    C     0.36466   0.11896   0.47763   0.00000  Uiso   1.00
C79    C     0.47064   0.16030   0.48844   0.00000  Uiso   1.00
C80    C     0.41006   0.13269   0.00800   0.00000  Uiso   1.00
C81    C     0.66325   0.25275   0.31495   0.00000  Uiso   1.00
C82    C     0.66264   0.31138   0.31197   0.00000  Uiso   1.00
C83    C     0.60589   0.32837   0.34632   0.00000  Uiso   1.00
C84    C     0.66503   0.11756   0.39377   0.00000  Uiso   1.00
C85    C     0.62808   0.06403   0.03931   0.00000  Uiso   1.00
C86    C     0.56478   0.02674   0.04510   0.00000  Uiso   1.00
C87    C     0.54860   0.33134   0.09503   0.00000  Uiso   1.00
C88    C     0.48383   0.17762   0.43808   0.00000  Uiso   1.00
C89    C     0.51766   0.17431   0.01832   0.00000  Uiso   1.00
C90    C     0.57464   0.20843   0.49847   0.00000  Uiso   1.00
C91    C     0.58259   0.23049   0.45154   0.00000  Uiso   1.00
C92    C     0.53634   0.21674   0.42324   0.00000  Uiso   1.00
C93    C     0.50942   0.15674   0.06779   0.00000  Uiso   1.00
C94    C     0.61059   0.20675   0.07707   0.00000  Uiso   1.00
Cu95   Cu    0.44043   0.16105   0.24435   0.00000  Uiso   1.00
Cu96   Cu    0.55957   0.17228   0.25564   0.00000  Uiso   1.00
H97    H     0.64522   0.22132   0.10004   0.00000  Uiso   1.00
H98    H     0.36557   0.24869   0.33669   0.00000  Uiso   1.00
H99    H     0.61851   0.23186   0.33568   0.00000  Uiso   1.00
H100   H     0.37205   0.00205   0.32275   0.00000  Uiso   1.00
H101   H     0.66301   0.32065   0.27223   0.00000  Uiso   1.00
H102   H     0.56212   0.30311   0.33945   0.00000  Uiso   1.00
H103   H     0.60355   0.03504   0.33703   0.00000  Uiso   1.00
H104   H     0.60857   0.32792   0.38703   0.00000  Uiso   1.00
H105   H     0.61936   0.09668   0.41458   0.00000  Uiso   1.00
H106   H     0.65652   0.15344   0.37919   0.00000  Uiso   1.00
H107   H     0.34802   0.09125   0.36182   0.00000  Uiso   1.00
H108   H     0.43581   0.32133   0.23426   0.00000  Uiso   1.00
H109   H     0.62859   0.08924   0.07461   0.00000  Uiso   1.00
H110   H     0.66482   0.03995   0.03396   0.00000  Uiso   1.00
H111   H     0.52789   0.04912   0.04442   0.00000  Uiso   1.00
H112   H     0.56575   0.33103   0.01256   0.00000  Uiso   1.00
H113   H     0.58629   0.31083   0.09806   0.00000  Uiso   1.00
H114   H     0.50463   0.30198   0.09652   0.00000  Uiso   1.00
H115   H     0.54213   0.02622   0.12794   0.00000  Uiso   1.00
H116   H     0.66051   0.11716   0.22418   0.00000  Uiso   1.00
H117   H     0.62369   0.25961   0.43747   0.00000  Uiso   1.00
H118   H     0.66503   0.24859   0.01194   0.00000  Uiso   1.00
H119   H     0.46833   0.12945   0.08467   0.00000  Uiso   1.00
H120   H     0.39594   0.12479   0.04779   0.00000  Uiso   1.00
H121   H     0.53908   0.23880   0.39083   0.00000  Uiso   1.00
H122   H     0.56893   0.01214   0.25457   0.00000  Uiso   1.00
N123   N     0.64908   0.18074   0.26416   0.00000  Uiso   1.00
N124   N     0.35092   0.15259   0.23584   0.00000  Uiso   1.00
O125   O     0.46131   0.23807   0.24633   0.00000  Uiso   1.00
O126   O     0.63601   0.09579   0.49722   0.00000  Uiso   1.00
O127   O     0.56191   0.24755   0.25586   0.00000  Uiso   1.00
O128   O     0.42515   0.15960   0.31839   0.00000  Uiso   1.00
O129   O     0.52575   0.16908   0.32793   0.00000  Uiso   1.00
O130   O     0.43809   0.08578   0.24413   0.00000  Uiso   1.00
O131   O     0.53869   0.09526   0.25367   0.00000  Uiso   1.00
O132   O     0.47425   0.16425   0.17207   0.00000  Uiso   1.00
O133   O     0.57485   0.17373   0.18160   0.00000  Uiso   1.00
O134   O     0.34550   0.23114   0.26541   0.00000  Uiso   1.00
C135   C     0.84869   0.26650   0.24998   0.00000  Uiso   1.00
C136   C     0.77584   0.15878   0.40453   0.00000  Uiso   1.00
C137   C     0.85792   0.32228   0.24882   0.00000  Uiso   1.00
C138   C     0.79901   0.16361   0.34762   0.00000  Uiso   1.00
C139   C     0.81244   0.01111   0.24225   0.00000  Uiso   1.00
C140   C     0.81929   0.06683   0.24666   0.00000  Uiso   1.00
C141   C     0.86690   0.16945   0.15313   0.00000  Uiso   1.00
C142   C     0.95475   0.22277   0.02717   0.00000  Uiso   1.00
C143   C     0.88662   0.17570   0.09811   0.00000  Uiso   1.00
C144   C     0.71424   0.13211   0.42579   0.00000  Uiso   1.00
C145   C     0.69800   0.11896   0.47763   0.00000  Uiso   1.00
C146   C     0.80397   0.16030   0.48844   0.00000  Uiso   1.00
C147   C     0.74340   0.13269   0.00800   0.00000  Uiso   1.00
C148   C     0.99658   0.25275   0.31495   0.00000  Uiso   1.00
C149   C     0.99597   0.31138   0.31197   0.00000  Uiso   1.00
C150   C     0.93922   0.32837   0.34632   0.00000  Uiso   1.00
C151   C     0.99837   0.11756   0.39377   0.00000  Uiso   1.00
C152   C     0.96142   0.06403   0.03931   0.00000  Uiso   1.00
C153   C     0.89812   0.02674   0.04510   0.00000  Uiso   1.00
C154   C     0.88193   0.33134   0.09503   0.00000  Uiso   1.00
C155   C     0.81717   0.17762   0.43808   0.00000  Uiso   1.00
C156   C     0.85099   0.17431   0.01832   0.00000  Uiso   1.00
C157   C     0.90797   0.20843   0.49847   0.00000  Uiso   1.00
C158   C     0.91592   0.23049   0.45154   0.00000  Uiso   1.00
C159   C     0.86967   0.21674   0.42324   0.00000  Uiso   1.00
C160   C     0.84275   0.15674   0.06779   0.00000  Uiso   1.00
C161   C     0.94393   0.20675   0.07707   0.00000  Uiso   1.00
Cu162  Cu    0.77377   0.16105   0.24435   0.00000  Uiso   1.00
Cu163  Cu    0.89290   0.17228   0.25564   0.00000  Uiso   1.00
H164   H     0.97855   0.22132   0.10004   0.00000  Uiso   1.00
H165   H     0.69890   0.24869   0.33669   0.00000  Uiso   1.00
H166   H     0.95185   0.23186   0.33568   0.00000  Uiso   1.00
H167   H     0.70538   0.00205   0.32275   0.00000  Uiso   1.00
H168   H     0.99634   0.32065   0.27223   0.00000  Uiso   1.00
H169   H     0.89545   0.30311   0.33945   0.00000  Uiso   1.00
H170   H     0.93688   0.03504   0.33703   0.00000  Uiso   1.00
H171   H     0.94190   0.32792   0.38703   0.00000  Uiso   1.00
H172   H     0.95269   0.09668   0.41458   0.00000  Uiso   1.00
H173   H     0.98985   0.15344   0.37919   0.00000  Uiso   1.00
H174   H     0.68136   0.09125   0.36182   0.00000  Uiso   1.00
H175   H     0.76915   0.32133   0.23426   0.00000  Uiso   1.00
H176   H     0.96193   0.08924   0.07461   0.00000  Uiso   1.00
H177   H     0.99815   0.03995   0.03396   0.00000  Uiso   1.00
H178   H     0.86122   0.04912   0.04442   0.00000  Uiso   1.00
H179   H     0.89908   0.33103   0.01256   0.00000  Uiso   1.00
H180   H     0.91962   0.31083   0.09806   0.00000  Uiso   1.00
H181   H     0.83796   0.30198   0.09652   0.00000  Uiso   1.00
H182   H     0.87546   0.02622   0.12794   0.00000  Uiso   1.00
H183   H     0.99384   0.11716   0.22418   0.00000  Uiso   1.00
H184   H     0.95702   0.25961   0.43747   0.00000  Uiso   1.00
H185   H     0.99836   0.24859   0.01194   0.00000  Uiso   1.00
H186   H     0.80167   0.12945   0.08467   0.00000  Uiso   1.00
H187   H     0.72928   0.12479   0.04779   0.00000  Uiso   1.00
H188   H     0.87242   0.23880   0.39083   0.00000  Uiso   1.00
H189   H     0.90227   0.01214   0.25457   0.00000  Uiso   1.00
N190   N     0.98241   0.18074   0.26416   0.00000  Uiso   1.00
N191   N     0.68426   0.15259   0.23584   0.00000  Uiso   1.00
O192   O     0.79464   0.23807   0.24633   0.00000  Uiso   1.00
O193   O     0.96935   0.09579   0.49722   0.00000  Uiso   1.00
O194   O     0.89524   0.24755   0.25586   0.00000  Uiso   1.00
O195   O     0.75848   0.15960   0.31839   0.00000  Uiso   1.00
O196   O     0.85908   0.16908   0.32793   0.00000  Uiso   1.00
O197   O     0.77142   0.08578   0.24413   0.00000  Uiso   1.00
O198   O     0.87203   0.09526   0.25367   0.00000  Uiso   1.00
O199   O     0.80758   0.16425   0.17207   0.00000  Uiso   1.00
O200   O     0.90819   0.17373   0.18160   0.00000  Uiso   1.00
O201   O     0.67883   0.23114   0.26541   0.00000  Uiso   1.00
C202   C     0.18202   0.59984   0.24998   0.00000  Uiso   1.00
C203   C     0.10917   0.49212   0.40453   0.00000  Uiso   1.00
C204   C     0.19125   0.65561   0.24882   0.00000  Uiso   1.00
C205   C     0.13234   0.49694   0.34762   0.00000  Uiso   1.00
C206   C     0.14578   0.34444   0.24225   0.00000  Uiso   1.00
C207   C     0.15262   0.40017   0.24666   0.00000  Uiso   1.00
C208   C     0.20023   0.50278   0.15313   0.00000  Uiso   1.00
C209   C     0.28808   0.55610   0.02717   0.00000  Uiso   1.00
C210   C     0.21996   0.50903   0.09811   0.00000  Uiso   1.00
C211   C     0.04757   0.46545   0.42579   0.00000  Uiso   1.00
C212   C     0.03133   0.45230   0.47763   0.00000  Uiso   1.00
C213   C     0.13731   0.49363   0.48844   0.00000  Uiso   1.00
C214   C     0.07673   0.46602   0.00800   0.00000  Uiso   1.00
C215   C     0.32992   0.58609   0.31495   0.00000  Uiso   1.00
C216   C     0.32931   0.64472   0.31197   0.00000  Uiso   1.00
C217   C     0.27256   0.66170   0.34632   0.00000  Uiso   1.00
C218   C     0.33170   0.45089   0.39377   0.00000  Uiso   1.00
C219   C     0.29475   0.39736   0.03931   0.00000  Uiso   1.00
C220   C     0.23145   0.36007   0.04510   0.00000  Uiso   1.00
C221   C     0.21526   0.66467   0.09503   0.00000  Uiso   1.00
C222   C     0.15050   0.51095   0.43808   0.00000  Uiso   1.00
C223   C     0.18432   0.50765   0.01832   0.00000  Uiso   1.00
C224   C     0.24131   0.54176   0.49847   0.00000  Uiso   1.00
C225   C     0.24925   0.56382   0.45154   0.00000  Uiso   1.00
C226   C     0.20300   0.55007   0.42324   0.00000  Uiso   1.00
C227   C     0.17608   0.49008   0.06779   0.00000  Uiso   1.00
C228   C     0.27726   0.54009   0.07707   0.00000  Uiso   1.00
Cu229  Cu    0.10710   0.49439   0.24435   0.00000  Uiso   1.00
Cu230  Cu    0.22623   0.50561   0.25564   0.00000  Uiso   1.00
H231   H     0.31189   0.55465   0.10004   0.00000  Uiso   1.00
H232   H     0.03224   0.58202   0.33669   0.00000  Uiso   1.00
H233   H     0.28518   0.56519   0.33568   0.00000  Uiso   1.00
H234   H     0.03871   0.33539   0.32275   0.00000  Uiso   1.00
H235   H     0.32968   0.65398   0.27223   0.00000  Uiso   1.00
H236   H     0.22878   0.63645   0.33945   0.00000  Uiso   1.00
H237   H     0.27022   0.36838   0.33703   0.00000  Uiso   1.00
H238   H     0.27524   0.66125   0.38703   0.00000  Uiso   1.00
H239   H     0.28602   0.43001   0.41458   0.00000  Uiso   1.00
H240   H     0.32318   0.48678   0.37919   0.00000  Uiso   1.00
H241   H     0.01469   0.42458   0.36182   0.00000  Uiso   1.00
H242   H     0.10248   0.65467   0.23426   0.00000  Uiso   1.00
H243   H     0.29526   0.42257   0.07461   0.00000  Uiso   1.00
H244   H     0.33148   0.37328   0.03396   0.00000  Uiso   1.00
H245   H     0.19455   0.38245   0.04442   0.00000  Uiso   1.00
H246   H     0.23241   0.66437   0.01256   0.00000  Uiso   1.00
H247   H     0.25295   0.64417   0.09806   0.00000  Uiso   1.00
H248   H     0.17129   0.63531   0.09652   0.00000  Uiso   1.00
H249   H     0.20879   0.35955   0.12794   0.00000  Uiso   1.00
H250   H     0.32717   0.45050   0.22418   0.00000  Uiso   1.00
H251   H     0.29035   0.59295   0.43747   0.00000  Uiso   1.00
H252   H     0.33169   0.58192   0.01194   0.00000  Uiso   1.00
H253   H     0.13500   0.46279   0.08467   0.00000  Uiso   1.00
H254   H     0.06261   0.45812   0.04779   0.00000  Uiso   1.00
H255   H     0.20575   0.57214   0.39083   0.00000  Uiso   1.00
H256   H     0.23560   0.34548   0.25457   0.00000  Uiso   1.00
N257   N     0.31574   0.51407   0.26416   0.00000  Uiso   1.00
N258   N     0.01759   0.48593   0.23584   0.00000  Uiso   1.00
O259   O     0.12797   0.57141   0.24633   0.00000  Uiso   1.00
O260   O     0.30268   0.42912   0.49722   0.00000  Uiso   1.00
O261   O     0.22858   0.58089   0.25586   0.00000  Uiso   1.00
O262   O     0.09181   0.49293   0.31839   0.00000  Uiso   1.00
O263   O     0.19242   0.50241   0.32793   0.00000  Uiso   1.00
O264   O     0.10476   0.41911   0.24413   0.00000  Uiso   1.00
O265   O     0.20536   0.42859   0.25367   0.00000  Uiso   1.00
O266   O     0.14092   0.49759   0.17207   0.00000  Uiso   1.00
O267   O     0.24152   0.50707   0.18160   0.00000  Uiso   1.00
O268   O     0.01217   0.56447   0.26541   0.00000  Uiso   1.00
C269   C     0.51536   0.59984   0.24998   0.00000  Uiso   1.00
C270   C     0.44251   0.49212   0.40453   0.00000  Uiso   1.00
C271   C     0.52458   0.65561   0.24882   0.00000  Uiso   1.00
C272   C     0.46567   0.49694   0.34762   0.00000  Uiso   1.00
C273   C     0.47911   0.34444   0.24225   0.00000  Uiso   1.00
C274   C     0.48596   0.40017   0.24666   0.00000  Uiso   1.00
C275   C     0.53356   0.50278   0.15313   0.00000  Uiso   1.00
C276   C     0.62141   0.55610   0.02717   0.00000  Uiso   1.00
C277   C     0.55329   0.50903   0.09811   0.00000  Uiso   1.00
C278   C     0.38091   0.46545   0.42579   0.00000  Uiso   1.00
C279   C     0.36466   0.45230   0.47763   0.00000  Uiso   1.00
C280   C     0.47064   0.49363   0.48844   0.00000  Uiso   1.00
C281   C     0.41006   0.46602   0.00800   0.00000  Uiso   1.00
C282   C     0.66325   0.58609   0.31495   0.00000  Uiso   1.00
C283   C     0.66264   0.64472   0.31197   0.00000  Uiso   1.00
C284   C     0.60589   0.66170   0.34632   0.00000  Uiso   1.00
C285   C     0.66503   0.45089   0.39377   0.00000  Uiso   1.00
C286   C     0.62808   0.39736   0.03931   0.00000  Uiso   1.00
C287   C     0.56478   0.36007   0.04510   0.00000  Uiso   1.00
C288   C     0.54860   0.66467   0.09503   0.00000  Uiso   1.00
C289   C     0.48383   0.51095   0.43808   0.00000  Uiso   1.00
C290   C     0.51766   0.50765   0.01832   0.00000  Uiso   1.00
C291   C     0.57464   0.54176   0.49847   0.00000  Uiso   1.00
C292   C     0.58259   0.56382   0.45154   0.00000  Uiso   1.00
C293   C     0.53634   0.55007   0.42324   0.00000  Uiso   1.00
C294   C     0.50942   0.49008   0.06779   0.00000  Uiso   1.00
C295   C     0.61059   0.54009   0.07707   0.00000  Uiso   1.00
Cu296  Cu    0.44043   0.49439   0.24435   0.00000  Uiso   1.00
Cu297  Cu    0.55957   0.50561   0.25564   0.00000  Uiso   1.00
H298   H     0.64522   0.55465   0.10004   0.00000  Uiso   1.00
H299   H     0.36557   0.58202   0.33669   0.00000  Uiso   1.00
H300   H     0.61851   0.56519   0.33568   0.00000  Uiso   1.00
H301   H     0.37205   0.33539   0.32275   0.00000  Uiso   1.00
H302   H     0.66301   0.65398   0.27223   0.00000  Uiso   1.00
H303   H     0.56212   0.63645   0.33945   0.00000  Uiso   1.00
H304   H     0.60355   0.36838   0.33703   0.00000  Uiso   1.00
H305   H     0.60857   0.66125   0.38703   0.00000  Uiso   1.00
H306   H     0.61936   0.43001   0.41458   0.00000  Uiso   1.00
H307   H     0.65652   0.48678   0.37919   0.00000  Uiso   1.00
H308   H     0.34802   0.42458   0.36182   0.00000  Uiso   1.00
H309   H     0.43581   0.65467   0.23426   0.00000  Uiso   1.00
H310   H     0.62859   0.42257   0.07461   0.00000  Uiso   1.00
H311   H     0.66482   0.37328   0.03396   0.00000  Uiso   1.00
H312   H     0.52789   0.38245   0.04442   0.00000  Uiso   1.00
H313   H     0.56575   0.66437   0.01256   0.00000  Uiso   1.00
H314   H     0.58629   0.64417   0.09806   0.00000  Uiso   1.00
H315   H     0.50463   0.63531   0.09652   0.00000  Uiso   1.00
H316   H     0.54213   0.35955   0.12794   0.00000  Uiso   1.00
H317   H     0.66051   0.45050   0.22418   0.00000  Uiso   1.00
H318   H     0.62369   0.59295   0.43747   0.00000  Uiso   1.00
H319   H     0.66503   0.58192   0.01194   0.00000  Uiso   1.00
H320   H     0.46833   0.46279   0.08467   0.00000  Uiso   1.00
H321   H     0.39594   0.45812   0.04779   0.00000  Uiso   1.00
H322   H     0.53908   0.57214   0.39083   0.00000  Uiso   1.00
H323   H     0.56893   0.34548   0.25457   0.00000  Uiso   1.00
N324   N     0.64908   0.51407   0.26416   0.00000  Uiso   1.00
N325   N     0.35092   0.48593   0.23584   0.00000  Uiso   1.00
O326   O     0.46131   0.57141   0.24633   0.00000  Uiso   1.00
O327   O     0.63601   0.42912   0.49722   0.00000  Uiso   1.00
O328   O     0.56191   0.58089   0.25586   0.00000  Uiso   1.00
O329   O     0.42515   0.49293   0.31839   0.00000  Uiso   1.00
O330   O     0.52575   0.50241   0.32793   0.00000  Uiso   1.00
O331   O     0.43809   0.41911   0.24413   0.00000  Uiso   1.00
O332   O     0.53869   0.42859   0.25367   0.00000  Uiso   1.00
O333   O     0.47425   0.49759   0.17207   0.00000  Uiso   1.00
O334   O     0.57485   0.50707   0.18160   0.00000  Uiso   1.00
O335   O     0.34550   0.56447   0.26541   0.00000  Uiso   1.00
C336   C     0.84869   0.59984   0.24998   0.00000  Uiso   1.00
C337   C     0.77584   0.49212   0.40453   0.00000  Uiso   1.00
C338   C     0.85792   0.65561   0.24882   0.00000  Uiso   1.00
C339   C     0.79901   0.49694   0.34762   0.00000  Uiso   1.00
C340   C     0.81244   0.34444   0.24225   0.00000  Uiso   1.00
C341   C     0.81929   0.40017   0.24666   0.00000  Uiso   1.00
C342   C     0.86690   0.50278   0.15313   0.00000  Uiso   1.00
C343   C     0.95475   0.55610   0.02717   0.00000  Uiso   1.00
C344   C     0.88662   0.50903   0.09811   0.00000  Uiso   1.00
C345   C     0.71424   0.46545   0.42579   0.00000  Uiso   1.00
C346   C     0.69800   0.45230   0.47763   0.00000  Uiso   1.00
C347   C     0.80397   0.49363   0.48844   0.00000  Uiso   1.00
C348   C     0.74340   0.46602   0.00800   0.00000  Uiso   1.00
C349   C     0.99658   0.58609   0.31495   0.00000  Uiso   1.00
C350   C     0.99597   0.64472   0.31197   0.00000  Uiso   1.00
C351   C     0.93922   0.66170   0.34632   0.00000  Uiso   1.00
C352   C     0.99837   0.45089   0.39377   0.00000  Uiso   1.00
C353   C     0.96142   0.39736   0.03931   0.00000  Uiso   1.00
C354   C     0.89812   0.36007   0.04510   0.00000  Uiso   1.00
C355   C     0.88193   0.66467   0.09503   0.00000  Uiso   1.00
C356   C     0.81717   0.51095   0.43808   0.00000  Uiso   1.00
C357   C     0.85099   0.50765   0.01832   0.00000  Uiso   1.00
C358   C     0.90797   0.54176   0.49847   0.00000  Uiso   1.00
C359   C     0.91592   0.56382   0.45154   0.00000  Uiso   1.00
C360   C     0.86967   0.55007   0.42324   0.00000  Uiso   1.00
C361   C     0.84275   0.49008   0.06779   0.00000  Uiso   1.00
C362   C     0.94393   0.54009   0.07707   0.00000  Uiso   1.00
Cu363  Cu    0.77377   0.49439   0.24435   0.00000  Uiso   1.00
Cu364  Cu    0.89290   0.50561   0.25564   0.00000  Uiso   1.00
H365   H     0.97855   0.55465   0.10004   0.00000  Uiso   1.00
H366   H     0.69890   0.58202   0.33669   0.00000  Uiso   1.00
H367   H     0.95185   0.56519   0.33568   0.00000  Uiso   1.00
H368   H     0.70538   0.33539   0.32275   0.00000  Uiso   1.00
H369   H     0.99634   0.65398   0.27223   0.00000  Uiso   1.00
H370   H     0.89545   0.63645   0.33945   0.00000  Uiso   1.00
H371   H     0.93688   0.36838   0.33703   0.00000  Uiso   1.00
H372   H     0.94190   0.66125   0.38703   0.00000  Uiso   1.00
H373   H     0.95269   0.43001   0.41458   0.00000  Uiso   1.00
H374   H     0.98985   0.48678   0.37919   0.00000  Uiso   1.00
H375   H     0.68136   0.42458   0.36182   0.00000  Uiso   1.00
H376   H     0.76915   0.65467   0.23426   0.00000  Uiso   1.00
H377   H     0.96193   0.42257   0.07461   0.00000  Uiso   1.00
H378   H     0.99815   0.37328   0.03396   0.00000  Uiso   1.00
H379   H     0.86122   0.38245   0.04442   0.00000  Uiso   1.00
H380   H     0.89908   0.66437   0.01256   0.00000  Uiso   1.00
H381   H     0.91962   0.64417   0.09806   0.00000  Uiso   1.00
H382   H     0.83796   0.63531   0.09652   0.00000  Uiso   1.00
H383   H     0.87546   0.35955   0.12794   0.00000  Uiso   1.00
H384   H     0.99384   0.45050   0.22418   0.00000  Uiso   1.00
H385   H     0.95702   0.59295   0.43747   0.00000  Uiso   1.00
H386   H     0.99836   0.58192   0.01194   0.00000  Uiso   1.00
H387   H     0.80167   0.46279   0.08467   0.00000  Uiso   1.00
H388   H     0.72928   0.45812   0.04779   0.00000  Uiso   1.00
H389   H     0.87242   0.57214   0.39083   0.00000  Uiso   1.00
H390   H     0.90227   0.34548   0.25457   0.00000  Uiso   1.00
N391   N     0.98241   0.51407   0.26416   0.00000  Uiso   1.00
N392   N     0.68426   0.48593   0.23584   0.00000  Uiso   1.00
O393   O     0.79464   0.57141   0.24633   0.00000  Uiso   1.00
O394   O     0.96935   0.42912   0.49722   0.00000  Uiso   1.00
O395   O     0.89524   0.58089   0.25586   0.00000  Uiso   1.00
O396   O     0.75848   0.49293   0.31839   0.00000  Uiso   1.00
O397   O     0.85908   0.50241   0.32793   0.00000  Uiso   1.00
O398   O     0.77142   0.41911   0.24413   0.00000  Uiso   1.00
O399   O     0.87203   0.42859   0.25367   0.00000  Uiso   1.00
O400   O     0.80758   0.49759   0.17207   0.00000  Uiso   1.00
O401   O     0.90819   0.50707   0.18160   0.00000  Uiso   1.00
O402   O     0.67883   0.56447   0.26541   0.00000  Uiso   1.00
C403   C     0.18202   0.93317   0.24998   0.00000  Uiso   1.00
C404   C     0.10917   0.82545   0.40453   0.00000  Uiso   1.00
C405   C     0.19125   0.98895   0.24882   0.00000  Uiso   1.00
C406   C     0.13234   0.83028   0.34762   0.00000  Uiso   1.00
C407   C     0.14578   0.67777   0.24225   0.00000  Uiso   1.00
C408   C     0.15262   0.73350   0.24666   0.00000  Uiso   1.00
C409   C     0.20023   0.83612   0.15313   0.00000  Uiso   1.00
C410   C     0.28808   0.88943   0.02717   0.00000  Uiso   1.00
C411   C     0.21996   0.84236   0.09811   0.00000  Uiso   1.00
C412   C     0.04757   0.79878   0.42579   0.00000  Uiso   1.00
C413   C     0.03133   0.78563   0.47763   0.00000  Uiso   1.00
C414   C     0.13731   0.82696   0.48844   0.00000  Uiso   1.00
C415   C     0.07673   0.79935   0.00800   0.00000  Uiso   1.00
C416   C     0.32992   0.91942   0.31495   0.00000  Uiso   1.00
C417   C     0.32931   0.97805   0.31197   0.00000  Uiso   1.00
C418   C     0.27256   0.99503   0.34632   0.00000  Uiso   1.00
C419   C     0.33170   0.78423   0.39377   0.00000  Uiso   1.00
C420   C     0.29475   0.73069   0.03931   0.00000  Uiso   1.00
C421   C     0.23145   0.69340   0.04510   0.00000  Uiso   1.00
C422   C     0.21526   0.99800   0.09503   0.00000  Uiso   1.00
C423   C     0.15050   0.84428   0.43808   0.00000  Uiso   1.00
C424   C     0.18432   0.84098   0.01832   0.00000  Uiso   1.00
C425   C     0.24131   0.87510   0.49847   0.00000  Uiso   1.00
C426   C     0.24925   0.89715   0.45154   0.00000  Uiso   1.00
C427   C     0.20300   0.88341   0.42324   0.00000  Uiso   1.00
C428   C     0.17608   0.82341   0.06779   0.00000  Uiso   1.00
C429   C     0.27726   0.87342   0.07707   0.00000  Uiso   1.00
Cu430  Cu    0.10710   0.82772   0.24435   0.00000  Uiso   1.00
Cu431  Cu    0.22623   0.83895   0.25564   0.00000  Uiso   1.00
H432   H     0.31189   0.88798   0.10004   0.00000  Uiso   1.00
H433   H     0.03224   0.91536   0.33669   0.00000  Uiso   1.00
H434   H     0.28518   0.89852   0.33568   0.00000  Uiso   1.00
H435   H     0.03871   0.66872   0.32275   0.00000  Uiso   1.00
H436   H     0.32968   0.98731   0.27223   0.00000  Uiso   1.00
H437   H     0.22878   0.96978   0.33945   0.00000  Uiso   1.00
H438   H     0.27022   0.70171   0.33703   0.00000  Uiso   1.00
H439   H     0.27524   0.99458   0.38703   0.00000  Uiso   1.00
H440   H     0.28602   0.76335   0.41458   0.00000  Uiso   1.00
H441   H     0.32318   0.82011   0.37919   0.00000  Uiso   1.00
H442   H     0.01469   0.75791   0.36182   0.00000  Uiso   1.00
H443   H     0.10248   0.98800   0.23426   0.00000  Uiso   1.00
H444   H     0.29526   0.75591   0.07461   0.00000  Uiso   1.00
H445   H     0.33148   0.70662   0.03396   0.00000  Uiso   1.00
H446   H     0.19455   0.71579   0.04442   0.00000  Uiso   1.00
H447   H     0.23241   0.99770   0.01256   0.00000  Uiso   1.00
H448   H     0.25295   0.97750   0.09806   0.00000  Uiso   1.00
H449   H     0.17129   0.96865   0.09652   0.00000  Uiso   1.00
H450   H     0.20879   0.69288   0.12794   0.00000  Uiso   1.00
H451   H     0.32717   0.78383   0.22418   0.00000  Uiso   1.00
H452   H     0.29035   0.92628   0.43747   0.00000  Uiso   1.00
H453   H     0.33169   0.91526   0.01194   0.00000  Uiso   1.00
H454   H     0.13500   0.79612   0.08467   0.00000  Uiso   1.00
H455   H     0.06261   0.79145   0.04779   0.00000  Uiso   1.00
H456   H     0.20575   0.90547   0.39083   0.00000  Uiso   1.00
H457   H     0.23560   0.67881   0.25457   0.00000  Uiso   1.00
N458   N     0.31574   0.84741   0.26416   0.00000  Uiso   1.00
N459   N     0.01759   0.81926   0.23584   0.00000  Uiso   1.00
O460   O     0.12797   0.90474   0.24633   0.00000  Uiso   1.00
O461   O     0.30268   0.76245   0.49722   0.00000  Uiso   1.00
O462   O     0.22858   0.91422   0.25586   0.00000  Uiso   1.00
O463   O     0.09181   0.82627   0.31839   0.00000  Uiso   1.00
O464   O     0.19242   0.83575   0.32793   0.00000  Uiso   1.00
O465   O     0.10476   0.75245   0.24413   0.00000  Uiso   1.00
O466   O     0.20536   0.76193   0.25367   0.00000  Uiso   1.00
O467   O     0.14092   0.83092   0.17207   0.00000  Uiso   1.00
O468   O     0.24152   0.84040   0.18160   0.00000  Uiso   1.00
O469   O     0.01217   0.89780   0.26541   0.00000  Uiso   1.00
C470   C     0.51536   0.93317   0.24998   0.00000  Uiso   1.00
C471   C     0.44251   0.82545   0.40453   0.00000  Uiso   1.00
C472   C     0.52458   0.98895   0.24882   0.00000  Uiso   1.00
C473   C     0.46567   0.83028   0.34762   0.00000  Uiso   1.00
C474   C     0.47911   0.67777   0.24225   0.00000  Uiso   1.00
C475   C     0.48596   0.73350   0.24666   0.00000  Uiso   1.00
C476   C     0.53356   0.83612   0.15313   0.00000  Uiso   1.00
C477   C     0.62141   0.88943   0.02717   0.00000  Uiso   1.00
C478   C     0.55329   0.84236   0.09811   0.00000  Uiso   1.00
C479   C     0.38091   0.79878   0.42579   0.00000  Uiso   1.00
C480   C     0.36466   0.78563   0.47763   0.00000  Uiso   1.00
C481   C     0.47064   0.82696   0.48844   0.00000  Uiso   1.00
C482   C     0.41006   0.79935   0.00800   0.00000  Uiso   1.00
C483   C     0.66325   0.91942   0.31495   0.00000  Uiso   1.00
C484   C     0.66264   0.97805   0.31197   0.00000  Uiso   1.00
C485   C     0.60589   0.99503   0.34632   0.00000  Uiso   1.00
C486   C     0.66503   0.78423   0.39377   0.00000  Uiso   1.00
C487   C     0.62808   0.73069   0.03931   0.00000  Uiso   1.00
C488   C     0.56478   0.69340   0.04510   0.00000  Uiso   1.00
C489   C     0.54860   0.99800   0.09503   0.00000  Uiso   1.00
C490   C     0.48383   0.84428   0.43808   0.00000  Uiso   1.00
C491   C     0.51766   0.84098   0.01832   0.00000  Uiso   1.00
C492   C     0.57464   0.87510   0.49847   0.00000  Uiso   1.00
C493   C     0.58259   0.89715   0.45154   0.00000  Uiso   1.00
C494   C     0.53634   0.88341   0.42324   0.00000  Uiso   1.00
C495   C     0.50942   0.82341   0.06779   0.00000  Uiso   1.00
C496   C     0.61059   0.87342   0.07707   0.00000  Uiso   1.00
Cu497  Cu    0.44043   0.82772   0.24435   0.00000  Uiso   1.00
Cu498  Cu    0.55957   0.83895   0.25564   0.00000  Uiso   1.00
H499   H     0.64522   0.88798   0.10004   0.00000  Uiso   1.00
H500   H     0.36557   0.91536   0.33669   0.00000  Uiso   1.00
H501   H     0.61851   0.89852   0.33568   0.00000  Uiso   1.00
H502   H     0.37205   0.66872   0.32275   0.00000  Uiso   1.00
H503   H     0.66301   0.98731   0.27223   0.00000  Uiso   1.00
H504   H     0.56212   0.96978   0.33945   0.00000  Uiso   1.00
H505   H     0.60355   0.70171   0.33703   0.00000  Uiso   1.00
H506   H     0.60857   0.99458   0.38703   0.00000  Uiso   1.00
H507   H     0.61936   0.76335   0.41458   0.00000  Uiso   1.00
H508   H     0.65652   0.82011   0.37919   0.00000  Uiso   1.00
H509   H     0.34802   0.75791   0.36182   0.00000  Uiso   1.00
H510   H     0.43581   0.98800   0.23426   0.00000  Uiso   1.00
H511   H     0.62859   0.75591   0.07461   0.00000  Uiso   1.00
H512   H     0.66482   0.70662   0.03396   0.00000  Uiso   1.00
H513   H     0.52789   0.71579   0.04442   0.00000  Uiso   1.00
H514   H     0.56575   0.99770   0.01256   0.00000  Uiso   1.00
H515   H     0.58629   0.97750   0.09806   0.00000  Uiso   1.00
H516   H     0.50463   0.96865   0.09652   0.00000  Uiso   1.00
H517   H     0.54213   0.69288   0.12794   0.00000  Uiso   1.00
H518   H     0.66051   0.78383   0.22418   0.00000  Uiso   1.00
H519   H     0.62369   0.92628   0.43747   0.00000  Uiso   1.00
H520   H     0.66503   0.91526   0.01194   0.00000  Uiso   1.00
H521   H     0.46833   0.79612   0.08467   0.00000  Uiso   1.00
H522   H     0.39594   0.79145   0.04779   0.00000  Uiso   1.00
H523   H     0.53908   0.90547   0.39083   0.00000  Uiso   1.00
H524   H     0.56893   0.67881   0.25457   0.00000  Uiso   1.00
N525   N     0.64908   0.84741   0.26416   0.00000  Uiso   1.00
N526   N     0.35092   0.81926   0.23584   0.00000  Uiso   1.00
O527   O     0.46131   0.90474   0.24633   0.00000  Uiso   1.00
O528   O     0.63601   0.76245   0.49722   0.00000  Uiso   1.00
O529   O     0.56191   0.91422   0.25586   0.00000  Uiso   1.00
O530   O     0.42515   0.82627   0.31839   0.00000  Uiso   1.00
O531   O     0.52575   0.83575   0.32793   0.00000  Uiso   1.00
O532   O     0.43809   0.75245   0.24413   0.00000  Uiso   1.00
O533   O     0.53869   0.76193   0.25367   0.00000  Uiso   1.00
O534   O     0.47425   0.83092   0.17207   0.00000  Uiso   1.00
O535   O     0.57485   0.84040   0.18160   0.00000  Uiso   1.00
O536   O     0.34550   0.89780   0.26541   0.00000  Uiso   1.00
C537   C     0.84869   0.93317   0.24998   0.00000  Uiso   1.00
C538   C     0.77584   0.82545   0.40453   0.00000  Uiso   1.00
C539   C     0.85792   0.98895   0.24882   0.00000  Uiso   1.00
C540   C     0.79901   0.83028   0.34762   0.00000  Uiso   1.00
C541   C     0.81244   0.67777   0.24225   0.00000  Uiso   1.00
C542   C     0.81929   0.73350   0.24666   0.00000  Uiso   1.00
C543   C     0.86690   0.83612   0.15313   0.00000  Uiso   1.00
C544   C     0.95475   0.88943   0.02717   0.00000  Uiso   1.00
C545   C     0.88662   0.84236   0.09811   0.00000  Uiso   1.00
C546   C     0.71424   0.79878   0.42579   0.00000  Uiso   1.00
C547   C     0.69800   0.78563   0.47763   0.00000  Uiso   1.00
C548   C     0.80397   0.82696   0.48844   0.00000  Uiso   1.00
C549   C     0.74340   0.79935   0.00800   0.00000  Uiso   1.00
C550   C     0.99658   0.91942   0.31495   0.00000  Uiso   1.00
C551   C     0.99597   0.97805   0.31197   0.00000  Uiso   1.00
C552   C     0.93922   0.99503   0.34632   0.00000  Uiso   1.00
C553   C     0.99837   0.78423   0.39377   0.00000  Uiso   1.00
C554   C     0.96142   0.73069   0.03931   0.00000  Uiso   1.00
C555   C     0.89812   0.69340   0.04510   0.00000  Uiso   1.00
C556   C     0.88193   0.99800   0.09503   0.00000  Uiso   1.00
C557   C     0.81717   0.84428   0.43808   0.00000  Uiso   1.00
C558   C     0.85099   0.84098   0.01832   0.00000  Uiso   1.00
C559   C     0.90797   0.87510   0.49847   0.00000  Uiso   1.00
C560   C     0.91592   0.89715   0.45154   0.00000  Uiso   1.00
C561   C     0.86967   0.88341   0.42324   0.00000  Uiso   1.00
C562   C     0.84275   0.82341   0.06779   0.00000  Uiso   1.00
C563   C     0.94393   0.87342   0.07707   0.00000  Uiso   1.00
Cu564  Cu    0.77377   0.82772   0.24435   0.00000  Uiso   1.00
Cu565  Cu    0.89290   0.83895   0.25564   0.00000  Uiso   1.00
H566   H     0.97855   0.88798   0.10004   0.00000  Uiso   1.00
H567   H     0.69890   0.91536   0.33669   0.00000  Uiso   1.00
H568   H     0.95185   0.89852   0.33568   0.00000  Uiso   1.00
H569   H     0.70538   0.66872   0.32275   0.00000  Uiso   1.00
H570   H     0.99634   0.98731   0.27223   0.00000  Uiso   1.00
H571   H     0.89545   0.96978   0.33945   0.00000  Uiso   1.00
H572   H     0.93688   0.70171   0.33703   0.00000  Uiso   1.00
H573   H     0.94190   0.99458   0.38703   0.00000  Uiso   1.00
H574   H     0.95269   0.76335   0.41458   0.00000  Uiso   1.00
H575   H     0.98985   0.82011   0.37919   0.00000  Uiso   1.00
H576   H     0.68136   0.75791   0.36182   0.00000  Uiso   1.00
H577   H     0.76915   0.98800   0.23426   0.00000  Uiso   1.00
H578   H     0.96193   0.75591   0.07461   0.00000  Uiso   1.00
H579   H     0.99815   0.70662   0.03396   0.00000  Uiso   1.00
H580   H     0.86122   0.71579   0.04442   0.00000  Uiso   1.00
H581   H     0.89908   0.99770   0.01256   0.00000  Uiso   1.00
H582   H     0.91962   0.97750   0.09806   0.00000  Uiso   1.00
H583   H     0.83796   0.96865   0.09652   0.00000  Uiso   1.00
H584   H     0.87546   0.69288   0.12794   0.00000  Uiso   1.00
H585   H     0.99384   0.78383   0.22418   0.00000  Uiso   1.00
H586   H     0.95702   0.92628   0.43747   0.00000  Uiso   1.00
H587   H     0.99836   0.91526   0.01194   0.00000  Uiso   1.00
H588   H     0.80167   0.79612   0.08467   0.00000  Uiso   1.00
H589   H     0.72928   0.79145   0.04779   0.00000  Uiso   1.00
H590   H     0.87242   0.90547   0.39083   0.00000  Uiso   1.00
H591   H     0.90227   0.67881   0.25457   0.00000  Uiso   1.00
N592   N     0.98241   0.84741   0.26416   0.00000  Uiso   1.00
N593   N     0.68426   0.81926   0.23584   0.00000  Uiso   1.00
O594   O     0.79464   0.90474   0.24633   0.00000  Uiso   1.00
O595   O     0.96935   0.76245   0.49722   0.00000  Uiso   1.00
O596   O     0.89524   0.91422   0.25586   0.00000  Uiso   1.00
O597   O     0.75848   0.82627   0.31839   0.00000  Uiso   1.00
O598   O     0.85908   0.83575   0.32793   0.00000  Uiso   1.00
O599   O     0.77142   0.75245   0.24413   0.00000  Uiso   1.00
O600   O     0.87203   0.76193   0.25367   0.00000  Uiso   1.00
O601   O     0.80758   0.83092   0.17207   0.00000  Uiso   1.00
O602   O     0.90819   0.84040   0.18160   0.00000  Uiso   1.00
O603   O     0.67883   0.89780   0.26541   0.00000  Uiso   1.00
C604   C     0.18202   0.26650   0.74998   0.00000  Uiso   1.00
C605   C     0.10917   0.15878   0.90453   0.00000  Uiso   1.00
C606   C     0.19125   0.32228   0.74882   0.00000  Uiso   1.00
C607   C     0.13234   0.16361   0.84762   0.00000  Uiso   1.00
C608   C     0.14578   0.01111   0.74225   0.00000  Uiso   1.00
C609   C     0.15262   0.06683   0.74666   0.00000  Uiso   1.00
C610   C     0.20023   0.16945   0.65313   0.00000  Uiso   1.00
C611   C     0.28808   0.22277   0.52717   0.00000  Uiso   1.00
C612   C     0.21996   0.17570   0.59811   0.00000  Uiso   1.00
C613   C     0.04757   0.13211   0.92579   0.00000  Uiso   1.00
C614   C     0.03133   0.11896   0.97763   0.00000  Uiso   1.00
C615   C     0.13731   0.16030   0.98844   0.00000  Uiso   1.00
C616   C     0.07673   0.13269   0.50800   0.00000  Uiso   1.00
C617   C     0.32992   0.25275   0.81495   0.00000  Uiso   1.00
C618   C     0.32931   0.31138   0.81197   0.00000  Uiso   1.00
C619   C     0.27256   0.32837   0.84632   0.00000  Uiso   1.00
C620   C     0.33170   0.11756   0.89377   0.00000  Uiso   1.00
C621   C     0.29475   0.06403   0.53931   0.00000  Uiso   1.00
C622   C     0.23145   0.02674   0.54510   0.00000  Uiso   1.00
C623   C     0.21526   0.33134   0.59503   0.00000  Uiso   1.00
C624   C     0.15050   0.17762   0.93808   0.00000  Uiso   1.00
C625   C     0.18432   0.17431   0.51832   0.00000  Uiso   1.00
C626   C     0.24131   0.20843   0.99847   0.00000  Uiso   1.00
C627   C     0.24925   0.23049   0.95154   0.00000  Uiso   1.00
C628   C     0.20300   0.21674   0.92324   0.00000  Uiso   1.00
C629   C     0.17608   0.15674   0.56779   0.00000  Uiso   1.00
C630   C     0.27726   0.20675   0.57707   0.00000  Uiso   1.00
Cu631  Cu    0.10710   0.16105   0.74435   0.00000  Uiso   1.00
Cu632  Cu    0.22623   0.17228   0.75564   0.00000  Uiso   1.00
H633   H     0.31189   0.22132   0.60004   0.00000  Uiso   1.00
H634   H     0.03224   0.24869   0.83669   0.00000  Uiso   1.00
H635   H     0.28518   0.23186   0.83568   0.00000  Uiso   1.00
H636   H     0.03871   0.00205   0.82275   0.00000  Uiso   1.00
H637   H     0.32968   0.32065   0.77223   0.00000  Uiso   1.00
H638   H     0.22878   0.30311   0.83945   0.00000  Uiso   1.00
H639   H     0.27022   0.03504   0.83703   0.00000  Uiso   1.00
H640   H     0.27524   0.32792   0.88703   0.00000  Uiso   1.00
H641   H     0.28602   0.09668   0.91458   0.00000  Uiso   1.00
H642   H     0.32318   0.15344   0.87919   0.00000  Uiso   1.00
H643   H     0.01469   0.09125   0.86182   0.00000  Uiso   1.00
H644   H     0.10248   0.32133   0.73426   0.00000  Uiso   1.00
H645   H     0.29526   0.08924   0.57461   0.00000  Uiso   1.00
H646   H     0.33148   0.03995   0.53396   0.00000  Uiso   1.00
H647   H     0.19455   0.04912   0.54442   0.00000  Uiso   1.00
H648   H     0.23241   0.33103   0.51256   0.00000  Uiso   1.00
H649   H     0.25295   0.31083   0.59806   0.00000  Uiso   1.00
H650   H     0.17129   0.30198   0.59652   0.00000  Uiso   1.00
H651   H     0.20879   0.02622   0.62794   0.00000  Uiso   1.00
H652   H     0.32717   0.11716   0.72418   0.00000  Uiso   1.00
H653   H     0.29035   0.25961   0.93747   0.00000  Uiso   1.00
H654   H     0.33169   0.24859   0.51194   0.00000  Uiso   1.00
H655   H     0.13500   0.12945   0.58467   0.00000  Uiso   1.00
H656   H     0.06261   0.12479   0.54779   0.00000  Uiso   1.00
H657   H     0.20575   0.23880   0.89083   0.00000  Uiso   1.00
H658   H     0.23560   0.01214   0.75457   0.00000  Uiso   1.00
N659   N     0.31574   0.18074   0.76416   0.00000  Uiso   1.00
N660   N     0.01759   0.15259   0.73584   0.00000  Uiso   1.00
O661   O     0.12797   0.23807   0.74633   0.00000  Uiso   1.00
O662   O     0.30268   0.09579   0.99722   0.00000  Uiso   1.00
O663   O     0.22858   0.24755   0.75586   0.00000  Uiso   1.00
O664   O     0.09181   0.15960   0.81839   0.00000  Uiso   1.00
O665   O     0.19242   0.16908   0.82793   0.00000  Uiso   1.00
O666   O     0.10476   0.08578   0.74413   0.00000  Uiso   1.00
O667   O     0.20536   0.09526   0.75367   0.00000  Uiso   1.00
O668   O     0.14092   0.16425   0.67207   0.00000  Uiso   1.00
O669   O     0.24152   0.17373   0.68160   0.00000  Uiso   1.00
O670   O     0.01217   0.23114   0.76541   0.00000  Uiso   1.00
C671   C     0.51536   0.26650   0.74998   0.00000  Uiso   1.00
C672   C     0.44251   0.15878   0.90453   0.00000  Uiso   1.00
C673   C     0.52458   0.32228   0.74882   0.00000  Uiso   1.00
C674   C     0.46567   0.16361   0.84762   0.00000  Uiso   1.00
C675   C     0.47911   0.01111   0.74225   0.00000  Uiso   1.00
C676   C     0.48596   0.06683   0.74666   0.00000  Uiso   1.00
C677   C     0.53356   0.16945   0.65313   0.00000  Uiso   1.00
C678   C     0.62141   0.22277   0.52717   0.00000  Uiso   1.00
C679   C     0.55329   0.17570   0.59811   0.00000  Uiso   1.00
C680   C     0.38091   0.13211   0.92579   0.00000  Uiso   1.00
C681   C     0.36466   0.11896   0.97763   0.00000  Uiso   1.00
C682   C     0.47064   0.16030   0.98844   0.00000  Uiso   1.00
C683   C     0.41006   0.13269   0.50800   0.00000  Uiso   1.00
C684   C     0.66325   0.25275   0.81495   0.00000  Uiso   1.00
C685   C     0.66264   0.31138   0.81197   0.00000  Uiso   1.00
C686   C     0.60589   0.32837   0.84632   0.00000  Uiso   1.00
C687   C     0.66503   0.11756   0.89377   0.00000  Uiso   1.00
C688   C     0.62808   0.06403   0.53931   0.00000  Uiso   1.00
C689   C     0.56478   0.02674   0.54510   0.00000  Uiso   1.00
C690   C     0.54860   0.33134   0.59503   0.00000  Uiso   1.00
C691   C     0.48383   0.17762   0.93808   0.00000  Uiso   1.00
C692   C     0.51766   0.17431   0.51832   0.00000  Uiso   1.00
C693   C     0.57464   0.20843   0.99847   0.00000  Uiso   1.00
C694   C     0.58259   0.23049   0.95154   0.00000  Uiso   1.00
C695   C     0.53634   0.21674   0.92324   0.00000  Uiso   1.00
C696   C     0.50942   0.15674   0.56779   0.00000  Uiso   1.00
C697   C     0.61059   0.20675   0.57707   0.00000  Uiso   1.00
Cu698  Cu    0.44043   0.16105   0.74435   0.00000  Uiso   1.00
Cu699  Cu    0.55957   0.17228   0.75564   0.00000  Uiso   1.00
H700   H     0.64522   0.22132   0.60004   0.00000  Uiso   1.00
H701   H     0.36557   0.24869   0.83669   0.00000  Uiso   1.00
H702   H     0.61851   0.23186   0.83568   0.00000  Uiso   1.00
H703   H     0.37205   0.00205   0.82275   0.00000  Uiso   1.00
H704   H     0.66301   0.32065   0.77223   0.00000  Uiso   1.00
H705   H     0.56212   0.30311   0.83945   0.00000  Uiso   1.00
H706   H     0.60355   0.03504   0.83703   0.00000  Uiso   1.00
H707   H     0.60857   0.32792   0.88703   0.00000  Uiso   1.00
H708   H     0.61936   0.09668   0.91458   0.00000  Uiso   1.00
H709   H     0.65652   0.15344   0.87919   0.00000  Uiso   1.00
H710   H     0.34802   0.09125   0.86182   0.00000  Uiso   1.00
H711   H     0.43581   0.32133   0.73426   0.00000  Uiso   1.00
H712   H     0.62859   0.08924   0.57461   0.00000  Uiso   1.00
H713   H     0.66482   0.03995   0.53396   0.00000  Uiso   1.00
H714   H     0.52789   0.04912   0.54442   0.00000  Uiso   1.00
H715   H     0.56575   0.33103   0.51256   0.00000  Uiso   1.00
H716   H     0.58629   0.31083   0.59806   0.00000  Uiso   1.00
H717   H     0.50463   0.30198   0.59652   0.00000  Uiso   1.00
H718   H     0.54213   0.02622   0.62794   0.00000  Uiso   1.00
H719   H     0.66051   0.11716   0.72418   0.00000  Uiso   1.00
H720   H     0.62369   0.25961   0.93747   0.00000  Uiso   1.00
H721   H     0.66503   0.24859   0.51194   0.00000  Uiso   1.00
H722   H     0.46833   0.12945   0.58467   0.00000  Uiso   1.00
H723   H     0.39594   0.12479   0.54779   0.00000  Uiso   1.00
H724   H     0.53908   0.23880   0.89083   0.00000  Uiso   1.00
H725   H     0.56893   0.01214   0.75457   0.00000  Uiso   1.00
N726   N     0.64908   0.18074   0.76416   0.00000  Uiso   1.00
N727   N     0.35092   0.15259   0.73584   0.00000  Uiso   1.00
O728   O     0.46131   0.23807   0.74633   0.00000  Uiso   1.00
O729   O     0.63601   0.09579   0.99722   0.00000  Uiso   1.00
O730   O     0.56191   0.24755   0.75586   0.00000  Uiso   1.00
O731   O     0.42515   0.15960   0.81839   0.00000  Uiso   1.00
O732   O     0.52575   0.16908   0.82793   0.00000  Uiso   1.00
O733   O     0.43809   0.08578   0.74413   0.00000  Uiso   1.00
O734   O     0.53869   0.09526   0.75367   0.00000  Uiso   1.00
O735   O     0.47425   0.16425   0.67207   0.00000  Uiso   1.00
O736   O     0.57485   0.17373   0.68160   0.00000  Uiso   1.00
O737   O     0.34550   0.23114   0.76541   0.00000  Uiso   1.00
C738   C     0.84869   0.26650   0.74998   0.00000  Uiso   1.00
C739   C     0.77584   0.15878   0.90453   0.00000  Uiso   1.00
C740   C     0.85792   0.32228   0.74882   0.00000  Uiso   1.00
C741   C     0.79901   0.16361   0.84762   0.00000  Uiso   1.00
C742   C     0.81244   0.01111   0.74225   0.00000  Uiso   1.00
C743   C     0.81929   0.06683   0.74666   0.00000  Uiso   1.00
C744   C     0.86690   0.16945   0.65313   0.00000  Uiso   1.00
C745   C     0.95475   0.22277   0.52717   0.00000  Uiso   1.00
C746   C     0.88662   0.17570   0.59811   0.00000  Uiso   1.00
C747   C     0.71424   0.13211   0.92579   0.00000  Uiso   1.00
C748   C     0.69800   0.11896   0.97763   0.00000  Uiso   1.00
C749   C     0.80397   0.16030   0.98844   0.00000  Uiso   1.00
C750   C     0.74340   0.13269   0.50800   0.00000  Uiso   1.00
C751   C     0.99658   0.25275   0.81495   0.00000  Uiso   1.00
C752   C     0.99597   0.31138   0.81197   0.00000  Uiso   1.00
C753   C     0.93922   0.32837   0.84632   0.00000  Uiso   1.00
C754   C     0.99837   0.11756   0.89377   0.00000  Uiso   1.00
C755   C     0.96142   0.06403   0.53931   0.00000  Uiso   1.00
C756   C     0.89812   0.02674   0.54510   0.00000  Uiso   1.00
C757   C     0.88193   0.33134   0.59503   0.00000  Uiso   1.00
C758   C     0.81717   0.17762   0.93808   0.00000  Uiso   1.00
C759   C     0.85099   0.17431   0.51832   0.00000  Uiso   1.00
C760   C     0.90797   0.20843   0.99847   0.00000  Uiso   1.00
C761   C     0.91592   0.23049   0.95154   0.00000  Uiso   1.00
C762   C     0.86967   0.21674   0.92324   0.00000  Uiso   1.00
C763   C     0.84275   0.15674   0.56779   0.00000  Uiso   1.00
C764   C     0.94393   0.20675   0.57707   0.00000  Uiso   1.00
Cu765  Cu    0.77377   0.16105   0.74435   0.00000  Uiso   1.00
Cu766  Cu    0.89290   0.17228   0.75564   0.00000  Uiso   1.00
H767   H     0.97855   0.22132   0.60004   0.00000  Uiso   1.00
H768   H     0.69890   0.24869   0.83669   0.00000  Uiso   1.00
H769   H     0.95185   0.23186   0.83568   0.00000  Uiso   1.00
H770   H     0.70538   0.00205   0.82275   0.00000  Uiso   1.00
H771   H     0.99634   0.32065   0.77223   0.00000  Uiso   1.00
H772   H     0.89545   0.30311   0.83945   0.00000  Uiso   1.00
H773   H     0.93688   0.03504   0.83703   0.00000  Uiso   1.00
H774   H     0.94190   0.32792   0.88703   0.00000  Uiso   1.00
H775   H     0.95269   0.09668   0.91458   0.00000  Uiso   1.00
H776   H     0.98985   0.15344   0.87919   0.00000  Uiso   1.00
H777   H     0.68136   0.09125   0.86182   0.00000  Uiso   1.00
H778   H     0.76915   0.32133   0.73426   0.00000  Uiso   1.00
H779   H     0.96193   0.08924   0.57461   0.00000  Uiso   1.00
H780   H     0.99815   0.03995   0.53396   0.00000  Uiso   1.00
H781   H     0.86122   0.04912   0.54442   0.00000  Uiso   1.00
H782   H     0.89908   0.33103   0.51256   0.00000  Uiso   1.00
H783   H     0.91962   0.31083   0.59806   0.00000  Uiso   1.00
H784   H     0.83796   0.30198   0.59652   0.00000  Uiso   1.00
H785   H     0.87546   0.02622   0.62794   0.00000  Uiso   1.00
H786   H     0.99384   0.11716   0.72418   0.00000  Uiso   1.00
H787   H     0.95702   0.25961   0.93747   0.00000  Uiso   1.00
H788   H     0.99836   0.24859   0.51194   0.00000  Uiso   1.00
H789   H     0.80167   0.12945   0.58467   0.00000  Uiso   1.00
H790   H     0.72928   0.12479   0.54779   0.00000  Uiso   1.00
H791   H     0.87242   0.23880   0.89083   0.00000  Uiso   1.00
H792   H     0.90227   0.01214   0.75457   0.00000  Uiso   1.00
N793   N     0.98241   0.18074   0.76416   0.00000  Uiso   1.00
N794   N     0.68426   0.15259   0.73584   0.00000  Uiso   1.00
O795   O     0.79464   0.23807   0.74633   0.00000  Uiso   1.00
O796   O     0.96935   0.09579   0.99722   0.00000  Uiso   1.00
O797   O     0.89524   0.24755   0.75586   0.00000  Uiso   1.00
O798   O     0.75848   0.15960   0.81839   0.00000  Uiso   1.00
O799   O     0.85908   0.16908   0.82793   0.00000  Uiso   1.00
O800   O     0.77142   0.08578   0.74413   0.00000  Uiso   1.00
O801   O     0.87203   0.09526   0.75367   0.00000  Uiso   1.00
O802   O     0.80758   0.16425   0.67207   0.00000  Uiso   1.00
O803   O     0.90819   0.17373   0.68160   0.00000  Uiso   1.00
O804   O     0.67883   0.23114   0.76541   0.00000  Uiso   1.00
C805   C     0.18202   0.59984   0.74998   0.00000  Uiso   1.00
C806   C     0.10917   0.49212   0.90453   0.00000  Uiso   1.00
C807   C     0.19125   0.65561   0.74882   0.00000  Uiso   1.00
C808   C     0.13234   0.49694   0.84762   0.00000  Uiso   1.00
C809   C     0.14578   0.34444   0.74225   0.00000  Uiso   1.00
C810   C     0.15262   0.40017   0.74666   0.00000  Uiso   1.00
C811   C     0.20023   0.50278   0.65313   0.00000  Uiso   1.00
C812   C     0.28808   0.55610   0.52717   0.00000  Uiso   1.00
C813   C     0.21996   0.50903   0.59811   0.00000  Uiso   1.00
C814   C     0.04757   0.46545   0.92579   0.00000  Uiso   1.00
C815   C     0.03133   0.45230   0.97763   0.00000  Uiso   1.00
C816   C     0.13731   0.49363   0.98844   0.00000  Uiso   1.00
C817   C     0.07673   0.46602   0.50800   0.00000  Uiso   1.00
C818   C     0.32992   0.58609   0.81495   0.00000  Uiso   1.00
C819   C     0.32931   0.64472   0.81197   0.00000  Uiso   1.00
C820   C     0.27256   0.66170   0.84632   0.00000  Uiso   1.00
C821   C     0.33170   0.45089   0.89377   0.00000  Uiso   1.00
C822   C     0.29475   0.39736   0.53931   0.00000  Uiso   1.00
C823   C     0.23145   0.36007   0.54510   0.00000  Uiso   1.00
C824   C     0.21526   0.66467   0.59503   0.00000  Uiso   1.00
C825   C     0.15050   0.51095   0.93808   0.00000  Uiso   1.00
C826   C     0.18432   0.50765   0.51832   0.00000  Uiso   1.00
C827   C     0.24131   0.54176   0.99847   0.00000  Uiso   1.00
C828   C     0.24925   0.56382   0.95154   0.00000  Uiso   1.00
C829   C     0.20300   0.55007   0.92324   0.00000  Uiso   1.00
C830   C     0.17608   0.49008   0.56779   0.00000  Uiso   1.00
C831   C     0.27726   0.54009   0.57707   0.00000  Uiso   1.00
Cu832  Cu    0.10710   0.49439   0.74435   0.00000  Uiso   1.00
Cu833  Cu    0.22623   0.50561   0.75564   0.00000  Uiso   1.00
H834   H     0.31189   0.55465   0.60004   0.00000  Uiso   1.00
H835   H     0.03224   0.58202   0.83669   0.00000  Uiso   1.00
H836   H     0.28518   0.56519   0.83568   0.00000  Uiso   1.00
H837   H     0.03871   0.33539   0.82275   0.00000  Uiso   1.00
H838   H     0.32968   0.65398   0.77223   0.00000  Uiso   1.00
H839   H     0.22878   0.63645   0.83945   0.00000  Uiso   1.00
H840   H     0.27022   0.36838   0.83703   0.00000  Uiso   1.00
H841   H     0.27524   0.66125   0.88703   0.00000  Uiso   1.00
H842   H     0.28602   0.43001   0.91458   0.00000  Uiso   1.00
H843   H     0.32318   0.48678   0.87919   0.00000  Uiso   1.00
H844   H     0.01469   0.42458   0.86182   0.00000  Uiso   1.00
H845   H     0.10248   0.65467   0.73426   0.00000  Uiso   1.00
H846   H     0.29526   0.42257   0.57461   0.00000  Uiso   1.00
H847   H     0.33148   0.37328   0.53396   0.00000  Uiso   1.00
H848   H     0.19455   0.38245   0.54442   0.00000  Uiso   1.00
H849   H     0.23241   0.66437   0.51256   0.00000  Uiso   1.00
H850   H     0.25295   0.64417   0.59806   0.00000  Uiso   1.00
H851   H     0.17129   0.63531   0.59652   0.00000  Uiso   1.00
H852   H     0.20879   0.35955   0.62794   0.00000  Uiso   1.00
H853   H     0.32717   0.45050   0.72418   0.00000  Uiso   1.00
H854   H     0.29035   0.59295   0.93747   0.00000  Uiso   1.00
H855   H     0.33169   0.58192   0.51194   0.00000  Uiso   1.00
H856   H     0.13500   0.46279   0.58467   0.00000  Uiso   1.00
H857   H     0.06261   0.45812   0.54779   0.00000  Uiso   1.00
H858   H     0.20575   0.57214   0.89083   0.00000  Uiso   1.00
H859   H     0.23560   0.34548   0.75457   0.00000  Uiso   1.00
N860   N     0.31574   0.51407   0.76416   0.00000  Uiso   1.00
N861   N     0.01759   0.48593   0.73584   0.00000  Uiso   1.00
O862   O     0.12797   0.57141   0.74633   0.00000  Uiso   1.00
O863   O     0.30268   0.42912   0.99722   0.00000  Uiso   1.00
O864   O     0.22858   0.58089   0.75586   0.00000  Uiso   1.00
O865   O     0.09181   0.49293   0.81839   0.00000  Uiso   1.00
O866   O     0.19242   0.50241   0.82793   0.00000  Uiso   1.00
O867   O     0.10476   0.41911   0.74413   0.00000  Uiso   1.00
O868   O     0.20536   0.42859   0.75367   0.00000  Uiso   1.00
O869   O     0.14092   0.49759   0.67207   0.00000  Uiso   1.00
O870   O     0.24152   0.50707   0.68160   0.00000  Uiso   1.00
O871   O     0.01217   0.56447   0.76541   0.00000  Uiso   1.00
C872   C     0.51536   0.59984   0.74998   0.00000  Uiso   1.00
C873   C     0.44251   0.49212   0.90453   0.00000  Uiso   1.00
C874   C     0.52458   0.65561   0.74882   0.00000  Uiso   1.00
C875   C     0.46567   0.49694   0.84762   0.00000  Uiso   1.00
C876   C     0.47911   0.34444   0.74225   0.00000  Uiso   1.00
C877   C     0.48596   0.40017   0.74666   0.00000  Uiso   1.00
C878   C     0.53356   0.50278   0.65313   0.00000  Uiso   1.00
C879   C     0.62141   0.55610   0.52717   0.00000  Uiso   1.00
C880   C     0.55329   0.50903   0.59811   0.00000  Uiso   1.00
C881   C     0.38091   0.46545   0.92579   0.00000  Uiso   1.00
C882   C     0.36466   0.45230   0.97763   0.00000  Uiso   1.00
C883   C     0.47064   0.49363   0.98844   0.00000  Uiso   1.00
C884   C     0.41006   0.46602   0.50800   0.00000  Uiso   1.00
C885   C     0.66325   0.58609   0.81495   0.00000  Uiso   1.00
C886   C     0.66264   0.64472   0.81197   0.00000  Uiso   1.00
C887   C     0.60589   0.66170   0.84632   0.00000  Uiso   1.00
C888   C     0.66503   0.45089   0.89377   0.00000  Uiso   1.00
C889   C     0.62808   0.39736   0.53931   0.00000  Uiso   1.00
C890   C     0.56478   0.36007   0.54510   0.00000  Uiso   1.00
C891   C     0.54860   0.66467   0.59503   0.00000  Uiso   1.00
C892   C     0.48383   0.51095   0.93808   0.00000  Uiso   1.00
C893   C     0.51766   0.50765   0.51832   0.00000  Uiso   1.00
C894   C     0.57464   0.54176   0.99847   0.00000  Uiso   1.00
C895   C     0.58259   0.56382   0.95154   0.00000  Uiso   1.00
C896   C     0.53634   0.55007   0.92324   0.00000  Uiso   1.00
C897   C     0.50942   0.49008   0.56779   0.00000  Uiso   1.00
C898   C     0.61059   0.54009   0.57707   0.00000  Uiso   1.00
Cu899  Cu    0.44043   0.49439   0.74435   0.00000  Uiso   1.00
Cu900  Cu    0.55957   0.50561   0.75564   0.00000  Uiso   1.00
H901   H     0.64522   0.55465   0.60004   0.00000  Uiso   1.00
H902   H     0.36557   0.58202   0.83669   0.00000  Uiso   1.00
H903   H     0.61851   0.56519   0.83568   0.00000  Uiso   1.00
H904   H     0.37205   0.33539   0.82275   0.00000  Uiso   1.00
H905   H     0.66301   0.65398   0.77223   0.00000  Uiso   1.00
H906   H     0.56212   0.63645   0.83945   0.00000  Uiso   1.00
H907   H     0.60355   0.36838   0.83703   0.00000  Uiso   1.00
H908   H     0.60857   0.66125   0.88703   0.00000  Uiso   1.00
H909   H     0.61936   0.43001   0.91458   0.00000  Uiso   1.00
H910   H     0.65652   0.48678   0.87919   0.00000  Uiso   1.00
H911   H     0.34802   0.42458   0.86182   0.00000  Uiso   1.00
H912   H     0.43581   0.65467   0.73426   0.00000  Uiso   1.00
H913   H     0.62859   0.42257   0.57461   0.00000  Uiso   1.00
H914   H     0.66482   0.37328   0.53396   0.00000  Uiso   1.00
H915   H     0.52789   0.38245   0.54442   0.00000  Uiso   1.00
H916   H     0.56575   0.66437   0.51256   0.00000  Uiso   1.00
H917   H     0.58629   0.64417   0.59806   0.00000  Uiso   1.00
H918   H     0.50463   0.63531   0.59652   0.00000  Uiso   1.00
H919   H     0.54213   0.35955   0.62794   0.00000  Uiso   1.00
H920   H     0.66051   0.45050   0.72418   0.00000  Uiso   1.00
H921   H     0.62369   0.59295   0.93747   0.00000  Uiso   1.00
H922   H     0.66503   0.58192   0.51194   0.00000  Uiso   1.00
H923   H     0.46833   0.46279   0.58467   0.00000  Uiso   1.00
H924   H     0.39594   0.45812   0.54779   0.00000  Uiso   1.00
H925   H     0.53908   0.57214   0.89083   0.00000  Uiso   1.00
H926   H     0.56893   0.34548   0.75457   0.00000  Uiso   1.00
N927   N     0.64908   0.51407   0.76416   0.00000  Uiso   1.00
N928   N     0.35092   0.48593   0.73584   0.00000  Uiso   1.00
O929   O     0.46131   0.57141   0.74633   0.00000  Uiso   1.00
O930   O     0.63601   0.42912   0.99722   0.00000  Uiso   1.00
O931   O     0.56191   0.58089   0.75586   0.00000  Uiso   1.00
O932   O     0.42515   0.49293   0.81839   0.00000  Uiso   1.00
O933   O     0.52575   0.50241   0.82793   0.00000  Uiso   1.00
O934   O     0.43809   0.41911   0.74413   0.00000  Uiso   1.00
O935   O     0.53869   0.42859   0.75367   0.00000  Uiso   1.00
O936   O     0.47425   0.49759   0.67207   0.00000  Uiso   1.00
O937   O     0.57485   0.50707   0.68160   0.00000  Uiso   1.00
O938   O     0.34550   0.56447   0.76541   0.00000  Uiso   1.00
C939   C     0.84869   0.59984   0.74998   0.00000  Uiso   1.00
C940   C     0.77584   0.49212   0.90453   0.00000  Uiso   1.00
C941   C     0.85792   0.65561   0.74882   0.00000  Uiso   1.00
C942   C     0.79901   0.49694   0.84762   0.00000  Uiso   1.00
C943   C     0.81244   0.34444   0.74225   0.00000  Uiso   1.00
C944   C     0.81929   0.40017   0.74666   0.00000  Uiso   1.00
C945   C     0.86690   0.50278   0.65313   0.00000  Uiso   1.00
C946   C     0.95475   0.55610   0.52717   0.00000  Uiso   1.00
C947   C     0.88662   0.50903   0.59811   0.00000  Uiso   1.00
C948   C     0.71424   0.46545   0.92579   0.00000  Uiso   1.00
C949   C     0.69800   0.45230   0.97763   0.00000  Uiso   1.00
C950   C     0.80397   0.49363   0.98844   0.00000  Uiso   1.00
C951   C     0.74340   0.46602   0.50800   0.00000  Uiso   1.00
C952   C     0.99658   0.58609   0.81495   0.00000  Uiso   1.00
C953   C     0.99597   0.64472   0.81197   0.00000  Uiso   1.00
C954   C     0.93922   0.66170   0.84632   0.00000  Uiso   1.00
C955   C     0.99837   0.45089   0.89377   0.00000  Uiso   1.00
C956   C     0.96142   0.39736   0.53931   0.00000  Uiso   1.00
C957   C     0.89812   0.36007   0.54510   0.00000  Uiso   1.00
C958   C     0.88193   0.66467   0.59503   0.00000  Uiso   1.00
C959   C     0.81717   0.51095   0.93808   0.00000  Uiso   1.00
C960   C     0.85099   0.50765   0.51832   0.00000  Uiso   1.00
C961   C     0.90797   0.54176   0.99847   0.00000  Uiso   1.00
C962   C     0.91592   0.56382   0.95154   0.00000  Uiso   1.00
C963   C     0.86967   0.55007   0.92324   0.00000  Uiso   1.00
C964   C     0.84275   0.49008   0.56779   0.00000  Uiso   1.00
C965   C     0.94393   0.54009   0.57707   0.00000  Uiso   1.00
Cu966  Cu    0.77377   0.49439   0.74435   0.00000  Uiso   1.00
Cu967  Cu    0.89290   0.50561   0.75564   0.00000  Uiso   1.00
H968   H     0.97855   0.55465   0.60004   0.00000  Uiso   1.00
H969   H     0.69890   0.58202   0.83669   0.00000  Uiso   1.00
H970   H     0.95185   0.56519   0.83568   0.00000  Uiso   1.00
H971   H     0.70538   0.33539   0.82275   0.00000  Uiso   1.00
H972   H     0.99634   0.65398   0.77223   0.00000  Uiso   1.00
H973   H     0.89545   0.63645   0.83945   0.00000  Uiso   1.00
H974   H     0.93688   0.36838   0.83703   0.00000  Uiso   1.00
H975   H     0.94190   0.66125   0.88703   0.00000  Uiso   1.00
H976   H     0.95269   0.43001   0.91458   0.00000  Uiso   1.00
H977   H     0.98985   0.48678   0.87919   0.00000  Uiso   1.00
H978   H     0.68136   0.42458   0.86182   0.00000  Uiso   1.00
H979   H     0.76915   0.65467   0.73426   0.00000  Uiso   1.00
H980   H     0.96193   0.42257   0.57461   0.00000  Uiso   1.00
H981   H     0.99815   0.37328   0.53396   0.00000  Uiso   1.00
H982   H     0.86122   0.38245   0.54442   0.00000  Uiso   1.00
H983   H     0.89908   0.66437   0.51256   0.00000  Uiso   1.00
H984   H     0.91962   0.64417   0.59806   0.00000  Uiso   1.00
H985   H     0.83796   0.63531   0.59652   0.00000  Uiso   1.00
H986   H     0.87546   0.35955   0.62794   0.00000  Uiso   1.00
H987   H     0.99384   0.45050   0.72418   0.00000  Uiso   1.00
H988   H     0.95702   0.59295   0.93747   0.00000  Uiso   1.00
H989   H     0.99836   0.58192   0.51194   0.00000  Uiso   1.00
H990   H     0.80167   0.46279   0.58467   0.00000  Uiso   1.00
H991   H     0.72928   0.45812   0.54779   0.00000  Uiso   1.00
H992   H     0.87242   0.57214   0.89083   0.00000  Uiso   1.00
H993   H     0.90227   0.34548   0.75457   0.00000  Uiso   1.00
N994   N     0.98241   0.51407   0.76416   0.00000  Uiso   1.00
N995   N     0.68426   0.48593   0.73584   0.00000  Uiso   1.00
O996   O     0.79464   0.57141   0.74633   0.00000  Uiso   1.00
O997   O     0.96935   0.42912   0.99722   0.00000  Uiso   1.00
O998   O     0.89524   0.58089   0.75586   0.00000  Uiso   1.00
O999   O     0.75848   0.49293   0.81839   0.00000  Uiso   1.00
O1000  O     0.85908   0.50241   0.82793   0.00000  Uiso   1.00
O1001  O     0.77142   0.41911   0.74413   0.00000  Uiso   1.00
O1002  O     0.87203   0.42859   0.75367   0.00000  Uiso   1.00
O1003  O     0.80758   0.49759   0.67207   0.00000  Uiso   1.00
O1004  O     0.90819   0.50707   0.68160   0.00000  Uiso   1.00
O1005  O     0.67883   0.56447   0.76541   0.00000  Uiso   1.00
C1006  C     0.18202   0.93317   0.74998   0.00000  Uiso   1.00
C1007  C     0.10917   0.82545   0.90453   0.00000  Uiso   1.00
C1008  C     0.19125   0.98895   0.74882   0.00000  Uiso   1.00
C1009  C     0.13234   0.83028   0.84762   0.00000  Uiso   1.00
C1010  C     0.14578   0.67777   0.74225   0.00000  Uiso   1.00
C1011  C     0.15262   0.73350   0.74666   0.00000  Uiso   1.00
C1012  C     0.20023   0.83612   0.65313   0.00000  Uiso   1.00
C1013  C     0.28808   0.88943   0.52717   0.00000  Uiso   1.00
C1014  C     0.21996   0.84236   0.59811   0.00000  Uiso   1.00
C1015  C     0.04757   0.79878   0.92579   0.00000  Uiso   1.00
C1016  C     0.03133   0.78563   0.97763   0.00000  Uiso   1.00
C1017  C     0.13731   0.82696   0.98844   0.00000  Uiso   1.00
C1018  C     0.07673   0.79935   0.50800   0.00000  Uiso   1.00
C1019  C     0.32992   0.91942   0.81495   0.00000  Uiso   1.00
C1020  C     0.32931   0.97805   0.81197   0.00000  Uiso   1.00
C1021  C     0.27256   0.99503   0.84632   0.00000  Uiso   1.00
C1022  C     0.33170   0.78423   0.89377   0.00000  Uiso   1.00
C1023  C     0.29475   0.73069   0.53931   0.00000  Uiso   1.00
C1024  C     0.23145   0.69340   0.54510   0.00000  Uiso   1.00
C1025  C     0.21526   0.99800   0.59503   0.00000  Uiso   1.00
C1026  C     0.15050   0.84428   0.93808   0.00000  Uiso   1.00
C1027  C     0.18432   0.84098   0.51832   0.00000  Uiso   1.00
C1028  C     0.24131   0.87510   0.99847   0.00000  Uiso   1.00
C1029  C     0.24925   0.89715   0.95154   0.00000  Uiso   1.00
C1030  C     0.20300   0.88341   0.92324   0.00000  Uiso   1.00
C1031  C     0.17608   0.82341   0.56779   0.00000  Uiso   1.00
C1032  C     0.27726   0.87342   0.57707   0.00000  Uiso   1.00
Cu1033 Cu    0.10710   0.82772   0.74435   0.00000  Uiso   1.00
Cu1034 Cu    0.22623   0.83895   0.75564   0.00000  Uiso   1.00
H1035  H     0.31189   0.88798   0.60004   0.00000  Uiso   1.00
H1036  H     0.03224   0.91536   0.83669   0.00000  Uiso   1.00
H1037  H     0.28518   0.89852   0.83568   0.00000  Uiso   1.00
H1038  H     0.03871   0.66872   0.82275   0.00000  Uiso   1.00
H1039  H     0.32968   0.98731   0.77223   0.00000  Uiso   1.00
H1040  H     0.22878   0.96978   0.83945   0.00000  Uiso   1.00
H1041  H     0.27022   0.70171   0.83703   0.00000  Uiso   1.00
H1042  H     0.27524   0.99458   0.88703   0.00000  Uiso   1.00
H1043  H     0.28602   0.76335   0.91458   0.00000  Uiso   1.00
H1044  H     0.32318   0.82011   0.87919   0.00000  Uiso   1.00
H1045  H     0.01469   0.75791   0.86182   0.00000  Uiso   1.00
H1046  H     0.10248   0.98800   0.73426   0.00000  Uiso   1.00
H1047  H     0.29526   0.75591   0.57461   0.00000  Uiso   1.00
H1048  H     0.33148   0.70662   0.53396   0.00000  Uiso   1.00
H1049  H     0.19455   0.71579   0.54442   0.00000  Uiso   1.00
H1050  H     0.23241   0.99770   0.51256   0.00000  Uiso   1.00
H1051  H     0.25295   0.97750   0.59806   0.00000  Uiso   1.00
H1052  H     0.17129   0.96865   0.59652   0.00000  Uiso   1.00
H1053  H     0.20879   0.69288   0.62794   0.00000  Uiso   1.00
H1054  H     0.32717   0.78383   0.72418   0.00000  Uiso   1.00
H1055  H     0.29035   0.92628   0.93747   0.00000  Uiso   1.00
H1056  H     0.33169   0.91526   0.51194   0.00000  Uiso   1.00
H1057  H     0.13500   0.79612   0.58467   0.00000  Uiso   1.00
H1058  H     0.06261   0.79145   0.54779   0.00000  Uiso   1.00
H1059  H     0.20575   0.90547   0.89083   0.00000  Uiso   1.00
H1060  H     0.23560   0.67881   0.75457   0.00000  Uiso   1.00
N1061  N     0.31574   0.84741   0.76416   0.00000  Uiso   1.00
N1062  N     0.01759   0.81926   0.73584   0.00000  Uiso   1.00
O1063  O     0.12797   0.90474   0.74633   0.00000  Uiso   1.00
O1064  O     0.30268   0.76245   0.99722   0.00000  Uiso   1.00
O1065  O     0.22858   0.91422   0.75586   0.00000  Uiso   1.00
O1066  O     0.09181   0.82627   0.81839   0.00000  Uiso   1.00
O1067  O     0.19242   0.83575   0.82793   0.00000  Uiso   1.00
O1068  O     0.10476   0.75245   0.74413   0.00000  Uiso   1.00
O1069  O     0.20536   0.76193   0.75367   0.00000  Uiso   1.00
O1070  O     0.14092   0.83092   0.67207   0.00000  Uiso   1.00
O1071  O     0.24152   0.84040   0.68160   0.00000  Uiso   1.00
O1072  O     0.01217   0.89780   0.76541   0.00000  Uiso   1.00
C1073  C     0.51536   0.93317   0.74998   0.00000  Uiso   1.00
C1074  C     0.44251   0.82545   0.90453   0.00000  Uiso   1.00
C1075  C     0.52458   0.98895   0.74882   0.00000  Uiso   1.00
C1076  C     0.46567   0.83028   0.84762   0.00000  Uiso   1.00
C1077  C     0.47911   0.67777   0.74225   0.00000  Uiso   1.00
C1078  C     0.48596   0.73350   0.74666   0.00000  Uiso   1.00
C1079  C     0.53356   0.83612   0.65313   0.00000  Uiso   1.00
C1080  C     0.62141   0.88943   0.52717   0.00000  Uiso   1.00
C1081  C     0.55329   0.84236   0.59811   0.00000  Uiso   1.00
C1082  C     0.38091   0.79878   0.92579   0.00000  Uiso   1.00
C1083  C     0.36466   0.78563   0.97763   0.00000  Uiso   1.00
C1084  C     0.47064   0.82696   0.98844   0.00000  Uiso   1.00
C1085  C     0.41006   0.79935   0.50800   0.00000  Uiso   1.00
C1086  C     0.66325   0.91942   0.81495   0.00000  Uiso   1.00
C1087  C     0.66264   0.97805   0.81197   0.00000  Uiso   1.00
C1088  C     0.60589   0.99503   0.84632   0.00000  Uiso   1.00
C1089  C     0.66503   0.78423   0.89377   0.00000  Uiso   1.00
C1090  C     0.62808   0.73069   0.53931   0.00000  Uiso   1.00
C1091  C     0.56478   0.69340   0.54510   0.00000  Uiso   1.00
C1092  C     0.54860   0.99800   0.59503   0.00000  Uiso   1.00
C1093  C     0.48383   0.84428   0.93808   0.00000  Uiso   1.00
C1094  C     0.51766   0.84098   0.51832   0.00000  Uiso   1.00
C1095  C     0.57464   0.87510   0.99847   0.00000  Uiso   1.00
C1096  C     0.58259   0.89715   0.95154   0.00000  Uiso   1.00
C1097  C     0.53634   0.88341   0.92324   0.00000  Uiso   1.00
C1098  C     0.50942   0.82341   0.56779   0.00000  Uiso   1.00
C1099  C     0.61059   0.87342   0.57707   0.00000  Uiso   1.00
Cu1100 Cu    0.44043   0.82772   0.74435   0.00000  Uiso   1.00
Cu1101 Cu    0.55957   0.83895   0.75564   0.00000  Uiso   1.00
H1102  H     0.64522   0.88798   0.60004   0.00000  Uiso   1.00
H1103  H     0.36557   0.91536   0.83669   0.00000  Uiso   1.00
H1104  H     0.61851   0.89852   0.83568   0.00000  Uiso   1.00
H1105  H     0.37205   0.66872   0.82275   0.00000  Uiso   1.00
H1106  H     0.66301   0.98731   0.77223   0.00000  Uiso   1.00
H1107  H     0.56212   0.96978   0.83945   0.00000  Uiso   1.00
H1108  H     0.60355   0.70171   0.83703   0.00000  Uiso   1.00
H1109  H     0.60857   0.99458   0.88703   0.00000  Uiso   1.00
H1110  H     0.61936   0.76335   0.91458   0.00000  Uiso   1.00
H1111  H     0.65652   0.82011   0.87919   0.00000  Uiso   1.00
H1112  H     0.34802   0.75791   0.86182   0.00000  Uiso   1.00
H1113  H     0.43581   0.98800   0.73426   0.00000  Uiso   1.00
H1114  H     0.62859   0.75591   0.57461   0.00000  Uiso   1.00
H1115  H     0.66482   0.70662   0.53396   0.00000  Uiso   1.00
H1116  H     0.52789   0.71579   0.54442   0.00000  Uiso   1.00
H1117  H     0.56575   0.99770   0.51256   0.00000  Uiso   1.00
H1118  H     0.58629   0.97750   0.59806   0.00000  Uiso   1.00
H1119  H     0.50463   0.96865   0.59652   0.00000  Uiso   1.00
H1120  H     0.54213   0.69288   0.62794   0.00000  Uiso   1.00
H1121  H     0.66051   0.78383   0.72418   0.00000  Uiso   1.00
H1122  H     0.62369   0.92628   0.93747   0.00000  Uiso   1.00
H1123  H     0.66503   0.91526   0.51194   0.00000  Uiso   1.00
H1124  H     0.46833   0.79612   0.58467   0.00000  Uiso   1.00
H1125  H     0.39594   0.79145   0.54779   0.00000  Uiso   1.00
H1126  H     0.53908   0.90547   0.89083   0.00000  Uiso   1.00
H1127  H     0.56893   0.67881   0.75457   0.00000  Uiso   1.00
N1128  N     0.64908   0.84741   0.76416   0.00000  Uiso   1.00
N1129  N     0.35092   0.81926   0.73584   0.00000  Uiso   1.00
O1130  O     0.46131   0.90474   0.74633   0.00000  Uiso   1.00
O1131  O     0.63601   0.76245   0.99722   0.00000  Uiso   1.00
O1132  O     0.56191   0.91422   0.75586   0.00000  Uiso   1.00
O1133  O     0.42515   0.82627   0.81839   0.00000  Uiso   1.00
O1134  O     0.52575   0.83575   0.82793   0.00000  Uiso   1.00
O1135  O     0.43809   0.75245   0.74413   0.00000  Uiso   1.00
O1136  O     0.53869   0.76193   0.75367   0.00000  Uiso   1.00
O1137  O     0.47425   0.83092   0.67207   0.00000  Uiso   1.00
O1138  O     0.57485   0.84040   0.68160   0.00000  Uiso   1.00
O1139  O     0.34550   0.89780   0.76541   0.00000  Uiso   1.00
C1140  C     0.84869   0.93317   0.74998   0.00000  Uiso   1.00
C1141  C     0.77584   0.82545   0.90453   0.00000  Uiso   1.00
C1142  C     0.85792   0.98895   0.74882   0.00000  Uiso   1.00
C1143  C     0.79901   0.83028   0.84762   0.00000  Uiso   1.00
C1144  C     0.81244   0.67777   0.74225   0.00000  Uiso   1.00
C1145  C     0.81929   0.73350   0.74666   0.00000  Uiso   1.00
C1146  C     0.86690   0.83612   0.65313   0.00000  Uiso   1.00
C1147  C     0.95475   0.88943   0.52717   0.00000  Uiso   1.00
C1148  C     0.88662   0.84236   0.59811   0.00000  Uiso   1.00
C1149  C     0.71424   0.79878   0.92579   0.00000  Uiso   1.00
C1150  C     0.69800   0.78563   0.97763   0.00000  Uiso   1.00
C1151  C     0.80397   0.82696   0.98844   0.00000  Uiso   1.00
C1152  C     0.74340   0.79935   0.50800   0.00000  Uiso   1.00
C1153  C     0.99658   0.91942   0.81495   0.00000  Uiso   1.00
C1154  C     0.99597   0.97805   0.81197   0.00000  Uiso   1.00
C1155  C     0.93922   0.99503   0.84632   0.00000  Uiso   1.00
C1156  C     0.99837   0.78423   0.89377   0.00000  Uiso   1.00
C1157  C     0.96142   0.73069   0.53931   0.00000  Uiso   1.00
C1158  C     0.89812   0.69340   0.54510   0.00000  Uiso   1.00
C1159  C     0.88193   0.99800   0.59503   0.00000  Uiso   1.00
C1160  C     0.81717   0.84428   0.93808   0.00000  Uiso   1.00
C1161  C     0.85099   0.84098   0.51832   0.00000  Uiso   1.00
C1162  C     0.90797   0.87510   0.99847   0.00000  Uiso   1.00
C1163  C     0.91592   0.89715   0.95154   0.00000  Uiso   1.00
C1164  C     0.86967   0.88341   0.92324   0.00000  Uiso   1.00
C1165  C     0.84275   0.82341   0.56779   0.00000  Uiso   1.00
C1166  C     0.94393   0.87342   0.57707   0.00000  Uiso   1.00
Cu1167 Cu    0.77377   0.82772   0.74435   0.00000  Uiso   1.00
Cu1168 Cu    0.89290   0.83895   0.75564   0.00000  Uiso   1.00
H1169  H     0.97855   0.88798   0.60004   0.00000  Uiso   1.00
H1170  H     0.69890   0.91536   0.83669   0.00000  Uiso   1.00
H1171  H     0.95185   0.89852   0.83568   0.00000  Uiso   1.00
H1172  H     0.70538   0.66872   0.82275   0.00000  Uiso   1.00
H1173  H     0.99634   0.98731   0.77223   0.00000  Uiso   1.00
H1174  H     0.89545   0.96978   0.83945   0.00000  Uiso   1.00
H1175  H     0.93688   0.70171   0.83703   0.00000  Uiso   1.00
H1176  H     0.94190   0.99458   0.88703   0.00000  Uiso   1.00
H1177  H     0.95269   0.76335   0.91458   0.00000  Uiso   1.00
H1178  H     0.98985   0.82011   0.87919   0.00000  Uiso   1.00
H1179  H     0.68136   0.75791   0.86182   0.00000  Uiso   1.00
H1180  H     0.76915   0.98800   0.73426   0.00000  Uiso   1.00
H1181  H     0.96193   0.75591   0.57461   0.00000  Uiso   1.00
H1182  H     0.99815   0.70662   0.53396   0.00000  Uiso   1.00
H1183  H     0.86122   0.71579   0.54442   0.00000  Uiso   1.00
H1184  H     0.89908   0.99770   0.51256   0.00000  Uiso   1.00
H1185  H     0.91962   0.97750   0.59806   0.00000  Uiso   1.00
H1186  H     0.83796   0.96865   0.59652   0.00000  Uiso   1.00
H1187  H     0.87546   0.69288   0.62794   0.00000  Uiso   1.00
H1188  H     0.99384   0.78383   0.72418   0.00000  Uiso   1.00
H1189  H     0.95702   0.92628   0.93747   0.00000  Uiso   1.00
H1190  H     0.99836   0.91526   0.51194   0.00000  Uiso   1.00
H1191  H     0.80167   0.79612   0.58467   0.00000  Uiso   1.00
H1192  H     0.72928   0.79145   0.54779   0.00000  Uiso   1.00
H1193  H     0.87242   0.90547   0.89083   0.00000  Uiso   1.00
H1194  H     0.90227   0.67881   0.75457   0.00000  Uiso   1.00
N1195  N     0.98241   0.84741   0.76416   0.00000  Uiso   1.00
N1196  N     0.68426   0.81926   0.73584   0.00000  Uiso   1.00
O1197  O     0.79464   0.90474   0.74633   0.00000  Uiso   1.00
O1198  O     0.96935   0.76245   0.99722   0.00000  Uiso   1.00
O1199  O     0.89524   0.91422   0.75586   0.00000  Uiso   1.00
O1200  O     0.75848   0.82627   0.81839   0.00000  Uiso   1.00
O1201  O     0.85908   0.83575   0.82793   0.00000  Uiso   1.00
O1202  O     0.77142   0.75245   0.74413   0.00000  Uiso   1.00
O1203  O     0.87203   0.76193   0.75367   0.00000  Uiso   1.00
O1204  O     0.80758   0.83092   0.67207   0.00000  Uiso   1.00
O1205  O     0.90819   0.84040   0.68160   0.00000  Uiso   1.00
O1206  O     0.67883   0.89780   0.76541   0.00000  Uiso   1.00
loop_
_geom_bond_atom_site_label_1
_geom_bond_atom_site_label_2
_geom_bond_distance
_geom_bond_site_symmetry_2
_ccdc_geom_bond_type
C1     O58     1.301   .     A
C1     O60     1.287   .     A
C1     C3      1.430   .     S
C2     C4      1.512   .     S
C2     C21     1.418   .     A
C2     C10     1.429   .     A
C3     C206    1.320   .     S
C3     H256    1.086   .     S
C4     O62     1.319   .     A
C4     O61     1.306   .     A
C5     C6      1.430   .     S
C5     C405    1.320   1_545 S
C5     H443    1.085   1_545 S
C6     O63     1.287   .     A
C6     O64     1.300   .     A
C7     O65     1.300   .     A
C7     C9      1.461   .     S
C7     O66     1.304   .     A
C8     H51     1.084   .     S
C8     C27     1.392   .     A
C8     C626    1.404   1_554 S
C9     C26     1.397   .     A
C9     C27     1.398   .     A
C10    C11     1.413   .     A
C10    C151    1.510   1_455 S
C11    C616    1.410   .     S
C11    O193    1.400   1_455 S
C12    C21     1.412   .     A
C12    C616    1.409   .     S
C12    C625    1.430   .     S
C13    H53     1.072   .     S
C13    C615    1.409   1_554 S
C13    C614    1.410   1_554 S
C14    C15     1.543   .     S
C14    H32     1.093   .     S
C14    H98     1.111   .     S
C14    O134    1.407   .     S
C15    H34     1.111   .     S
C15    C16     1.528   .     S
C15    H301    1.111   .     S
C16    H37     1.109   .     S
C16    H35     1.105   .     S
C16    H237    1.107   .     S
C17    H38     1.108   .     S
C17    H39     1.110   .     S
C17    C77     1.510   .     S
C17    H107    1.105   .     S
C18    H42     1.112   .     S
C18    C19     1.529   .     S
C18    H43     1.115   .     S
C18    O662    1.414   1_554 S
C19    H44     1.111   .     S
C19    C422    1.527   1_545 S
C19    H447    1.111   1_545 S
C20    H46     1.110   .     S
C20    H47     1.111   .     S
C20    C220    1.527   .     S
C20    H249    1.111   .     S
C21    C25     1.396   .     A
C22    C26     1.403   .     A
C22    C615    1.430   1_554 S
C22    C626    1.420   1_554 S
C23    C24     1.389   .     A
C23    C625    1.420   .     S
C23    C611    1.404   .     S
C24    C25     1.386   .     A
C24    H50     1.083   .     S
C25    H54     1.065   .     S
C26    H52     1.077   .     S
C27    H30     1.083   .     S
Cu28   O61     1.947   .     S
Cu28   O65     1.930   .     S
Cu28   N57     2.031   .     S
Cu28   Cu29    2.703   .     S
Cu28   O58     1.967   .     S
Cu28   O63     1.955   .     S
Cu29   O62     1.930   .     S
Cu29   N56     2.031   .     S
Cu29   O60     1.955   .     S
Cu29   O64     1.967   .     S
Cu29   O66     1.947   .     S
H31    C148    1.111   1_455 S
H33    C551    1.111   1_445 S
H36    C418    1.107   1_545 S
H40    C151    1.105   1_455 S
H41    C206    1.085   .     S
H45    C220    1.111   .     S
H48    C422    1.111   1_545 S
H49    N124    1.029   .     S
H55    C405    1.086   1_545 S
N56    N124    1.280   .     S
N56    O134    1.347   .     S
N57    H183    1.029   1_455 S
N57    N190    1.280   1_455 S
O59    C78     1.400   .     S
O59    C621    1.414   .     S
O67    C148    1.407   1_455 S
O67    N190    1.347   1_455 S
C68    O125    1.301   .     A
C68    O127    1.287   .     A
C68    C70     1.430   .     S
C69    C71     1.512   .     S
C69    C88     1.418   .     A
C69    C77     1.429   .     A
C70    C273    1.320   .     S
C70    H323    1.086   .     S
C71    O129    1.319   .     A
C71    O128    1.306   .     A
C72    C73     1.430   .     S
C72    C472    1.320   1_545 S
C72    H510    1.085   1_545 S
C73    O130    1.287   .     A
C73    O131    1.300   .     A
C74    O132    1.300   .     A
C74    C76     1.461   .     S
C74    O133    1.304   .     A
C75    H118    1.084   .     S
C75    C94     1.392   .     A
C75    C693    1.404   1_554 S
C76    C93     1.397   .     A
C76    C94     1.398   .     A
C77    C78     1.413   .     A
C78    C683    1.410   .     S
C79    C88     1.412   .     A
C79    C683    1.409   .     S
C79    C692    1.430   .     S
C80    H120    1.072   .     S
C80    C682    1.409   1_554 S
C80    C681    1.410   1_554 S
C81    C82     1.543   .     S
C81    H99     1.093   .     S
C81    H165    1.111   .     S
C81    O201    1.407   .     S
C82    H101    1.111   .     S
C82    C83     1.528   .     S
C82    H368    1.111   .     S
C83    H104    1.109   .     S
C83    H102    1.105   .     S
C83    H304    1.107   .     S
C84    H105    1.108   .     S
C84    H106    1.110   .     S
C84    C144    1.510   .     S
C84    H174    1.105   .     S
C85    H109    1.112   .     S
C85    C86     1.529   .     S
C85    H110    1.115   .     S
C85    O729    1.414   1_554 S
C86    H111    1.111   .     S
C86    C489    1.527   1_545 S
C86    H514    1.111   1_545 S
C87    H113    1.110   .     S
C87    H114    1.111   .     S
C87    C287    1.527   .     S
C87    H316    1.111   .     S
C88    C92     1.396   .     A
C89    C93     1.403   .     A
C89    C682    1.430   1_554 S
C89    C693    1.420   1_554 S
C90    C91     1.389   .     A
C90    C692    1.420   .     S
C90    C678    1.404   .     S
C91    C92     1.386   .     A
C91    H117    1.083   .     S
C92    H121    1.065   .     S
C93    H119    1.077   .     S
C94    H97     1.083   .     S
Cu95   O128    1.947   .     S
Cu95   O132    1.930   .     S
Cu95   N124    2.031   .     S
Cu95   Cu96    2.703   .     S
Cu95   O125    1.967   .     S
Cu95   O130    1.955   .     S
Cu96   O129    1.930   .     S
Cu96   N123    2.031   .     S
Cu96   O127    1.955   .     S
Cu96   O131    1.967   .     S
Cu96   O133    1.947   .     S
H100   C417    1.111   1_545 S
H103   C485    1.107   1_545 S
H108   C273    1.085   .     S
H112   C287    1.111   .     S
H115   C489    1.111   1_545 S
H116   N191    1.029   .     S
H122   C472    1.086   1_545 S
N123   N191    1.280   .     S
N123   O201    1.347   .     S
O126   C145    1.400   .     S
O126   C688    1.414   .     S
C135   O192    1.301   .     A
C135   O194    1.287   .     A
C135   C137    1.430   .     S
C136   C138    1.512   .     S
C136   C155    1.418   .     A
C136   C144    1.429   .     A
C137   C340    1.320   .     S
C137   H390    1.086   .     S
C138   O196    1.319   .     A
C138   O195    1.306   .     A
C139   C140    1.430   .     S
C139   C539    1.320   1_545 S
C139   H577    1.085   1_545 S
C140   O197    1.287   .     A
C140   O198    1.300   .     A
C141   O199    1.300   .     A
C141   C143    1.461   .     S
C141   O200    1.304   .     A
C142   H185    1.084   .     S
C142   C161    1.392   .     A
C142   C760    1.404   1_554 S
C143   C160    1.397   .     A
C143   C161    1.398   .     A
C144   C145    1.413   .     A
C145   C750    1.410   .     S
C146   C155    1.412   .     A
C146   C750    1.409   .     S
C146   C759    1.430   .     S
C147   H187    1.072   .     S
C147   C749    1.409   1_554 S
C147   C748    1.410   1_554 S
C148   C149    1.543   .     S
C148   H166    1.093   .     S
C148   H31     1.111   1_655 S
C148   O67     1.407   1_655 S
C149   H168    1.111   .     S
C149   C150    1.528   .     S
C149   H234    1.111   1_655 S
C150   H171    1.109   .     S
C150   H169    1.105   .     S
C150   H371    1.107   .     S
C151   H172    1.108   .     S
C151   H173    1.110   .     S
C151   C10     1.510   1_655 S
C151   H40     1.105   1_655 S
C152   H176    1.112   .     S
C152   C153    1.529   .     S
C152   H177    1.115   .     S
C152   O796    1.414   1_554 S
C153   H178    1.111   .     S
C153   C556    1.527   1_545 S
C153   H581    1.111   1_545 S
C154   H180    1.110   .     S
C154   H181    1.111   .     S
C154   C354    1.527   .     S
C154   H383    1.111   .     S
C155   C159    1.396   .     A
C156   C160    1.403   .     A
C156   C749    1.430   1_554 S
C156   C760    1.420   1_554 S
C157   C158    1.389   .     A
C157   C759    1.420   .     S
C157   C745    1.404   .     S
C158   C159    1.386   .     A
C158   H184    1.083   .     S
C159   H188    1.065   .     S
C160   H186    1.077   .     S
C161   H164    1.083   .     S
Cu162  O195    1.947   .     S
Cu162  O199    1.930   .     S
Cu162  N191    2.031   .     S
Cu162  Cu163   2.703   .     S
Cu162  O192    1.967   .     S
Cu162  O197    1.955   .     S
Cu163  O196    1.930   .     S
Cu163  N190    2.031   .     S
Cu163  O194    1.955   .     S
Cu163  O198    1.967   .     S
Cu163  O200    1.947   .     S
H167   C484    1.111   1_545 S
H170   C552    1.107   1_545 S
H175   C340    1.085   .     S
H179   C354    1.111   .     S
H182   C556    1.111   1_545 S
H183   N57     1.029   1_655 S
H189   C539    1.086   1_545 S
N190   N57     1.280   1_655 S
N190   O67     1.347   1_655 S
O193   C11     1.400   1_655 S
O193   C755    1.414   .     S
C202   O259    1.301   .     A
C202   O261    1.287   .     A
C202   C204    1.430   .     S
C203   C205    1.512   .     S
C203   C222    1.418   .     A
C203   C211    1.429   .     A
C204   C407    1.320   .     S
C204   H457    1.086   .     S
C205   O263    1.319   .     A
C205   O262    1.306   .     A
C206   C207    1.430   .     S
C207   O264    1.287   .     A
C207   O265    1.300   .     A
C208   O266    1.300   .     A
C208   C210    1.461   .     S
C208   O267    1.304   .     A
C209   H252    1.084   .     S
C209   C228    1.392   .     A
C209   C827    1.404   1_554 S
C210   C227    1.397   .     A
C210   C228    1.398   .     A
C211   C212    1.413   .     A
C211   C352    1.510   1_455 S
C212   C817    1.410   .     S
C212   O394    1.400   1_455 S
C213   C222    1.412   .     A
C213   C817    1.409   .     S
C213   C826    1.430   .     S
C214   H254    1.072   .     S
C214   C816    1.409   1_554 S
C214   C815    1.410   1_554 S
C215   C216    1.543   .     S
C215   H233    1.093   .     S
C215   H299    1.111   .     S
C215   O335    1.407   .     S
C216   H235    1.111   .     S
C216   C217    1.528   .     S
C216   H502    1.111   .     S
C217   H238    1.109   .     S
C217   H236    1.105   .     S
C217   H438    1.107   .     S
C218   H239    1.108   .     S
C218   H240    1.110   .     S
C218   C278    1.510   .     S
C218   H308    1.105   .     S
C219   H243    1.112   .     S
C219   C220    1.529   .     S
C219   H244    1.115   .     S
C219   O863    1.414   1_554 S
C220   H245    1.111   .     S
C221   H247    1.110   .     S
C221   H248    1.111   .     S
C221   C421    1.527   .     S
C221   H450    1.111   .     S
C222   C226    1.396   .     A
C223   C227    1.403   .     A
C223   C816    1.430   1_554 S
C223   C827    1.420   1_554 S
C224   C225    1.389   .     A
C224   C826    1.420   .     S
C224   C812    1.404   .     S
C225   C226    1.386   .     A
C225   H251    1.083   .     S
C226   H255    1.065   .     S
C227   H253    1.077   .     S
C228   H231    1.083   .     S
Cu229  O262    1.947   .     S
Cu229  O266    1.930   .     S
Cu229  N258    2.031   .     S
Cu229  Cu230   2.703   .     S
Cu229  O259    1.967   .     S
Cu229  O264    1.955   .     S
Cu230  O263    1.930   .     S
Cu230  N257    2.031   .     S
Cu230  O261    1.955   .     S
Cu230  O265    1.967   .     S
Cu230  O267    1.947   .     S
H232   C349    1.111   1_455 S
H234   C149    1.111   1_455 S
H241   C352    1.105   1_455 S
H242   C407    1.085   .     S
H246   C421    1.111   .     S
H250   N325    1.029   .     S
N257   N325    1.280   .     S
N257   O335    1.347   .     S
N258   H384    1.029   1_455 S
N258   N391    1.280   1_455 S
O260   C279    1.400   .     S
O260   C822    1.414   .     S
O268   C349    1.407   1_455 S
O268   N391    1.347   1_455 S
C269   O326    1.301   .     A
C269   O328    1.287   .     A
C269   C271    1.430   .     S
C270   C272    1.512   .     S
C270   C289    1.418   .     A
C270   C278    1.429   .     A
C271   C474    1.320   .     S
C271   H524    1.086   .     S
C272   O330    1.319   .     A
C272   O329    1.306   .     A
C273   C274    1.430   .     S
C274   O331    1.287   .     A
C274   O332    1.300   .     A
C275   O333    1.300   .     A
C275   C277    1.461   .     S
C275   O334    1.304   .     A
C276   H319    1.084   .     S
C276   C295    1.392   .     A
C276   C894    1.404   1_554 S
C277   C294    1.397   .     A
C277   C295    1.398   .     A
C278   C279    1.413   .     A
C279   C884    1.410   .     S
C280   C289    1.412   .     A
C280   C884    1.409   .     S
C280   C893    1.430   .     S
C281   H321    1.072   .     S
C281   C883    1.409   1_554 S
C281   C882    1.410   1_554 S
C282   C283    1.543   .     S
C282   H300    1.093   .     S
C282   H366    1.111   .     S
C282   O402    1.407   .     S
C283   H302    1.111   .     S
C283   C284    1.528   .     S
C283   H569    1.111   .     S
C284   H305    1.109   .     S
C284   H303    1.105   .     S
C284   H505    1.107   .     S
C285   H306    1.108   .     S
C285   H307    1.110   .     S
C285   C345    1.510   .     S
C285   H375    1.105   .     S
C286   H310    1.112   .     S
C286   C287    1.529   .     S
C286   H311    1.115   .     S
C286   O930    1.414   1_554 S
C287   H312    1.111   .     S
C288   H314    1.110   .     S
C288   H315    1.111   .     S
C288   C488    1.527   .     S
C288   H517    1.111   .     S
C289   C293    1.396   .     A
C290   C294    1.403   .     A
C290   C883    1.430   1_554 S
C290   C894    1.420   1_554 S
C291   C292    1.389   .     A
C291   C893    1.420   .     S
C291   C879    1.404   .     S
C292   C293    1.386   .     A
C292   H318    1.083   .     S
C293   H322    1.065   .     S
C294   H320    1.077   .     S
C295   H298    1.083   .     S
Cu296  O329    1.947   .     S
Cu296  O333    1.930   .     S
Cu296  N325    2.031   .     S
Cu296  Cu297   2.703   .     S
Cu296  O326    1.967   .     S
Cu296  O331    1.955   .     S
Cu297  O330    1.930   .     S
Cu297  N324    2.031   .     S
Cu297  O328    1.955   .     S
Cu297  O332    1.967   .     S
Cu297  O334    1.947   .     S
H309   C474    1.085   .     S
H313   C488    1.111   .     S
H317   N392    1.029   .     S
N324   N392    1.280   .     S
N324   O402    1.347   .     S
O327   C346    1.400   .     S
O327   C889    1.414   .     S
C336   O393    1.301   .     A
C336   O395    1.287   .     A
C336   C338    1.430   .     S
C337   C339    1.512   .     S
C337   C356    1.418   .     A
C337   C345    1.429   .     A
C338   C541    1.320   .     S
C338   H591    1.086   .     S
C339   O397    1.319   .     A
C339   O396    1.306   .     A
C340   C341    1.430   .     S
C341   O398    1.287   .     A
C341   O399    1.300   .     A
C342   O400    1.300   .     A
C342   C344    1.461   .     S
C342   O401    1.304   .     A
C343   H386    1.084   .     S
C343   C362    1.392   .     A
C343   C961    1.404   1_554 S
C344   C361    1.397   .     A
C344   C362    1.398   .     A
C345   C346    1.413   .     A
C346   C951    1.410   .     S
C347   C356    1.412   .     A
C347   C951    1.409   .     S
C347   C960    1.430   .     S
C348   H388    1.072   .     S
C348   C950    1.409   1_554 S
C348   C949    1.410   1_554 S
C349   C350    1.543   .     S
C349   H367    1.093   .     S
C349   H232    1.111   1_655 S
C349   O268    1.407   1_655 S
C350   H369    1.111   .     S
C350   C351    1.528   .     S
C350   H435    1.111   1_655 S
C351   H372    1.109   .     S
C351   H370    1.105   .     S
C351   H572    1.107   .     S
C352   H373    1.108   .     S
C352   H374    1.110   .     S
C352   C211    1.510   1_655 S
C352   H241    1.105   1_655 S
C353   H377    1.112   .     S
C353   C354    1.529   .     S
C353   H378    1.115   .     S
C353   O997    1.414   1_554 S
C354   H379    1.111   .     S
C355   H381    1.110   .     S
C355   H382    1.111   .     S
C355   C555    1.527   .     S
C355   H584    1.111   .     S
C356   C360    1.396   .     A
C357   C361    1.403   .     A
C357   C950    1.430   1_554 S
C357   C961    1.420   1_554 S
C358   C359    1.389   .     A
C358   C960    1.420   .     S
C358   C946    1.404   .     S
C359   C360    1.386   .     A
C359   H385    1.083   .     S
C360   H389    1.065   .     S
C361   H387    1.077   .     S
C362   H365    1.083   .     S
Cu363  O396    1.947   .     S
Cu363  O400    1.930   .     S
Cu363  N392    2.031   .     S
Cu363  Cu364   2.703   .     S
Cu363  O393    1.967   .     S
Cu363  O398    1.955   .     S
Cu364  O397    1.930   .     S
Cu364  N391    2.031   .     S
Cu364  O395    1.955   .     S
Cu364  O399    1.967   .     S
Cu364  O401    1.947   .     S
H376   C541    1.085   .     S
H380   C555    1.111   .     S
H384   N258    1.029   1_655 S
N391   N258    1.280   1_655 S
N391   O268    1.347   1_655 S
O394   C212    1.400   1_655 S
O394   C956    1.414   .     S
C403   O460    1.301   .     A
C403   O462    1.287   .     A
C403   C405    1.430   .     S
C404   C406    1.512   .     S
C404   C423    1.418   .     A
C404   C412    1.429   .     A
C405   C5      1.320   1_565 S
C405   H55     1.086   1_565 S
C406   O464    1.319   .     A
C406   O463    1.306   .     A
C407   C408    1.430   .     S
C408   O465    1.287   .     A
C408   O466    1.300   .     A
C409   O467    1.300   .     A
C409   C411    1.461   .     S
C409   O468    1.304   .     A
C410   H453    1.084   .     S
C410   C429    1.392   .     A
C410   C1028   1.404   1_554 S
C411   C428    1.397   .     A
C411   C429    1.398   .     A
C412   C413    1.413   .     A
C412   C553    1.510   1_455 S
C413   C1018   1.410   .     S
C413   O595    1.400   1_455 S
C414   C423    1.412   .     A
C414   C1018   1.409   .     S
C414   C1027   1.430   .     S
C415   H455    1.072   .     S
C415   C1017   1.409   1_554 S
C415   C1016   1.410   1_554 S
C416   C417    1.543   .     S
C416   H434    1.093   .     S
C416   H500    1.111   .     S
C416   O536    1.407   .     S
C417   H436    1.111   .     S
C417   C418    1.528   .     S
C417   H100    1.111   1_565 S
C418   H439    1.109   .     S
C418   H437    1.105   .     S
C418   H36     1.107   1_565 S
C419   H440    1.108   .     S
C419   H441    1.110   .     S
C419   C479    1.510   .     S
C419   H509    1.105   .     S
C420   H444    1.112   .     S
C420   C421    1.529   .     S
C420   H445    1.115   .     S
C420   O1064   1.414   1_554 S
C421   H446    1.111   .     S
C422   H448    1.110   .     S
C422   H449    1.111   .     S
C422   C19     1.527   1_565 S
C422   H48     1.111   1_565 S
C423   C427    1.396   .     A
C424   C428    1.403   .     A
C424   C1017   1.430   1_554 S
C424   C1028   1.420   1_554 S
C425   C426    1.389   .     A
C425   C1027   1.420   .     S
C425   C1013   1.404   .     S
C426   C427    1.386   .     A
C426   H452    1.083   .     S
C427   H456    1.065   .     S
C428   H454    1.077   .     S
C429   H432    1.083   .     S
Cu430  O463    1.947   .     S
Cu430  O467    1.930   .     S
Cu430  N459    2.031   .     S
Cu430  Cu431   2.703   .     S
Cu430  O460    1.967   .     S
Cu430  O465    1.955   .     S
Cu431  O464    1.930   .     S
Cu431  N458    2.031   .     S
Cu431  O462    1.955   .     S
Cu431  O466    1.967   .     S
Cu431  O468    1.947   .     S
H433   C550    1.111   1_455 S
H435   C350    1.111   1_455 S
H442   C553    1.105   1_455 S
H443   C5      1.085   1_565 S
H447   C19     1.111   1_565 S
H451   N526    1.029   .     S
N458   N526    1.280   .     S
N458   O536    1.347   .     S
N459   H585    1.029   1_455 S
N459   N592    1.280   1_455 S
O461   C480    1.400   .     S
O461   C1023   1.414   .     S
O469   C550    1.407   1_455 S
O469   N592    1.347   1_455 S
C470   O527    1.301   .     A
C470   O529    1.287   .     A
C470   C472    1.430   .     S
C471   C473    1.512   .     S
C471   C490    1.418   .     A
C471   C479    1.429   .     A
C472   C72     1.320   1_565 S
C472   H122    1.086   1_565 S
C473   O531    1.319   .     A
C473   O530    1.306   .     A
C474   C475    1.430   .     S
C475   O532    1.287   .     A
C475   O533    1.300   .     A
C476   O534    1.300   .     A
C476   C478    1.461   .     S
C476   O535    1.304   .     A
C477   H520    1.084   .     S
C477   C496    1.392   .     A
C477   C1095   1.404   1_554 S
C478   C495    1.397   .     A
C478   C496    1.398   .     A
C479   C480    1.413   .     A
C480   C1085   1.410   .     S
C481   C490    1.412   .     A
C481   C1085   1.409   .     S
C481   C1094   1.430   .     S
C482   H522    1.072   .     S
C482   C1084   1.409   1_554 S
C482   C1083   1.410   1_554 S
C483   C484    1.543   .     S
C483   H501    1.093   .     S
C483   H567    1.111   .     S
C483   O603    1.407   .     S
C484   H503    1.111   .     S
C484   C485    1.528   .     S
C484   H167    1.111   1_565 S
C485   H506    1.109   .     S
C485   H504    1.105   .     S
C485   H103    1.107   1_565 S
C486   H507    1.108   .     S
C486   H508    1.110   .     S
C486   C546    1.510   .     S
C486   H576    1.105   .     S
C487   H511    1.112   .     S
C487   C488    1.529   .     S
C487   H512    1.115   .     S
C487   O1131   1.414   1_554 S
C488   H513    1.111   .     S
C489   H515    1.110   .     S
C489   H516    1.111   .     S
C489   C86     1.527   1_565 S
C489   H115    1.111   1_565 S
C490   C494    1.396   .     A
C491   C495    1.403   .     A
C491   C1084   1.430   1_554 S
C491   C1095   1.420   1_554 S
C492   C493    1.389   .     A
C492   C1094   1.420   .     S
C492   C1080   1.404   .     S
C493   C494    1.386   .     A
C493   H519    1.083   .     S
C494   H523    1.065   .     S
C495   H521    1.077   .     S
C496   H499    1.083   .     S
Cu497  O530    1.947   .     S
Cu497  O534    1.930   .     S
Cu497  N526    2.031   .     S
Cu497  Cu498   2.703   .     S
Cu497  O527    1.967   .     S
Cu497  O532    1.955   .     S
Cu498  O531    1.930   .     S
Cu498  N525    2.031   .     S
Cu498  O529    1.955   .     S
Cu498  O533    1.967   .     S
Cu498  O535    1.947   .     S
H510   C72     1.085   1_565 S
H514   C86     1.111   1_565 S
H518   N593    1.029   .     S
N525   N593    1.280   .     S
N525   O603    1.347   .     S
O528   C547    1.400   .     S
O528   C1090   1.414   .     S
C537   O594    1.301   .     A
C537   O596    1.287   .     A
C537   C539    1.430   .     S
C538   C540    1.512   .     S
C538   C557    1.418   .     A
C538   C546    1.429   .     A
C539   C139    1.320   1_565 S
C539   H189    1.086   1_565 S
C540   O598    1.319   .     A
C540   O597    1.306   .     A
C541   C542    1.430   .     S
C542   O599    1.287   .     A
C542   O600    1.300   .     A
C543   O601    1.300   .     A
C543   C545    1.461   .     S
C543   O602    1.304   .     A
C544   H587    1.084   .     S
C544   C563    1.392   .     A
C544   C1162   1.404   1_554 S
C545   C562    1.397   .     A
C545   C563    1.398   .     A
C546   C547    1.413   .     A
C547   C1152   1.410   .     S
C548   C557    1.412   .     A
C548   C1152   1.409   .     S
C548   C1161   1.430   .     S
C549   H589    1.072   .     S
C549   C1151   1.409   1_554 S
C549   C1150   1.410   1_554 S
C550   C551    1.543   .     S
C550   H568    1.093   .     S
C550   H433    1.111   1_655 S
C550   O469    1.407   1_655 S
C551   H570    1.111   .     S
C551   C552    1.528   .     S
C551   H33     1.111   1_665 S
C552   H573    1.109   .     S
C552   H571    1.105   .     S
C552   H170    1.107   1_565 S
C553   H574    1.108   .     S
C553   H575    1.110   .     S
C553   C412    1.510   1_655 S
C553   H442    1.105   1_655 S
C554   H578    1.112   .     S
C554   C555    1.529   .     S
C554   H579    1.115   .     S
C554   O1198   1.414   1_554 S
C555   H580    1.111   .     S
C556   H582    1.110   .     S
C556   H583    1.111   .     S
C556   C153    1.527   1_565 S
C556   H182    1.111   1_565 S
C557   C561    1.396   .     A
C558   C562    1.403   .     A
C558   C1151   1.430   1_554 S
C558   C1162   1.420   1_554 S
C559   C560    1.389   .     A
C559   C1161   1.420   .     S
C559   C1147   1.404   .     S
C560   C561    1.386   .     A
C560   H586    1.083   .     S
C561   H590    1.065   .     S
C562   H588    1.077   .     S
C563   H566    1.083   .     S
Cu564  O597    1.947   .     S
Cu564  O601    1.930   .     S
Cu564  N593    2.031   .     S
Cu564  Cu565   2.703   .     S
Cu564  O594    1.967   .     S
Cu564  O599    1.955   .     S
Cu565  O598    1.930   .     S
Cu565  N592    2.031   .     S
Cu565  O596    1.955   .     S
Cu565  O600    1.967   .     S
Cu565  O602    1.947   .     S
H577   C139    1.085   1_565 S
H581   C153    1.111   1_565 S
H585   N459    1.029   1_655 S
N592   N459    1.280   1_655 S
N592   O469    1.347   1_655 S
O595   C413    1.400   1_655 S
O595   C1157   1.414   .     S
C604   O661    1.301   .     A
C604   O663    1.287   .     A
C604   C606    1.430   .     S
C605   C607    1.512   .     S
C605   C624    1.418   .     A
C605   C613    1.429   .     A
C606   C809    1.320   .     S
C606   H859    1.086   .     S
C607   O665    1.319   .     A
C607   O664    1.306   .     A
C608   C609    1.430   .     S
C608   C1008   1.320   1_545 S
C608   H1046   1.085   1_545 S
C609   O666    1.287   .     A
C609   O667    1.300   .     A
C610   O668    1.300   .     A
C610   C612    1.461   .     S
C610   O669    1.304   .     A
C611   H654    1.084   .     S
C611   C630    1.392   .     A
C612   C629    1.397   .     A
C612   C630    1.398   .     A
C613   C614    1.413   .     A
C613   C754    1.510   1_455 S
C614   C13     1.410   1_556 S
C614   O796    1.400   1_455 S
C615   C624    1.412   .     A
C615   C13     1.409   1_556 S
C615   C22     1.430   1_556 S
C616   H656    1.072   .     S
C617   C618    1.543   .     S
C617   H635    1.093   .     S
C617   H701    1.111   .     S
C617   O737    1.407   .     S
C618   H637    1.111   .     S
C618   C619    1.528   .     S
C618   H904    1.111   .     S
C619   H640    1.109   .     S
C619   H638    1.105   .     S
C619   H840    1.107   .     S
C620   H641    1.108   .     S
C620   H642    1.110   .     S
C620   C680    1.510   .     S
C620   H710    1.105   .     S
C621   H645    1.112   .     S
C621   C622    1.529   .     S
C621   H646    1.115   .     S
C622   H647    1.111   .     S
C622   C1025   1.527   1_545 S
C622   H1050   1.111   1_545 S
C623   H649    1.110   .     S
C623   H650    1.111   .     S
C623   C823    1.527   .     S
C623   H852    1.111   .     S
C624   C628    1.396   .     A
C625   C629    1.403   .     A
C626   C627    1.389   .     A
C626   C22     1.420   1_556 S
C626   C8      1.404   1_556 S
C627   C628    1.386   .     A
C627   H653    1.083   .     S
C628   H657    1.065   .     S
C629   H655    1.077   .     S
C630   H633    1.083   .     S
Cu631  O664    1.947   .     S
Cu631  O668    1.930   .     S
Cu631  N660    2.031   .     S
Cu631  Cu632   2.703   .     S
Cu631  O661    1.967   .     S
Cu631  O666    1.955   .     S
Cu632  O665    1.930   .     S
Cu632  N659    2.031   .     S
Cu632  O663    1.955   .     S
Cu632  O667    1.967   .     S
Cu632  O669    1.947   .     S
H634   C751    1.111   1_455 S
H636   C1154   1.111   1_445 S
H639   C1021   1.107   1_545 S
H643   C754    1.105   1_455 S
H644   C809    1.085   .     S
H648   C823    1.111   .     S
H651   C1025   1.111   1_545 S
H652   N727    1.029   .     S
H658   C1008   1.086   1_545 S
N659   N727    1.280   .     S
N659   O737    1.347   .     S
N660   H786    1.029   1_455 S
N660   N793    1.280   1_455 S
O662   C681    1.400   .     S
O662   C18     1.414   1_556 S
O670   C751    1.407   1_455 S
O670   N793    1.347   1_455 S
C671   O728    1.301   .     A
C671   O730    1.287   .     A
C671   C673    1.430   .     S
C672   C674    1.512   .     S
C672   C691    1.418   .     A
C672   C680    1.429   .     A
C673   C876    1.320   .     S
C673   H926    1.086   .     S
C674   O732    1.319   .     A
C674   O731    1.306   .     A
C675   C676    1.430   .     S
C675   C1075   1.320   1_545 S
C675   H1113   1.085   1_545 S
C676   O733    1.287   .     A
C676   O734    1.300   .     A
C677   O735    1.300   .     A
C677   C679    1.461   .     S
C677   O736    1.304   .     A
C678   H721    1.084   .     S
C678   C697    1.392   .     A
C679   C696    1.397   .     A
C679   C697    1.398   .     A
C680   C681    1.413   .     A
C681   C80     1.410   1_556 S
C682   C691    1.412   .     A
C682   C80     1.409   1_556 S
C682   C89     1.430   1_556 S
C683   H723    1.072   .     S
C684   C685    1.543   .     S
C684   H702    1.093   .     S
C684   H768    1.111   .     S
C684   O804    1.407   .     S
C685   H704    1.111   .     S
C685   C686    1.528   .     S
C685   H971    1.111   .     S
C686   H707    1.109   .     S
C686   H705    1.105   .     S
C686   H907    1.107   .     S
C687   H708    1.108   .     S
C687   H709    1.110   .     S
C687   C747    1.510   .     S
C687   H777    1.105   .     S
C688   H712    1.112   .     S
C688   C689    1.529   .     S
C688   H713    1.115   .     S
C689   H714    1.111   .     S
C689   C1092   1.527   1_545 S
C689   H1117   1.111   1_545 S
C690   H716    1.110   .     S
C690   H717    1.111   .     S
C690   C890    1.527   .     S
C690   H919    1.111   .     S
C691   C695    1.396   .     A
C692   C696    1.403   .     A
C693   C694    1.389   .     A
C693   C89     1.420   1_556 S
C693   C75     1.404   1_556 S
C694   C695    1.386   .     A
C694   H720    1.083   .     S
C695   H724    1.065   .     S
C696   H722    1.077   .     S
C697   H700    1.083   .     S
Cu698  O731    1.947   .     S
Cu698  O735    1.930   .     S
Cu698  N727    2.031   .     S
Cu698  Cu699   2.703   .     S
Cu698  O728    1.967   .     S
Cu698  O733    1.955   .     S
Cu699  O732    1.930   .     S
Cu699  N726    2.031   .     S
Cu699  O730    1.955   .     S
Cu699  O734    1.967   .     S
Cu699  O736    1.947   .     S
H703   C1020   1.111   1_545 S
H706   C1088   1.107   1_545 S
H711   C876    1.085   .     S
H715   C890    1.111   .     S
H718   C1092   1.111   1_545 S
H719   N794    1.029   .     S
H725   C1075   1.086   1_545 S
N726   N794    1.280   .     S
N726   O804    1.347   .     S
O729   C748    1.400   .     S
O729   C85     1.414   1_556 S
C738   O795    1.301   .     A
C738   O797    1.287   .     A
C738   C740    1.430   .     S
C739   C741    1.512   .     S
C739   C758    1.418   .     A
C739   C747    1.429   .     A
C740   C943    1.320   .     S
C740   H993    1.086   .     S
C741   O799    1.319   .     A
C741   O798    1.306   .     A
C742   C743    1.430   .     S
C742   C1142   1.320   1_545 S
C742   H1180   1.085   1_545 S
C743   O800    1.287   .     A
C743   O801    1.300   .     A
C744   O802    1.300   .     A
C744   C746    1.461   .     S
C744   O803    1.304   .     A
C745   H788    1.084   .     S
C745   C764    1.392   .     A
C746   C763    1.397   .     A
C746   C764    1.398   .     A
C747   C748    1.413   .     A
C748   C147    1.410   1_556 S
C749   C758    1.412   .     A
C749   C147    1.409   1_556 S
C749   C156    1.430   1_556 S
C750   H790    1.072   .     S
C751   C752    1.543   .     S
C751   H769    1.093   .     S
C751   H634    1.111   1_655 S
C751   O670    1.407   1_655 S
C752   H771    1.111   .     S
C752   C753    1.528   .     S
C752   H837    1.111   1_655 S
C753   H774    1.109   .     S
C753   H772    1.105   .     S
C753   H974    1.107   .     S
C754   H775    1.108   .     S
C754   H776    1.110   .     S
C754   C613    1.510   1_655 S
C754   H643    1.105   1_655 S
C755   H779    1.112   .     S
C755   C756    1.529   .     S
C755   H780    1.115   .     S
C756   H781    1.111   .     S
C756   C1159   1.527   1_545 S
C756   H1184   1.111   1_545 S
C757   H783    1.110   .     S
C757   H784    1.111   .     S
C757   C957    1.527   .     S
C757   H986    1.111   .     S
C758   C762    1.396   .     A
C759   C763    1.403   .     A
C760   C761    1.389   .     A
C760   C156    1.420   1_556 S
C760   C142    1.404   1_556 S
C761   C762    1.386   .     A
C761   H787    1.083   .     S
C762   H791    1.065   .     S
C763   H789    1.077   .     S
C764   H767    1.083   .     S
Cu765  O798    1.947   .     S
Cu765  O802    1.930   .     S
Cu765  N794    2.031   .     S
Cu765  Cu766   2.703   .     S
Cu765  O795    1.967   .     S
Cu765  O800    1.955   .     S
Cu766  O799    1.930   .     S
Cu766  N793    2.031   .     S
Cu766  O797    1.955   .     S
Cu766  O801    1.967   .     S
Cu766  O803    1.947   .     S
H770   C1087   1.111   1_545 S
H773   C1155   1.107   1_545 S
H778   C943    1.085   .     S
H782   C957    1.111   .     S
H785   C1159   1.111   1_545 S
H786   N660    1.029   1_655 S
H792   C1142   1.086   1_545 S
N793   N660    1.280   1_655 S
N793   O670    1.347   1_655 S
O796   C614    1.400   1_655 S
O796   C152    1.414   1_556 S
C805   O862    1.301   .     A
C805   O864    1.287   .     A
C805   C807    1.430   .     S
C806   C808    1.512   .     S
C806   C825    1.418   .     A
C806   C814    1.429   .     A
C807   C1010   1.320   .     S
C807   H1060   1.086   .     S
C808   O866    1.319   .     A
C808   O865    1.306   .     A
C809   C810    1.430   .     S
C810   O867    1.287   .     A
C810   O868    1.300   .     A
C811   O869    1.300   .     A
C811   C813    1.461   .     S
C811   O870    1.304   .     A
C812   H855    1.084   .     S
C812   C831    1.392   .     A
C813   C830    1.397   .     A
C813   C831    1.398   .     A
C814   C815    1.413   .     A
C814   C955    1.510   1_455 S
C815   C214    1.410   1_556 S
C815   O997    1.400   1_455 S
C816   C825    1.412   .     A
C816   C214    1.409   1_556 S
C816   C223    1.430   1_556 S
C817   H857    1.072   .     S
C818   C819    1.543   .     S
C818   H836    1.093   .     S
C818   H902    1.111   .     S
C818   O938    1.407   .     S
C819   H838    1.111   .     S
C819   C820    1.528   .     S
C819   H1105   1.111   .     S
C820   H841    1.109   .     S
C820   H839    1.105   .     S
C820   H1041   1.107   .     S
C821   H842    1.108   .     S
C821   H843    1.110   .     S
C821   C881    1.510   .     S
C821   H911    1.105   .     S
C822   H846    1.112   .     S
C822   C823    1.529   .     S
C822   H847    1.115   .     S
C823   H848    1.111   .     S
C824   H850    1.110   .     S
C824   H851    1.111   .     S
C824   C1024   1.527   .     S
C824   H1053   1.111   .     S
C825   C829    1.396   .     A
C826   C830    1.403   .     A
C827   C828    1.389   .     A
C827   C223    1.420   1_556 S
C827   C209    1.404   1_556 S
C828   C829    1.386   .     A
C828   H854    1.083   .     S
C829   H858    1.065   .     S
C830   H856    1.077   .     S
C831   H834    1.083   .     S
Cu832  O865    1.947   .     S
Cu832  O869    1.930   .     S
Cu832  N861    2.031   .     S
Cu832  Cu833   2.703   .     S
Cu832  O862    1.967   .     S
Cu832  O867    1.955   .     S
Cu833  O866    1.930   .     S
Cu833  N860    2.031   .     S
Cu833  O864    1.955   .     S
Cu833  O868    1.967   .     S
Cu833  O870    1.947   .     S
H835   C952    1.111   1_455 S
H837   C752    1.111   1_455 S
H844   C955    1.105   1_455 S
H845   C1010   1.085   .     S
H849   C1024   1.111   .     S
H853   N928    1.029   .     S
N860   N928    1.280   .     S
N860   O938    1.347   .     S
N861   H987    1.029   1_455 S
N861   N994    1.280   1_455 S
O863   C882    1.400   .     S
O863   C219    1.414   1_556 S
O871   C952    1.407   1_455 S
O871   N994    1.347   1_455 S
C872   O929    1.301   .     A
C872   O931    1.287   .     A
C872   C874    1.430   .     S
C873   C875    1.512   .     S
C873   C892    1.418   .     A
C873   C881    1.429   .     A
C874   C1077   1.320   .     S
C874   H1127   1.086   .     S
C875   O933    1.319   .     A
C875   O932    1.306   .     A
C876   C877    1.430   .     S
C877   O934    1.287   .     A
C877   O935    1.300   .     A
C878   O936    1.300   .     A
C878   C880    1.461   .     S
C878   O937    1.304   .     A
C879   H922    1.084   .     S
C879   C898    1.392   .     A
C880   C897    1.397   .     A
C880   C898    1.398   .     A
C881   C882    1.413   .     A
C882   C281    1.410   1_556 S
C883   C892    1.412   .     A
C883   C281    1.409   1_556 S
C883   C290    1.430   1_556 S
C884   H924    1.072   .     S
C885   C886    1.543   .     S
C885   H903    1.093   .     S
C885   H969    1.111   .     S
C885   O1005   1.407   .     S
C886   H905    1.111   .     S
C886   C887    1.528   .     S
C886   H1172   1.111   .     S
C887   H908    1.109   .     S
C887   H906    1.105   .     S
C887   H1108   1.107   .     S
C888   H909    1.108   .     S
C888   H910    1.110   .     S
C888   C948    1.510   .     S
C888   H978    1.105   .     S
C889   H913    1.112   .     S
C889   C890    1.529   .     S
C889   H914    1.115   .     S
C890   H915    1.111   .     S
C891   H917    1.110   .     S
C891   H918    1.111   .     S
C891   C1091   1.527   .     S
C891   H1120   1.111   .     S
C892   C896    1.396   .     A
C893   C897    1.403   .     A
C894   C895    1.389   .     A
C894   C290    1.420   1_556 S
C894   C276    1.404   1_556 S
C895   C896    1.386   .     A
C895   H921    1.083   .     S
C896   H925    1.065   .     S
C897   H923    1.077   .     S
C898   H901    1.083   .     S
Cu899  O932    1.947   .     S
Cu899  O936    1.930   .     S
Cu899  N928    2.031   .     S
Cu899  Cu900   2.703   .     S
Cu899  O929    1.967   .     S
Cu899  O934    1.955   .     S
Cu900  O933    1.930   .     S
Cu900  N927    2.031   .     S
Cu900  O931    1.955   .     S
Cu900  O935    1.967   .     S
Cu900  O937    1.947   .     S
H912   C1077   1.085   .     S
H916   C1091   1.111   .     S
H920   N995    1.029   .     S
N927   N995    1.280   .     S
N927   O1005   1.347   .     S
O930   C949    1.400   .     S
O930   C286    1.414   1_556 S
C939   O996    1.301   .     A
C939   O998    1.287   .     A
C939   C941    1.430   .     S
C940   C942    1.512   .     S
C940   C959    1.418   .     A
C940   C948    1.429   .     A
C941   C1144   1.320   .     S
C941   H1194   1.086   .     S
C942   O1000   1.319   .     A
C942   O999    1.306   .     A
C943   C944    1.430   .     S
C944   O1001   1.287   .     A
C944   O1002   1.300   .     A
C945   O1003   1.300   .     A
C945   C947    1.461   .     S
C945   O1004   1.304   .     A
C946   H989    1.084   .     S
C946   C965    1.392   .     A
C947   C964    1.397   .     A
C947   C965    1.398   .     A
C948   C949    1.413   .     A
C949   C348    1.410   1_556 S
C950   C959    1.412   .     A
C950   C348    1.409   1_556 S
C950   C357    1.430   1_556 S
C951   H991    1.072   .     S
C952   C953    1.543   .     S
C952   H970    1.093   .     S
C952   H835    1.111   1_655 S
C952   O871    1.407   1_655 S
C953   H972    1.111   .     S
C953   C954    1.528   .     S
C953   H1038   1.111   1_655 S
C954   H975    1.109   .     S
C954   H973    1.105   .     S
C954   H1175   1.107   .     S
C955   H976    1.108   .     S
C955   H977    1.110   .     S
C955   C814    1.510   1_655 S
C955   H844    1.105   1_655 S
C956   H980    1.112   .     S
C956   C957    1.529   .     S
C956   H981    1.115   .     S
C957   H982    1.111   .     S
C958   H984    1.110   .     S
C958   H985    1.111   .     S
C958   C1158   1.527   .     S
C958   H1187   1.111   .     S
C959   C963    1.396   .     A
C960   C964    1.403   .     A
C961   C962    1.389   .     A
C961   C357    1.420   1_556 S
C961   C343    1.404   1_556 S
C962   C963    1.386   .     A
C962   H988    1.083   .     S
C963   H992    1.065   .     S
C964   H990    1.077   .     S
C965   H968    1.083   .     S
Cu966  O999    1.947   .     S
Cu966  O1003   1.930   .     S
Cu966  N995    2.031   .     S
Cu966  Cu967   2.703   .     S
Cu966  O996    1.967   .     S
Cu966  O1001   1.955   .     S
Cu967  O1000   1.930   .     S
Cu967  N994    2.031   .     S
Cu967  O998    1.955   .     S
Cu967  O1002   1.967   .     S
Cu967  O1004   1.947   .     S
H979   C1144   1.085   .     S
H983   C1158   1.111   .     S
H987   N861    1.029   1_655 S
N994   N861    1.280   1_655 S
N994   O871    1.347   1_655 S
O997   C815    1.400   1_655 S
O997   C353    1.414   1_556 S
C1006  O1063   1.301   .     A
C1006  O1065   1.287   .     A
C1006  C1008   1.430   .     S
C1007  C1009   1.512   .     S
C1007  C1026   1.418   .     A
C1007  C1015   1.429   .     A
C1008  C608    1.320   1_565 S
C1008  H658    1.086   1_565 S
C1009  O1067   1.319   .     A
C1009  O1066   1.306   .     A
C1010  C1011   1.430   .     S
C1011  O1068   1.287   .     A
C1011  O1069   1.300   .     A
C1012  O1070   1.300   .     A
C1012  C1014   1.461   .     S
C1012  O1071   1.304   .     A
C1013  H1056   1.084   .     S
C1013  C1032   1.392   .     A
C1014  C1031   1.397   .     A
C1014  C1032   1.398   .     A
C1015  C1016   1.413   .     A
C1015  C1156   1.510   1_455 S
C1016  C415    1.410   1_556 S
C1016  O1198   1.400   1_455 S
C1017  C1026   1.412   .     A
C1017  C415    1.409   1_556 S
C1017  C424    1.430   1_556 S
C1018  H1058   1.072   .     S
C1019  C1020   1.543   .     S
C1019  H1037   1.093   .     S
C1019  H1103   1.111   .     S
C1019  O1139   1.407   .     S
C1020  H1039   1.111   .     S
C1020  C1021   1.528   .     S
C1020  H703    1.111   1_565 S
C1021  H1042   1.109   .     S
C1021  H1040   1.105   .     S
C1021  H639    1.107   1_565 S
C1022  H1043   1.108   .     S
C1022  H1044   1.110   .     S
C1022  C1082   1.510   .     S
C1022  H1112   1.105   .     S
C1023  H1047   1.112   .     S
C1023  C1024   1.529   .     S
C1023  H1048   1.115   .     S
C1024  H1049   1.111   .     S
C1025  H1051   1.110   .     S
C1025  H1052   1.111   .     S
C1025  C622    1.527   1_565 S
C1025  H651    1.111   1_565 S
C1026  C1030   1.396   .     A
C1027  C1031   1.403   .     A
C1028  C1029   1.389   .     A
C1028  C424    1.420   1_556 S
C1028  C410    1.404   1_556 S
C1029  C1030   1.386   .     A
C1029  H1055   1.083   .     S
C1030  H1059   1.065   .     S
C1031  H1057   1.077   .     S
C1032  H1035   1.083   .     S
Cu1033 O1066   1.947   .     S
Cu1033 O1070   1.930   .     S
Cu1033 N1062   2.031   .     S
Cu1033 Cu1034  2.703   .     S
Cu1033 O1063   1.967   .     S
Cu1033 O1068   1.955   .     S
Cu1034 O1067   1.930   .     S
Cu1034 N1061   2.031   .     S
Cu1034 O1065   1.955   .     S
Cu1034 O1069   1.967   .     S
Cu1034 O1071   1.947   .     S
H1036  C1153   1.111   1_455 S
H1038  C953    1.111   1_455 S
H1045  C1156   1.105   1_455 S
H1046  C608    1.085   1_565 S
H1050  C622    1.111   1_565 S
H1054  N1129   1.029   .     S
N1061  N1129   1.280   .     S
N1061  O1139   1.347   .     S
N1062  H1188   1.029   1_455 S
N1062  N1195   1.280   1_455 S
O1064  C1083   1.400   .     S
O1064  C420    1.414   1_556 S
O1072  C1153   1.407   1_455 S
O1072  N1195   1.347   1_455 S
C1073  O1130   1.301   .     A
C1073  O1132   1.287   .     A
C1073  C1075   1.430   .     S
C1074  C1076   1.512   .     S
C1074  C1093   1.418   .     A
C1074  C1082   1.429   .     A
C1075  C675    1.320   1_565 S
C1075  H725    1.086   1_565 S
C1076  O1134   1.319   .     A
C1076  O1133   1.306   .     A
C1077  C1078   1.430   .     S
C1078  O1135   1.287   .     A
C1078  O1136   1.300   .     A
C1079  O1137   1.300   .     A
C1079  C1081   1.461   .     S
C1079  O1138   1.304   .     A
C1080  H1123   1.084   .     S
C1080  C1099   1.392   .     A
C1081  C1098   1.397   .     A
C1081  C1099   1.398   .     A
C1082  C1083   1.413   .     A
C1083  C482    1.410   1_556 S
C1084  C1093   1.412   .     A
C1084  C482    1.409   1_556 S
C1084  C491    1.430   1_556 S
C1085  H1125   1.072   .     S
C1086  C1087   1.543   .     S
C1086  H1104   1.093   .     S
C1086  H1170   1.111   .     S
C1086  O1206   1.407   .     S
C1087  H1106   1.111   .     S
C1087  C1088   1.528   .     S
C1087  H770    1.111   1_565 S
C1088  H1109   1.109   .     S
C1088  H1107   1.105   .     S
C1088  H706    1.107   1_565 S
C1089  H1110   1.108   .     S
C1089  H1111   1.110   .     S
C1089  C1149   1.510   .     S
C1089  H1179   1.105   .     S
C1090  H1114   1.112   .     S
C1090  C1091   1.529   .     S
C1090  H1115   1.115   .     S
C1091  H1116   1.111   .     S
C1092  H1118   1.110   .     S
C1092  H1119   1.111   .     S
C1092  C689    1.527   1_565 S
C1092  H718    1.111   1_565 S
C1093  C1097   1.396   .     A
C1094  C1098   1.403   .     A
C1095  C1096   1.389   .     A
C1095  C491    1.420   1_556 S
C1095  C477    1.404   1_556 S
C1096  C1097   1.386   .     A
C1096  H1122   1.083   .     S
C1097  H1126   1.065   .     S
C1098  H1124   1.077   .     S
C1099  H1102   1.083   .     S
Cu1100 O1133   1.947   .     S
Cu1100 O1137   1.930   .     S
Cu1100 N1129   2.031   .     S
Cu1100 Cu1101  2.703   .     S
Cu1100 O1130   1.967   .     S
Cu1100 O1135   1.955   .     S
Cu1101 O1134   1.930   .     S
Cu1101 N1128   2.031   .     S
Cu1101 O1132   1.955   .     S
Cu1101 O1136   1.967   .     S
Cu1101 O1138   1.947   .     S
H1113  C675    1.085   1_565 S
H1117  C689    1.111   1_565 S
H1121  N1196   1.029   .     S
N1128  N1196   1.280   .     S
N1128  O1206   1.347   .     S
O1131  C1150   1.400   .     S
O1131  C487    1.414   1_556 S
C1140  O1197   1.301   .     A
C1140  O1199   1.287   .     A
C1140  C1142   1.430   .     S
C1141  C1143   1.512   .     S
C1141  C1160   1.418   .     A
C1141  C1149   1.429   .     A
C1142  C742    1.320   1_565 S
C1142  H792    1.086   1_565 S
C1143  O1201   1.319   .     A
C1143  O1200   1.306   .     A
C1144  C1145   1.430   .     S
C1145  O1202   1.287   .     A
C1145  O1203   1.300   .     A
C1146  O1204   1.300   .     A
C1146  C1148   1.461   .     S
C1146  O1205   1.304   .     A
C1147  H1190   1.084   .     S
C1147  C1166   1.392   .     A
C1148  C1165   1.397   .     A
C1148  C1166   1.398   .     A
C1149  C1150   1.413   .     A
C1150  C549    1.410   1_556 S
C1151  C1160   1.412   .     A
C1151  C549    1.409   1_556 S
C1151  C558    1.430   1_556 S
C1152  H1192   1.072   .     S
C1153  C1154   1.543   .     S
C1153  H1171   1.093   .     S
C1153  H1036   1.111   1_655 S
C1153  O1072   1.407   1_655 S
C1154  H1173   1.111   .     S
C1154  C1155   1.528   .     S
C1154  H636    1.111   1_665 S
C1155  H1176   1.109   .     S
C1155  H1174   1.105   .     S
C1155  H773    1.107   1_565 S
C1156  H1177   1.108   .     S
C1156  H1178   1.110   .     S
C1156  C1015   1.510   1_655 S
C1156  H1045   1.105   1_655 S
C1157  H1181   1.112   .     S
C1157  C1158   1.529   .     S
C1157  H1182   1.115   .     S
C1158  H1183   1.111   .     S
C1159  H1185   1.110   .     S
C1159  H1186   1.111   .     S
C1159  C756    1.527   1_565 S
C1159  H785    1.111   1_565 S
C1160  C1164   1.396   .     A
C1161  C1165   1.403   .     A
C1162  C1163   1.389   .     A
C1162  C558    1.420   1_556 S
C1162  C544    1.404   1_556 S
C1163  C1164   1.386   .     A
C1163  H1189   1.083   .     S
C1164  H1193   1.065   .     S
C1165  H1191   1.077   .     S
C1166  H1169   1.083   .     S
Cu1167 O1200   1.947   .     S
Cu1167 O1204   1.930   .     S
Cu1167 N1196   2.031   .     S
Cu1167 Cu1168  2.703   .     S
Cu1167 O1197   1.967   .     S
Cu1167 O1202   1.955   .     S
Cu1168 O1201   1.930   .     S
Cu1168 N1195   2.031   .     S
Cu1168 O1199   1.955   .     S
Cu1168 O1203   1.967   .     S
Cu1168 O1205   1.947   .     S
H1180  C742    1.085   1_565 S
H1184  C756    1.111   1_565 S
H1188  N1062   1.029   1_655 S
N1195  N1062   1.280   1_655 S
N1195  O1072   1.347   1_655 S
O1198  C1016   1.400   1_655 S
O1198  C554    1.414   1_556 S
