data_str_m2_o2_o10_pcu_sym.150
_audit_creation_date              2020-01-03
_audit_creation_method            'Materials Studio'
_symmetry_space_group_name_H-M    'P1'
_symmetry_Int_Tables_number       1
_symmetry_cell_setting            triclinic
loop_
_symmetry_equiv_pos_as_xyz
  x,y,z
_cell_length_a                    26.1927
_cell_length_b                    30.2098
_cell_length_c                    27.7296
_cell_angle_alpha                 90.3930
_cell_angle_beta                  97.9438
_cell_angle_gamma                 90.1088
loop_
_atom_site_label
_atom_site_type_symbol
_atom_site_fract_x
_atom_site_fract_y
_atom_site_fract_z
_atom_site_U_iso_or_equiv
_atom_site_adp_type
_atom_site_occupancy
C1     C     0.16573   0.16493   0.24965   0.00000  Uiso   1.00
C2     C     0.16578   0.33504   0.25011   0.00000  Uiso   1.00
C3     C     0.20630   0.27072   0.05926   0.00000  Uiso   1.00
C4     C     0.14274   0.21585   0.44268   0.00000  Uiso   1.00
C5     C     0.20539   0.27059   0.10988   0.00000  Uiso   1.00
C6     C     0.14290   0.21662   0.39198   0.00000  Uiso   1.00
C7     C     0.12790   0.22946   0.09950   0.00000  Uiso   1.00
C8     C     0.19026   0.28345   0.39863   0.00000  Uiso   1.00
C9     C     0.12693   0.22934   0.04864   0.00000  Uiso   1.00
C10    C     0.19036   0.28428   0.44939   0.00000  Uiso   1.00
C11    C     0.16660   0.25004   0.02733   0.00000  Uiso   1.00
C12    C     0.16657   0.25006   0.47265   0.00000  Uiso   1.00
C13    C     0.06789   0.25000   0.23755   0.00000  Uiso   1.00
C14    C     0.26544   0.25005   0.26245   0.00000  Uiso   1.00
C15    C     0.01263   0.25003   0.23067   0.00000  Uiso   1.00
C16    C     0.32071   0.25010   0.26932   0.00000  Uiso   1.00
C17    C     0.19700   0.04831   0.28861   0.00000  Uiso   1.00
C18    C     0.19892   0.45181   0.22142   0.00000  Uiso   1.00
C19    C     0.19506   0.09448   0.28757   0.00000  Uiso   1.00
C20    C     0.19692   0.40563   0.22168   0.00000  Uiso   1.00
C21    C     0.16534   0.11652   0.24914   0.00000  Uiso   1.00
C22    C     0.16539   0.38338   0.25060   0.00000  Uiso   1.00
C23    C     0.13600   0.09202   0.21131   0.00000  Uiso   1.00
C24    C     0.13433   0.40757   0.27926   0.00000  Uiso   1.00
C25    C     0.13777   0.04586   0.21272   0.00000  Uiso   1.00
C26    C     0.13613   0.45375   0.27857   0.00000  Uiso   1.00
C27    C     0.16814   0.02412   0.25067   0.00000  Uiso   1.00
C28    C     0.16824   0.47575   0.25027   0.00000  Uiso   1.00
Cu29   Cu    0.16667   0.25000   0.29822   0.00000  Uiso   1.00
Cu30   Cu    0.16667   0.25001   0.20179   0.00000  Uiso   1.00
H31    H     0.32598   0.24997   0.19359   0.00000  Uiso   1.00
H32    H     0.00737   0.25016   0.30639   0.00000  Uiso   1.00
H33    H     0.21747   0.11346   0.31641   0.00000  Uiso   1.00
H34    H     0.22065   0.38680   0.19988   0.00000  Uiso   1.00
H35    H     0.11543   0.02649   0.18416   0.00000  Uiso   1.00
H36    H     0.11241   0.47291   0.30009   0.00000  Uiso   1.00
H37    H     0.23844   0.28650   0.04557   0.00000  Uiso   1.00
H38    H     0.12457   0.18814   0.45810   0.00000  Uiso   1.00
H39    H     0.23602   0.28698   0.13359   0.00000  Uiso   1.00
H40    H     0.12401   0.19022   0.36972   0.00000  Uiso   1.00
H41    H     0.09725   0.21315   0.11502   0.00000  Uiso   1.00
H42    H     0.20904   0.30989   0.38165   0.00000  Uiso   1.00
H43    H     0.09476   0.21358   0.02635   0.00000  Uiso   1.00
H44    H     0.20847   0.31203   0.46994   0.00000  Uiso   1.00
N45    N     0.16667   0.25001   0.12935   0.00000  Uiso   1.00
N46    N     0.16667   0.24999   0.37066   0.00000  Uiso   1.00
O47    O     0.16667   0.18573   0.29072   0.00000  Uiso   1.00
O48    O     0.16666   0.31428   0.20929   0.00000  Uiso   1.00
O49    O     0.16667   0.18573   0.20928   0.00000  Uiso   1.00
O50    O     0.16666   0.31427   0.29072   0.00000  Uiso   1.00
O51    O     0.09161   0.24999   0.28132   0.00000  Uiso   1.00
O52    O     0.24172   0.25001   0.21868   0.00000  Uiso   1.00
O53    O     0.09161   0.25000   0.19989   0.00000  Uiso   1.00
O54    O     0.24172   0.25000   0.30012   0.00000  Uiso   1.00
C55    C     0.23015   0.02536   0.32967   0.00000  Uiso   1.00
H56    H     0.20576   0.00431   0.34996   0.00000  Uiso   1.00
H57    H     0.25907   0.00430   0.31481   0.00000  Uiso   1.00
H58    H     0.25111   0.04942   0.35575   0.00000  Uiso   1.00
C59    C     0.23404   0.47503   0.19098   0.00000  Uiso   1.00
H60    H     0.21097   0.49602   0.16342   0.00000  Uiso   1.00
H61    H     0.26190   0.49618   0.21468   0.00000  Uiso   1.00
H62    H     0.25625   0.45115   0.17151   0.00000  Uiso   1.00
C63    C     0.10160   0.11402   0.17029   0.00000  Uiso   1.00
H64    H     0.12538   0.13152   0.14624   0.00000  Uiso   1.00
H65    H     0.07720   0.08956   0.14751   0.00000  Uiso   1.00
H66    H     0.07551   0.13788   0.18521   0.00000  Uiso   1.00
C67    C     0.09806   0.38516   0.30926   0.00000  Uiso   1.00
H68    H     0.07275   0.36150   0.28620   0.00000  Uiso   1.00
H69    H     0.12034   0.36730   0.34007   0.00000  Uiso   1.00
H70    H     0.07288   0.40941   0.32483   0.00000  Uiso   1.00
C71    C     0.49906   0.16493   0.24965   0.00000  Uiso   1.00
C72    C     0.49911   0.33504   0.25011   0.00000  Uiso   1.00
C73    C     0.53963   0.27072   0.05926   0.00000  Uiso   1.00
C74    C     0.47608   0.21585   0.44268   0.00000  Uiso   1.00
C75    C     0.53873   0.27059   0.10988   0.00000  Uiso   1.00
C76    C     0.47623   0.21662   0.39198   0.00000  Uiso   1.00
C77    C     0.46123   0.22946   0.09950   0.00000  Uiso   1.00
C78    C     0.52360   0.28345   0.39863   0.00000  Uiso   1.00
C79    C     0.46027   0.22934   0.04864   0.00000  Uiso   1.00
C80    C     0.52369   0.28428   0.44939   0.00000  Uiso   1.00
C81    C     0.49993   0.25004   0.02733   0.00000  Uiso   1.00
C82    C     0.49990   0.25006   0.47265   0.00000  Uiso   1.00
C83    C     0.40123   0.25000   0.23755   0.00000  Uiso   1.00
C84    C     0.59878   0.25005   0.26245   0.00000  Uiso   1.00
C85    C     0.34596   0.25003   0.23067   0.00000  Uiso   1.00
C86    C     0.65405   0.25010   0.26932   0.00000  Uiso   1.00
C87    C     0.53033   0.04831   0.28861   0.00000  Uiso   1.00
C88    C     0.53225   0.45181   0.22142   0.00000  Uiso   1.00
C89    C     0.52839   0.09448   0.28757   0.00000  Uiso   1.00
C90    C     0.53025   0.40563   0.22168   0.00000  Uiso   1.00
C91    C     0.49867   0.11652   0.24914   0.00000  Uiso   1.00
C92    C     0.49872   0.38338   0.25060   0.00000  Uiso   1.00
C93    C     0.46933   0.09202   0.21131   0.00000  Uiso   1.00
C94    C     0.46766   0.40757   0.27926   0.00000  Uiso   1.00
C95    C     0.47110   0.04586   0.21272   0.00000  Uiso   1.00
C96    C     0.46946   0.45375   0.27857   0.00000  Uiso   1.00
C97    C     0.50147   0.02412   0.25067   0.00000  Uiso   1.00
C98    C     0.50157   0.47575   0.25027   0.00000  Uiso   1.00
Cu99   Cu    0.50000   0.25000   0.29822   0.00000  Uiso   1.00
Cu100  Cu    0.50000   0.25001   0.20179   0.00000  Uiso   1.00
H101   H     0.65931   0.24997   0.19359   0.00000  Uiso   1.00
H102   H     0.34071   0.25016   0.30639   0.00000  Uiso   1.00
H103   H     0.55080   0.11346   0.31641   0.00000  Uiso   1.00
H104   H     0.55398   0.38680   0.19988   0.00000  Uiso   1.00
H105   H     0.44876   0.02649   0.18416   0.00000  Uiso   1.00
H106   H     0.44574   0.47291   0.30009   0.00000  Uiso   1.00
H107   H     0.57177   0.28650   0.04557   0.00000  Uiso   1.00
H108   H     0.45790   0.18814   0.45810   0.00000  Uiso   1.00
H109   H     0.56936   0.28698   0.13359   0.00000  Uiso   1.00
H110   H     0.45734   0.19022   0.36972   0.00000  Uiso   1.00
H111   H     0.43058   0.21315   0.11502   0.00000  Uiso   1.00
H112   H     0.54237   0.30989   0.38165   0.00000  Uiso   1.00
H113   H     0.42809   0.21358   0.02635   0.00000  Uiso   1.00
H114   H     0.54180   0.31203   0.46994   0.00000  Uiso   1.00
N115   N     0.50000   0.25001   0.12935   0.00000  Uiso   1.00
N116   N     0.50000   0.24999   0.37066   0.00000  Uiso   1.00
O117   O     0.50000   0.18573   0.29072   0.00000  Uiso   1.00
O118   O     0.50000   0.31428   0.20929   0.00000  Uiso   1.00
O119   O     0.50000   0.18573   0.20928   0.00000  Uiso   1.00
O120   O     0.50000   0.31427   0.29072   0.00000  Uiso   1.00
O121   O     0.42495   0.24999   0.28132   0.00000  Uiso   1.00
O122   O     0.57505   0.25001   0.21868   0.00000  Uiso   1.00
O123   O     0.42495   0.25000   0.19989   0.00000  Uiso   1.00
O124   O     0.57505   0.25000   0.30012   0.00000  Uiso   1.00
C125   C     0.56348   0.02536   0.32967   0.00000  Uiso   1.00
H126   H     0.53909   0.00431   0.34996   0.00000  Uiso   1.00
H127   H     0.59240   0.00430   0.31481   0.00000  Uiso   1.00
H128   H     0.58444   0.04942   0.35575   0.00000  Uiso   1.00
C129   C     0.56737   0.47503   0.19098   0.00000  Uiso   1.00
H130   H     0.54430   0.49602   0.16342   0.00000  Uiso   1.00
H131   H     0.59523   0.49618   0.21468   0.00000  Uiso   1.00
H132   H     0.58958   0.45115   0.17151   0.00000  Uiso   1.00
C133   C     0.43494   0.11402   0.17029   0.00000  Uiso   1.00
H134   H     0.45872   0.13152   0.14624   0.00000  Uiso   1.00
H135   H     0.41053   0.08956   0.14751   0.00000  Uiso   1.00
H136   H     0.40884   0.13788   0.18521   0.00000  Uiso   1.00
C137   C     0.43139   0.38516   0.30926   0.00000  Uiso   1.00
H138   H     0.40608   0.36150   0.28620   0.00000  Uiso   1.00
H139   H     0.45367   0.36730   0.34007   0.00000  Uiso   1.00
H140   H     0.40621   0.40941   0.32483   0.00000  Uiso   1.00
C141   C     0.83240   0.16493   0.24965   0.00000  Uiso   1.00
C142   C     0.83245   0.33504   0.25011   0.00000  Uiso   1.00
C143   C     0.87296   0.27072   0.05926   0.00000  Uiso   1.00
C144   C     0.80941   0.21585   0.44268   0.00000  Uiso   1.00
C145   C     0.87206   0.27059   0.10988   0.00000  Uiso   1.00
C146   C     0.80957   0.21662   0.39198   0.00000  Uiso   1.00
C147   C     0.79456   0.22946   0.09950   0.00000  Uiso   1.00
C148   C     0.85693   0.28345   0.39863   0.00000  Uiso   1.00
C149   C     0.79360   0.22934   0.04864   0.00000  Uiso   1.00
C150   C     0.85703   0.28428   0.44939   0.00000  Uiso   1.00
C151   C     0.83326   0.25004   0.02733   0.00000  Uiso   1.00
C152   C     0.83323   0.25006   0.47265   0.00000  Uiso   1.00
C153   C     0.73456   0.25000   0.23755   0.00000  Uiso   1.00
C154   C     0.93211   0.25005   0.26245   0.00000  Uiso   1.00
C155   C     0.67929   0.25003   0.23067   0.00000  Uiso   1.00
C156   C     0.98738   0.25010   0.26932   0.00000  Uiso   1.00
C157   C     0.86366   0.04831   0.28861   0.00000  Uiso   1.00
C158   C     0.86558   0.45181   0.22142   0.00000  Uiso   1.00
C159   C     0.86172   0.09448   0.28757   0.00000  Uiso   1.00
C160   C     0.86358   0.40563   0.22168   0.00000  Uiso   1.00
C161   C     0.83201   0.11652   0.24914   0.00000  Uiso   1.00
C162   C     0.83205   0.38338   0.25060   0.00000  Uiso   1.00
C163   C     0.80266   0.09202   0.21131   0.00000  Uiso   1.00
C164   C     0.80100   0.40757   0.27926   0.00000  Uiso   1.00
C165   C     0.80444   0.04586   0.21272   0.00000  Uiso   1.00
C166   C     0.80279   0.45375   0.27857   0.00000  Uiso   1.00
C167   C     0.83481   0.02412   0.25067   0.00000  Uiso   1.00
C168   C     0.83490   0.47575   0.25027   0.00000  Uiso   1.00
Cu169  Cu    0.83333   0.25000   0.29822   0.00000  Uiso   1.00
Cu170  Cu    0.83333   0.25001   0.20179   0.00000  Uiso   1.00
H171   H     0.99264   0.24997   0.19359   0.00000  Uiso   1.00
H172   H     0.67404   0.25016   0.30639   0.00000  Uiso   1.00
H173   H     0.88413   0.11346   0.31641   0.00000  Uiso   1.00
H174   H     0.88732   0.38680   0.19988   0.00000  Uiso   1.00
H175   H     0.78209   0.02649   0.18416   0.00000  Uiso   1.00
H176   H     0.77908   0.47291   0.30009   0.00000  Uiso   1.00
H177   H     0.90510   0.28650   0.04557   0.00000  Uiso   1.00
H178   H     0.79124   0.18814   0.45810   0.00000  Uiso   1.00
H179   H     0.90269   0.28698   0.13359   0.00000  Uiso   1.00
H180   H     0.79068   0.19022   0.36972   0.00000  Uiso   1.00
H181   H     0.76391   0.21315   0.11502   0.00000  Uiso   1.00
H182   H     0.87571   0.30989   0.38165   0.00000  Uiso   1.00
H183   H     0.76142   0.21358   0.02635   0.00000  Uiso   1.00
H184   H     0.87513   0.31203   0.46994   0.00000  Uiso   1.00
N185   N     0.83333   0.25001   0.12935   0.00000  Uiso   1.00
N186   N     0.83333   0.24999   0.37066   0.00000  Uiso   1.00
O187   O     0.83334   0.18573   0.29072   0.00000  Uiso   1.00
O188   O     0.83333   0.31428   0.20929   0.00000  Uiso   1.00
O189   O     0.83334   0.18573   0.20928   0.00000  Uiso   1.00
O190   O     0.83333   0.31427   0.29072   0.00000  Uiso   1.00
O191   O     0.75828   0.24999   0.28132   0.00000  Uiso   1.00
O192   O     0.90839   0.25001   0.21868   0.00000  Uiso   1.00
O193   O     0.75828   0.25000   0.19989   0.00000  Uiso   1.00
O194   O     0.90839   0.25000   0.30012   0.00000  Uiso   1.00
C195   C     0.89682   0.02536   0.32967   0.00000  Uiso   1.00
H196   H     0.87242   0.00431   0.34996   0.00000  Uiso   1.00
H197   H     0.92574   0.00430   0.31481   0.00000  Uiso   1.00
H198   H     0.91777   0.04942   0.35575   0.00000  Uiso   1.00
C199   C     0.90070   0.47503   0.19098   0.00000  Uiso   1.00
H200   H     0.87763   0.49602   0.16342   0.00000  Uiso   1.00
H201   H     0.92857   0.49618   0.21468   0.00000  Uiso   1.00
H202   H     0.92292   0.45115   0.17151   0.00000  Uiso   1.00
C203   C     0.76827   0.11402   0.17029   0.00000  Uiso   1.00
H204   H     0.79205   0.13152   0.14624   0.00000  Uiso   1.00
H205   H     0.74387   0.08956   0.14751   0.00000  Uiso   1.00
H206   H     0.74218   0.13788   0.18521   0.00000  Uiso   1.00
C207   C     0.76472   0.38516   0.30926   0.00000  Uiso   1.00
H208   H     0.73942   0.36150   0.28620   0.00000  Uiso   1.00
H209   H     0.78700   0.36730   0.34007   0.00000  Uiso   1.00
H210   H     0.73955   0.40941   0.32483   0.00000  Uiso   1.00
C211   C     0.16573   0.66493   0.24965   0.00000  Uiso   1.00
C212   C     0.16578   0.83504   0.25011   0.00000  Uiso   1.00
C213   C     0.20630   0.77072   0.05926   0.00000  Uiso   1.00
C214   C     0.14274   0.71585   0.44268   0.00000  Uiso   1.00
C215   C     0.20539   0.77059   0.10988   0.00000  Uiso   1.00
C216   C     0.14290   0.71662   0.39198   0.00000  Uiso   1.00
C217   C     0.12790   0.72946   0.09950   0.00000  Uiso   1.00
C218   C     0.19026   0.78345   0.39863   0.00000  Uiso   1.00
C219   C     0.12693   0.72934   0.04864   0.00000  Uiso   1.00
C220   C     0.19036   0.78428   0.44939   0.00000  Uiso   1.00
C221   C     0.16660   0.75004   0.02733   0.00000  Uiso   1.00
C222   C     0.16657   0.75006   0.47265   0.00000  Uiso   1.00
C223   C     0.06789   0.75000   0.23755   0.00000  Uiso   1.00
C224   C     0.26544   0.75005   0.26245   0.00000  Uiso   1.00
C225   C     0.01263   0.75003   0.23067   0.00000  Uiso   1.00
C226   C     0.32071   0.75010   0.26932   0.00000  Uiso   1.00
C227   C     0.19700   0.54831   0.28861   0.00000  Uiso   1.00
C228   C     0.19892   0.95181   0.22142   0.00000  Uiso   1.00
C229   C     0.19506   0.59448   0.28757   0.00000  Uiso   1.00
C230   C     0.19692   0.90563   0.22168   0.00000  Uiso   1.00
C231   C     0.16534   0.61652   0.24914   0.00000  Uiso   1.00
C232   C     0.16539   0.88338   0.25060   0.00000  Uiso   1.00
C233   C     0.13600   0.59202   0.21131   0.00000  Uiso   1.00
C234   C     0.13433   0.90757   0.27926   0.00000  Uiso   1.00
C235   C     0.13777   0.54586   0.21272   0.00000  Uiso   1.00
C236   C     0.13613   0.95375   0.27857   0.00000  Uiso   1.00
C237   C     0.16814   0.52412   0.25067   0.00000  Uiso   1.00
C238   C     0.16824   0.97575   0.25027   0.00000  Uiso   1.00
Cu239  Cu    0.16667   0.75000   0.29822   0.00000  Uiso   1.00
Cu240  Cu    0.16667   0.75001   0.20179   0.00000  Uiso   1.00
H241   H     0.32598   0.74997   0.19359   0.00000  Uiso   1.00
H242   H     0.00737   0.75016   0.30639   0.00000  Uiso   1.00
H243   H     0.21747   0.61346   0.31641   0.00000  Uiso   1.00
H244   H     0.22065   0.88680   0.19988   0.00000  Uiso   1.00
H245   H     0.11543   0.52649   0.18416   0.00000  Uiso   1.00
H246   H     0.11241   0.97291   0.30009   0.00000  Uiso   1.00
H247   H     0.23844   0.78650   0.04557   0.00000  Uiso   1.00
H248   H     0.12457   0.68814   0.45810   0.00000  Uiso   1.00
H249   H     0.23602   0.78698   0.13359   0.00000  Uiso   1.00
H250   H     0.12401   0.69022   0.36972   0.00000  Uiso   1.00
H251   H     0.09725   0.71315   0.11502   0.00000  Uiso   1.00
H252   H     0.20904   0.80989   0.38165   0.00000  Uiso   1.00
H253   H     0.09476   0.71358   0.02635   0.00000  Uiso   1.00
H254   H     0.20847   0.81203   0.46994   0.00000  Uiso   1.00
N255   N     0.16667   0.75001   0.12935   0.00000  Uiso   1.00
N256   N     0.16667   0.74999   0.37066   0.00000  Uiso   1.00
O257   O     0.16667   0.68573   0.29072   0.00000  Uiso   1.00
O258   O     0.16666   0.81428   0.20929   0.00000  Uiso   1.00
O259   O     0.16667   0.68573   0.20928   0.00000  Uiso   1.00
O260   O     0.16666   0.81427   0.29072   0.00000  Uiso   1.00
O261   O     0.09161   0.74999   0.28132   0.00000  Uiso   1.00
O262   O     0.24172   0.75001   0.21868   0.00000  Uiso   1.00
O263   O     0.09161   0.75000   0.19989   0.00000  Uiso   1.00
O264   O     0.24172   0.75000   0.30012   0.00000  Uiso   1.00
C265   C     0.23015   0.52536   0.32967   0.00000  Uiso   1.00
H266   H     0.20576   0.50431   0.34996   0.00000  Uiso   1.00
H267   H     0.25907   0.50430   0.31481   0.00000  Uiso   1.00
H268   H     0.25111   0.54942   0.35575   0.00000  Uiso   1.00
C269   C     0.23404   0.97503   0.19098   0.00000  Uiso   1.00
H270   H     0.21097   0.99602   0.16342   0.00000  Uiso   1.00
H271   H     0.26190   0.99618   0.21468   0.00000  Uiso   1.00
H272   H     0.25625   0.95115   0.17151   0.00000  Uiso   1.00
C273   C     0.10160   0.61402   0.17029   0.00000  Uiso   1.00
H274   H     0.12538   0.63152   0.14624   0.00000  Uiso   1.00
H275   H     0.07720   0.58956   0.14751   0.00000  Uiso   1.00
H276   H     0.07551   0.63788   0.18521   0.00000  Uiso   1.00
C277   C     0.09806   0.88516   0.30926   0.00000  Uiso   1.00
H278   H     0.07275   0.86150   0.28620   0.00000  Uiso   1.00
H279   H     0.12034   0.86730   0.34007   0.00000  Uiso   1.00
H280   H     0.07288   0.90941   0.32483   0.00000  Uiso   1.00
C281   C     0.49906   0.66493   0.24965   0.00000  Uiso   1.00
C282   C     0.49911   0.83504   0.25011   0.00000  Uiso   1.00
C283   C     0.53963   0.77072   0.05926   0.00000  Uiso   1.00
C284   C     0.47608   0.71585   0.44268   0.00000  Uiso   1.00
C285   C     0.53873   0.77059   0.10988   0.00000  Uiso   1.00
C286   C     0.47623   0.71662   0.39198   0.00000  Uiso   1.00
C287   C     0.46123   0.72946   0.09950   0.00000  Uiso   1.00
C288   C     0.52360   0.78345   0.39863   0.00000  Uiso   1.00
C289   C     0.46027   0.72934   0.04864   0.00000  Uiso   1.00
C290   C     0.52369   0.78428   0.44939   0.00000  Uiso   1.00
C291   C     0.49993   0.75004   0.02733   0.00000  Uiso   1.00
C292   C     0.49990   0.75006   0.47265   0.00000  Uiso   1.00
C293   C     0.40123   0.75000   0.23755   0.00000  Uiso   1.00
C294   C     0.59878   0.75005   0.26245   0.00000  Uiso   1.00
C295   C     0.34596   0.75003   0.23067   0.00000  Uiso   1.00
C296   C     0.65405   0.75010   0.26932   0.00000  Uiso   1.00
C297   C     0.53033   0.54831   0.28861   0.00000  Uiso   1.00
C298   C     0.53225   0.95181   0.22142   0.00000  Uiso   1.00
C299   C     0.52839   0.59448   0.28757   0.00000  Uiso   1.00
C300   C     0.53025   0.90563   0.22168   0.00000  Uiso   1.00
C301   C     0.49867   0.61652   0.24914   0.00000  Uiso   1.00
C302   C     0.49872   0.88338   0.25060   0.00000  Uiso   1.00
C303   C     0.46933   0.59202   0.21131   0.00000  Uiso   1.00
C304   C     0.46766   0.90757   0.27926   0.00000  Uiso   1.00
C305   C     0.47110   0.54586   0.21272   0.00000  Uiso   1.00
C306   C     0.46946   0.95375   0.27857   0.00000  Uiso   1.00
C307   C     0.50147   0.52412   0.25067   0.00000  Uiso   1.00
C308   C     0.50157   0.97575   0.25027   0.00000  Uiso   1.00
Cu309  Cu    0.50000   0.75000   0.29822   0.00000  Uiso   1.00
Cu310  Cu    0.50000   0.75001   0.20179   0.00000  Uiso   1.00
H311   H     0.65931   0.74997   0.19359   0.00000  Uiso   1.00
H312   H     0.34071   0.75016   0.30639   0.00000  Uiso   1.00
H313   H     0.55080   0.61346   0.31641   0.00000  Uiso   1.00
H314   H     0.55398   0.88680   0.19988   0.00000  Uiso   1.00
H315   H     0.44876   0.52649   0.18416   0.00000  Uiso   1.00
H316   H     0.44574   0.97291   0.30009   0.00000  Uiso   1.00
H317   H     0.57177   0.78650   0.04557   0.00000  Uiso   1.00
H318   H     0.45790   0.68814   0.45810   0.00000  Uiso   1.00
H319   H     0.56936   0.78698   0.13359   0.00000  Uiso   1.00
H320   H     0.45734   0.69022   0.36972   0.00000  Uiso   1.00
H321   H     0.43058   0.71315   0.11502   0.00000  Uiso   1.00
H322   H     0.54237   0.80989   0.38165   0.00000  Uiso   1.00
H323   H     0.42809   0.71358   0.02635   0.00000  Uiso   1.00
H324   H     0.54180   0.81203   0.46994   0.00000  Uiso   1.00
N325   N     0.50000   0.75001   0.12935   0.00000  Uiso   1.00
N326   N     0.50000   0.74999   0.37066   0.00000  Uiso   1.00
O327   O     0.50000   0.68573   0.29072   0.00000  Uiso   1.00
O328   O     0.50000   0.81428   0.20929   0.00000  Uiso   1.00
O329   O     0.50000   0.68573   0.20928   0.00000  Uiso   1.00
O330   O     0.50000   0.81427   0.29072   0.00000  Uiso   1.00
O331   O     0.42495   0.74999   0.28132   0.00000  Uiso   1.00
O332   O     0.57505   0.75001   0.21868   0.00000  Uiso   1.00
O333   O     0.42495   0.75000   0.19989   0.00000  Uiso   1.00
O334   O     0.57505   0.75000   0.30012   0.00000  Uiso   1.00
C335   C     0.56348   0.52536   0.32967   0.00000  Uiso   1.00
H336   H     0.53909   0.50431   0.34996   0.00000  Uiso   1.00
H337   H     0.59240   0.50430   0.31481   0.00000  Uiso   1.00
H338   H     0.58444   0.54942   0.35575   0.00000  Uiso   1.00
C339   C     0.56737   0.97503   0.19098   0.00000  Uiso   1.00
H340   H     0.54430   0.99602   0.16342   0.00000  Uiso   1.00
H341   H     0.59523   0.99618   0.21468   0.00000  Uiso   1.00
H342   H     0.58958   0.95115   0.17151   0.00000  Uiso   1.00
C343   C     0.43494   0.61402   0.17029   0.00000  Uiso   1.00
H344   H     0.45872   0.63152   0.14624   0.00000  Uiso   1.00
H345   H     0.41053   0.58956   0.14751   0.00000  Uiso   1.00
H346   H     0.40884   0.63788   0.18521   0.00000  Uiso   1.00
C347   C     0.43139   0.88516   0.30926   0.00000  Uiso   1.00
H348   H     0.40608   0.86150   0.28620   0.00000  Uiso   1.00
H349   H     0.45367   0.86730   0.34007   0.00000  Uiso   1.00
H350   H     0.40621   0.90941   0.32483   0.00000  Uiso   1.00
C351   C     0.83240   0.66493   0.24965   0.00000  Uiso   1.00
C352   C     0.83245   0.83504   0.25011   0.00000  Uiso   1.00
C353   C     0.87296   0.77072   0.05926   0.00000  Uiso   1.00
C354   C     0.80941   0.71585   0.44268   0.00000  Uiso   1.00
C355   C     0.87206   0.77059   0.10988   0.00000  Uiso   1.00
C356   C     0.80957   0.71662   0.39198   0.00000  Uiso   1.00
C357   C     0.79456   0.72946   0.09950   0.00000  Uiso   1.00
C358   C     0.85693   0.78345   0.39863   0.00000  Uiso   1.00
C359   C     0.79360   0.72934   0.04864   0.00000  Uiso   1.00
C360   C     0.85703   0.78428   0.44939   0.00000  Uiso   1.00
C361   C     0.83326   0.75004   0.02733   0.00000  Uiso   1.00
C362   C     0.83323   0.75006   0.47265   0.00000  Uiso   1.00
C363   C     0.73456   0.75000   0.23755   0.00000  Uiso   1.00
C364   C     0.93211   0.75005   0.26245   0.00000  Uiso   1.00
C365   C     0.67929   0.75003   0.23067   0.00000  Uiso   1.00
C366   C     0.98738   0.75010   0.26932   0.00000  Uiso   1.00
C367   C     0.86366   0.54831   0.28861   0.00000  Uiso   1.00
C368   C     0.86558   0.95181   0.22142   0.00000  Uiso   1.00
C369   C     0.86172   0.59448   0.28757   0.00000  Uiso   1.00
C370   C     0.86358   0.90563   0.22168   0.00000  Uiso   1.00
C371   C     0.83201   0.61652   0.24914   0.00000  Uiso   1.00
C372   C     0.83205   0.88338   0.25060   0.00000  Uiso   1.00
C373   C     0.80266   0.59202   0.21131   0.00000  Uiso   1.00
C374   C     0.80100   0.90757   0.27926   0.00000  Uiso   1.00
C375   C     0.80444   0.54586   0.21272   0.00000  Uiso   1.00
C376   C     0.80279   0.95375   0.27857   0.00000  Uiso   1.00
C377   C     0.83481   0.52412   0.25067   0.00000  Uiso   1.00
C378   C     0.83490   0.97575   0.25027   0.00000  Uiso   1.00
Cu379  Cu    0.83333   0.75000   0.29822   0.00000  Uiso   1.00
Cu380  Cu    0.83333   0.75001   0.20179   0.00000  Uiso   1.00
H381   H     0.99264   0.74997   0.19359   0.00000  Uiso   1.00
H382   H     0.67404   0.75016   0.30639   0.00000  Uiso   1.00
H383   H     0.88413   0.61346   0.31641   0.00000  Uiso   1.00
H384   H     0.88732   0.88680   0.19988   0.00000  Uiso   1.00
H385   H     0.78209   0.52649   0.18416   0.00000  Uiso   1.00
H386   H     0.77908   0.97291   0.30009   0.00000  Uiso   1.00
H387   H     0.90510   0.78650   0.04557   0.00000  Uiso   1.00
H388   H     0.79124   0.68814   0.45810   0.00000  Uiso   1.00
H389   H     0.90269   0.78698   0.13359   0.00000  Uiso   1.00
H390   H     0.79068   0.69022   0.36972   0.00000  Uiso   1.00
H391   H     0.76391   0.71315   0.11502   0.00000  Uiso   1.00
H392   H     0.87571   0.80989   0.38165   0.00000  Uiso   1.00
H393   H     0.76142   0.71358   0.02635   0.00000  Uiso   1.00
H394   H     0.87513   0.81203   0.46994   0.00000  Uiso   1.00
N395   N     0.83333   0.75001   0.12935   0.00000  Uiso   1.00
N396   N     0.83333   0.74999   0.37066   0.00000  Uiso   1.00
O397   O     0.83334   0.68573   0.29072   0.00000  Uiso   1.00
O398   O     0.83333   0.81428   0.20929   0.00000  Uiso   1.00
O399   O     0.83334   0.68573   0.20928   0.00000  Uiso   1.00
O400   O     0.83333   0.81427   0.29072   0.00000  Uiso   1.00
O401   O     0.75828   0.74999   0.28132   0.00000  Uiso   1.00
O402   O     0.90839   0.75001   0.21868   0.00000  Uiso   1.00
O403   O     0.75828   0.75000   0.19989   0.00000  Uiso   1.00
O404   O     0.90839   0.75000   0.30012   0.00000  Uiso   1.00
C405   C     0.89682   0.52536   0.32967   0.00000  Uiso   1.00
H406   H     0.87242   0.50431   0.34996   0.00000  Uiso   1.00
H407   H     0.92574   0.50430   0.31481   0.00000  Uiso   1.00
H408   H     0.91777   0.54942   0.35575   0.00000  Uiso   1.00
C409   C     0.90070   0.97503   0.19098   0.00000  Uiso   1.00
H410   H     0.87763   0.99602   0.16342   0.00000  Uiso   1.00
H411   H     0.92857   0.99618   0.21468   0.00000  Uiso   1.00
H412   H     0.92292   0.95115   0.17151   0.00000  Uiso   1.00
C413   C     0.76827   0.61402   0.17029   0.00000  Uiso   1.00
H414   H     0.79205   0.63152   0.14624   0.00000  Uiso   1.00
H415   H     0.74387   0.58956   0.14751   0.00000  Uiso   1.00
H416   H     0.74218   0.63788   0.18521   0.00000  Uiso   1.00
C417   C     0.76472   0.88516   0.30926   0.00000  Uiso   1.00
H418   H     0.73942   0.86150   0.28620   0.00000  Uiso   1.00
H419   H     0.78700   0.86730   0.34007   0.00000  Uiso   1.00
H420   H     0.73955   0.90941   0.32483   0.00000  Uiso   1.00
C421   C     0.16573   0.16493   0.74965   0.00000  Uiso   1.00
C422   C     0.16578   0.33504   0.75011   0.00000  Uiso   1.00
C423   C     0.20630   0.27072   0.55926   0.00000  Uiso   1.00
C424   C     0.14274   0.21585   0.94268   0.00000  Uiso   1.00
C425   C     0.20539   0.27059   0.60988   0.00000  Uiso   1.00
C426   C     0.14290   0.21662   0.89198   0.00000  Uiso   1.00
C427   C     0.12790   0.22946   0.59950   0.00000  Uiso   1.00
C428   C     0.19026   0.28345   0.89863   0.00000  Uiso   1.00
C429   C     0.12693   0.22934   0.54864   0.00000  Uiso   1.00
C430   C     0.19036   0.28428   0.94939   0.00000  Uiso   1.00
C431   C     0.16660   0.25004   0.52733   0.00000  Uiso   1.00
C432   C     0.16657   0.25006   0.97265   0.00000  Uiso   1.00
C433   C     0.06789   0.25000   0.73755   0.00000  Uiso   1.00
C434   C     0.26544   0.25005   0.76245   0.00000  Uiso   1.00
C435   C     0.01263   0.25003   0.73067   0.00000  Uiso   1.00
C436   C     0.32071   0.25010   0.76932   0.00000  Uiso   1.00
C437   C     0.19700   0.04831   0.78861   0.00000  Uiso   1.00
C438   C     0.19892   0.45181   0.72142   0.00000  Uiso   1.00
C439   C     0.19506   0.09448   0.78757   0.00000  Uiso   1.00
C440   C     0.19692   0.40563   0.72168   0.00000  Uiso   1.00
C441   C     0.16534   0.11652   0.74914   0.00000  Uiso   1.00
C442   C     0.16539   0.38338   0.75060   0.00000  Uiso   1.00
C443   C     0.13600   0.09202   0.71131   0.00000  Uiso   1.00
C444   C     0.13433   0.40757   0.77926   0.00000  Uiso   1.00
C445   C     0.13777   0.04586   0.71272   0.00000  Uiso   1.00
C446   C     0.13613   0.45375   0.77857   0.00000  Uiso   1.00
C447   C     0.16814   0.02412   0.75067   0.00000  Uiso   1.00
C448   C     0.16824   0.47575   0.75027   0.00000  Uiso   1.00
Cu449  Cu    0.16667   0.25000   0.79822   0.00000  Uiso   1.00
Cu450  Cu    0.16667   0.25001   0.70179   0.00000  Uiso   1.00
H451   H     0.32598   0.24997   0.69359   0.00000  Uiso   1.00
H452   H     0.00737   0.25016   0.80639   0.00000  Uiso   1.00
H453   H     0.21747   0.11346   0.81641   0.00000  Uiso   1.00
H454   H     0.22065   0.38680   0.69988   0.00000  Uiso   1.00
H455   H     0.11543   0.02649   0.68416   0.00000  Uiso   1.00
H456   H     0.11241   0.47291   0.80009   0.00000  Uiso   1.00
H457   H     0.23844   0.28650   0.54557   0.00000  Uiso   1.00
H458   H     0.12457   0.18814   0.95810   0.00000  Uiso   1.00
H459   H     0.23602   0.28698   0.63359   0.00000  Uiso   1.00
H460   H     0.12401   0.19022   0.86972   0.00000  Uiso   1.00
H461   H     0.09725   0.21315   0.61502   0.00000  Uiso   1.00
H462   H     0.20904   0.30989   0.88165   0.00000  Uiso   1.00
H463   H     0.09476   0.21358   0.52635   0.00000  Uiso   1.00
H464   H     0.20847   0.31203   0.96994   0.00000  Uiso   1.00
N465   N     0.16667   0.25001   0.62935   0.00000  Uiso   1.00
N466   N     0.16667   0.24999   0.87066   0.00000  Uiso   1.00
O467   O     0.16667   0.18573   0.79072   0.00000  Uiso   1.00
O468   O     0.16666   0.31428   0.70929   0.00000  Uiso   1.00
O469   O     0.16667   0.18573   0.70928   0.00000  Uiso   1.00
O470   O     0.16666   0.31427   0.79072   0.00000  Uiso   1.00
O471   O     0.09161   0.24999   0.78132   0.00000  Uiso   1.00
O472   O     0.24172   0.25001   0.71868   0.00000  Uiso   1.00
O473   O     0.09161   0.25000   0.69989   0.00000  Uiso   1.00
O474   O     0.24172   0.25000   0.80012   0.00000  Uiso   1.00
C475   C     0.23015   0.02536   0.82967   0.00000  Uiso   1.00
H476   H     0.20576   0.00431   0.84996   0.00000  Uiso   1.00
H477   H     0.25907   0.00430   0.81481   0.00000  Uiso   1.00
H478   H     0.25111   0.04942   0.85575   0.00000  Uiso   1.00
C479   C     0.23404   0.47503   0.69098   0.00000  Uiso   1.00
H480   H     0.21097   0.49602   0.66342   0.00000  Uiso   1.00
H481   H     0.26190   0.49618   0.71468   0.00000  Uiso   1.00
H482   H     0.25625   0.45115   0.67151   0.00000  Uiso   1.00
C483   C     0.10160   0.11402   0.67029   0.00000  Uiso   1.00
H484   H     0.12538   0.13152   0.64624   0.00000  Uiso   1.00
H485   H     0.07720   0.08956   0.64751   0.00000  Uiso   1.00
H486   H     0.07551   0.13788   0.68521   0.00000  Uiso   1.00
C487   C     0.09806   0.38516   0.80926   0.00000  Uiso   1.00
H488   H     0.07275   0.36150   0.78620   0.00000  Uiso   1.00
H489   H     0.12034   0.36730   0.84007   0.00000  Uiso   1.00
H490   H     0.07288   0.40941   0.82483   0.00000  Uiso   1.00
C491   C     0.49906   0.16493   0.74965   0.00000  Uiso   1.00
C492   C     0.49911   0.33504   0.75011   0.00000  Uiso   1.00
C493   C     0.53963   0.27072   0.55926   0.00000  Uiso   1.00
C494   C     0.47608   0.21585   0.94268   0.00000  Uiso   1.00
C495   C     0.53873   0.27059   0.60988   0.00000  Uiso   1.00
C496   C     0.47623   0.21662   0.89198   0.00000  Uiso   1.00
C497   C     0.46123   0.22946   0.59950   0.00000  Uiso   1.00
C498   C     0.52360   0.28345   0.89863   0.00000  Uiso   1.00
C499   C     0.46027   0.22934   0.54864   0.00000  Uiso   1.00
C500   C     0.52369   0.28428   0.94939   0.00000  Uiso   1.00
C501   C     0.49993   0.25004   0.52733   0.00000  Uiso   1.00
C502   C     0.49990   0.25006   0.97265   0.00000  Uiso   1.00
C503   C     0.40123   0.25000   0.73755   0.00000  Uiso   1.00
C504   C     0.59878   0.25005   0.76245   0.00000  Uiso   1.00
C505   C     0.34596   0.25003   0.73067   0.00000  Uiso   1.00
C506   C     0.65405   0.25010   0.76932   0.00000  Uiso   1.00
C507   C     0.53033   0.04831   0.78861   0.00000  Uiso   1.00
C508   C     0.53225   0.45181   0.72142   0.00000  Uiso   1.00
C509   C     0.52839   0.09448   0.78757   0.00000  Uiso   1.00
C510   C     0.53025   0.40563   0.72168   0.00000  Uiso   1.00
C511   C     0.49867   0.11652   0.74914   0.00000  Uiso   1.00
C512   C     0.49872   0.38338   0.75060   0.00000  Uiso   1.00
C513   C     0.46933   0.09202   0.71131   0.00000  Uiso   1.00
C514   C     0.46766   0.40757   0.77926   0.00000  Uiso   1.00
C515   C     0.47110   0.04586   0.71272   0.00000  Uiso   1.00
C516   C     0.46946   0.45375   0.77857   0.00000  Uiso   1.00
C517   C     0.50147   0.02412   0.75067   0.00000  Uiso   1.00
C518   C     0.50157   0.47575   0.75027   0.00000  Uiso   1.00
Cu519  Cu    0.50000   0.25000   0.79822   0.00000  Uiso   1.00
Cu520  Cu    0.50000   0.25001   0.70179   0.00000  Uiso   1.00
H521   H     0.65931   0.24997   0.69359   0.00000  Uiso   1.00
H522   H     0.34071   0.25016   0.80639   0.00000  Uiso   1.00
H523   H     0.55080   0.11346   0.81641   0.00000  Uiso   1.00
H524   H     0.55398   0.38680   0.69988   0.00000  Uiso   1.00
H525   H     0.44876   0.02649   0.68416   0.00000  Uiso   1.00
H526   H     0.44574   0.47291   0.80009   0.00000  Uiso   1.00
H527   H     0.57177   0.28650   0.54557   0.00000  Uiso   1.00
H528   H     0.45790   0.18814   0.95810   0.00000  Uiso   1.00
H529   H     0.56936   0.28698   0.63359   0.00000  Uiso   1.00
H530   H     0.45734   0.19022   0.86972   0.00000  Uiso   1.00
H531   H     0.43058   0.21315   0.61502   0.00000  Uiso   1.00
H532   H     0.54237   0.30989   0.88165   0.00000  Uiso   1.00
H533   H     0.42809   0.21358   0.52635   0.00000  Uiso   1.00
H534   H     0.54180   0.31203   0.96994   0.00000  Uiso   1.00
N535   N     0.50000   0.25001   0.62935   0.00000  Uiso   1.00
N536   N     0.50000   0.24999   0.87066   0.00000  Uiso   1.00
O537   O     0.50000   0.18573   0.79072   0.00000  Uiso   1.00
O538   O     0.50000   0.31428   0.70929   0.00000  Uiso   1.00
O539   O     0.50000   0.18573   0.70928   0.00000  Uiso   1.00
O540   O     0.50000   0.31427   0.79072   0.00000  Uiso   1.00
O541   O     0.42495   0.24999   0.78132   0.00000  Uiso   1.00
O542   O     0.57505   0.25001   0.71868   0.00000  Uiso   1.00
O543   O     0.42495   0.25000   0.69989   0.00000  Uiso   1.00
O544   O     0.57505   0.25000   0.80012   0.00000  Uiso   1.00
C545   C     0.56348   0.02536   0.82967   0.00000  Uiso   1.00
H546   H     0.53909   0.00431   0.84996   0.00000  Uiso   1.00
H547   H     0.59240   0.00430   0.81481   0.00000  Uiso   1.00
H548   H     0.58444   0.04942   0.85575   0.00000  Uiso   1.00
C549   C     0.56737   0.47503   0.69098   0.00000  Uiso   1.00
H550   H     0.54430   0.49602   0.66342   0.00000  Uiso   1.00
H551   H     0.59523   0.49618   0.71468   0.00000  Uiso   1.00
H552   H     0.58958   0.45115   0.67151   0.00000  Uiso   1.00
C553   C     0.43494   0.11402   0.67029   0.00000  Uiso   1.00
H554   H     0.45872   0.13152   0.64624   0.00000  Uiso   1.00
H555   H     0.41053   0.08956   0.64751   0.00000  Uiso   1.00
H556   H     0.40884   0.13788   0.68521   0.00000  Uiso   1.00
C557   C     0.43139   0.38516   0.80926   0.00000  Uiso   1.00
H558   H     0.40608   0.36150   0.78620   0.00000  Uiso   1.00
H559   H     0.45367   0.36730   0.84007   0.00000  Uiso   1.00
H560   H     0.40621   0.40941   0.82483   0.00000  Uiso   1.00
C561   C     0.83240   0.16493   0.74965   0.00000  Uiso   1.00
C562   C     0.83245   0.33504   0.75011   0.00000  Uiso   1.00
C563   C     0.87296   0.27072   0.55926   0.00000  Uiso   1.00
C564   C     0.80941   0.21585   0.94268   0.00000  Uiso   1.00
C565   C     0.87206   0.27059   0.60988   0.00000  Uiso   1.00
C566   C     0.80957   0.21662   0.89198   0.00000  Uiso   1.00
C567   C     0.79456   0.22946   0.59950   0.00000  Uiso   1.00
C568   C     0.85693   0.28345   0.89863   0.00000  Uiso   1.00
C569   C     0.79360   0.22934   0.54864   0.00000  Uiso   1.00
C570   C     0.85703   0.28428   0.94939   0.00000  Uiso   1.00
C571   C     0.83326   0.25004   0.52733   0.00000  Uiso   1.00
C572   C     0.83323   0.25006   0.97265   0.00000  Uiso   1.00
C573   C     0.73456   0.25000   0.73755   0.00000  Uiso   1.00
C574   C     0.93211   0.25005   0.76245   0.00000  Uiso   1.00
C575   C     0.67929   0.25003   0.73067   0.00000  Uiso   1.00
C576   C     0.98738   0.25010   0.76932   0.00000  Uiso   1.00
C577   C     0.86366   0.04831   0.78861   0.00000  Uiso   1.00
C578   C     0.86558   0.45181   0.72142   0.00000  Uiso   1.00
C579   C     0.86172   0.09448   0.78757   0.00000  Uiso   1.00
C580   C     0.86358   0.40563   0.72168   0.00000  Uiso   1.00
C581   C     0.83201   0.11652   0.74914   0.00000  Uiso   1.00
C582   C     0.83205   0.38338   0.75060   0.00000  Uiso   1.00
C583   C     0.80266   0.09202   0.71131   0.00000  Uiso   1.00
C584   C     0.80100   0.40757   0.77926   0.00000  Uiso   1.00
C585   C     0.80444   0.04586   0.71272   0.00000  Uiso   1.00
C586   C     0.80279   0.45375   0.77857   0.00000  Uiso   1.00
C587   C     0.83481   0.02412   0.75067   0.00000  Uiso   1.00
C588   C     0.83490   0.47575   0.75027   0.00000  Uiso   1.00
Cu589  Cu    0.83333   0.25000   0.79822   0.00000  Uiso   1.00
Cu590  Cu    0.83333   0.25001   0.70179   0.00000  Uiso   1.00
H591   H     0.99264   0.24997   0.69359   0.00000  Uiso   1.00
H592   H     0.67404   0.25016   0.80639   0.00000  Uiso   1.00
H593   H     0.88413   0.11346   0.81641   0.00000  Uiso   1.00
H594   H     0.88732   0.38680   0.69988   0.00000  Uiso   1.00
H595   H     0.78209   0.02649   0.68416   0.00000  Uiso   1.00
H596   H     0.77908   0.47291   0.80009   0.00000  Uiso   1.00
H597   H     0.90510   0.28650   0.54557   0.00000  Uiso   1.00
H598   H     0.79124   0.18814   0.95810   0.00000  Uiso   1.00
H599   H     0.90269   0.28698   0.63359   0.00000  Uiso   1.00
H600   H     0.79068   0.19022   0.86972   0.00000  Uiso   1.00
H601   H     0.76391   0.21315   0.61502   0.00000  Uiso   1.00
H602   H     0.87571   0.30989   0.88165   0.00000  Uiso   1.00
H603   H     0.76142   0.21358   0.52635   0.00000  Uiso   1.00
H604   H     0.87513   0.31203   0.96994   0.00000  Uiso   1.00
N605   N     0.83333   0.25001   0.62935   0.00000  Uiso   1.00
N606   N     0.83333   0.24999   0.87066   0.00000  Uiso   1.00
O607   O     0.83334   0.18573   0.79072   0.00000  Uiso   1.00
O608   O     0.83333   0.31428   0.70929   0.00000  Uiso   1.00
O609   O     0.83334   0.18573   0.70928   0.00000  Uiso   1.00
O610   O     0.83333   0.31427   0.79072   0.00000  Uiso   1.00
O611   O     0.75828   0.24999   0.78132   0.00000  Uiso   1.00
O612   O     0.90839   0.25001   0.71868   0.00000  Uiso   1.00
O613   O     0.75828   0.25000   0.69989   0.00000  Uiso   1.00
O614   O     0.90839   0.25000   0.80012   0.00000  Uiso   1.00
C615   C     0.89682   0.02536   0.82967   0.00000  Uiso   1.00
H616   H     0.87242   0.00431   0.84996   0.00000  Uiso   1.00
H617   H     0.92574   0.00430   0.81481   0.00000  Uiso   1.00
H618   H     0.91777   0.04942   0.85575   0.00000  Uiso   1.00
C619   C     0.90070   0.47503   0.69098   0.00000  Uiso   1.00
H620   H     0.87763   0.49602   0.66342   0.00000  Uiso   1.00
H621   H     0.92857   0.49618   0.71468   0.00000  Uiso   1.00
H622   H     0.92292   0.45115   0.67151   0.00000  Uiso   1.00
C623   C     0.76827   0.11402   0.67029   0.00000  Uiso   1.00
H624   H     0.79205   0.13152   0.64624   0.00000  Uiso   1.00
H625   H     0.74387   0.08956   0.64751   0.00000  Uiso   1.00
H626   H     0.74218   0.13788   0.68521   0.00000  Uiso   1.00
C627   C     0.76472   0.38516   0.80926   0.00000  Uiso   1.00
H628   H     0.73942   0.36150   0.78620   0.00000  Uiso   1.00
H629   H     0.78700   0.36730   0.84007   0.00000  Uiso   1.00
H630   H     0.73955   0.40941   0.82483   0.00000  Uiso   1.00
C631   C     0.16573   0.66493   0.74965   0.00000  Uiso   1.00
C632   C     0.16578   0.83504   0.75011   0.00000  Uiso   1.00
C633   C     0.20630   0.77072   0.55926   0.00000  Uiso   1.00
C634   C     0.14274   0.71585   0.94268   0.00000  Uiso   1.00
C635   C     0.20539   0.77059   0.60988   0.00000  Uiso   1.00
C636   C     0.14290   0.71662   0.89198   0.00000  Uiso   1.00
C637   C     0.12790   0.72946   0.59950   0.00000  Uiso   1.00
C638   C     0.19026   0.78345   0.89863   0.00000  Uiso   1.00
C639   C     0.12693   0.72934   0.54864   0.00000  Uiso   1.00
C640   C     0.19036   0.78428   0.94939   0.00000  Uiso   1.00
C641   C     0.16660   0.75004   0.52733   0.00000  Uiso   1.00
C642   C     0.16657   0.75006   0.97265   0.00000  Uiso   1.00
C643   C     0.06789   0.75000   0.73755   0.00000  Uiso   1.00
C644   C     0.26544   0.75005   0.76245   0.00000  Uiso   1.00
C645   C     0.01263   0.75003   0.73067   0.00000  Uiso   1.00
C646   C     0.32071   0.75010   0.76932   0.00000  Uiso   1.00
C647   C     0.19700   0.54831   0.78861   0.00000  Uiso   1.00
C648   C     0.19892   0.95181   0.72142   0.00000  Uiso   1.00
C649   C     0.19506   0.59448   0.78757   0.00000  Uiso   1.00
C650   C     0.19692   0.90563   0.72168   0.00000  Uiso   1.00
C651   C     0.16534   0.61652   0.74914   0.00000  Uiso   1.00
C652   C     0.16539   0.88338   0.75060   0.00000  Uiso   1.00
C653   C     0.13600   0.59202   0.71131   0.00000  Uiso   1.00
C654   C     0.13433   0.90757   0.77926   0.00000  Uiso   1.00
C655   C     0.13777   0.54586   0.71272   0.00000  Uiso   1.00
C656   C     0.13613   0.95375   0.77857   0.00000  Uiso   1.00
C657   C     0.16814   0.52412   0.75067   0.00000  Uiso   1.00
C658   C     0.16824   0.97575   0.75027   0.00000  Uiso   1.00
Cu659  Cu    0.16667   0.75000   0.79822   0.00000  Uiso   1.00
Cu660  Cu    0.16667   0.75001   0.70179   0.00000  Uiso   1.00
H661   H     0.32598   0.74997   0.69359   0.00000  Uiso   1.00
H662   H     0.00737   0.75016   0.80639   0.00000  Uiso   1.00
H663   H     0.21747   0.61346   0.81641   0.00000  Uiso   1.00
H664   H     0.22065   0.88680   0.69988   0.00000  Uiso   1.00
H665   H     0.11543   0.52649   0.68416   0.00000  Uiso   1.00
H666   H     0.11241   0.97291   0.80009   0.00000  Uiso   1.00
H667   H     0.23844   0.78650   0.54557   0.00000  Uiso   1.00
H668   H     0.12457   0.68814   0.95810   0.00000  Uiso   1.00
H669   H     0.23602   0.78698   0.63359   0.00000  Uiso   1.00
H670   H     0.12401   0.69022   0.86972   0.00000  Uiso   1.00
H671   H     0.09725   0.71315   0.61502   0.00000  Uiso   1.00
H672   H     0.20904   0.80989   0.88165   0.00000  Uiso   1.00
H673   H     0.09476   0.71358   0.52635   0.00000  Uiso   1.00
H674   H     0.20847   0.81203   0.96994   0.00000  Uiso   1.00
N675   N     0.16667   0.75001   0.62935   0.00000  Uiso   1.00
N676   N     0.16667   0.74999   0.87066   0.00000  Uiso   1.00
O677   O     0.16667   0.68573   0.79072   0.00000  Uiso   1.00
O678   O     0.16666   0.81428   0.70929   0.00000  Uiso   1.00
O679   O     0.16667   0.68573   0.70928   0.00000  Uiso   1.00
O680   O     0.16666   0.81427   0.79072   0.00000  Uiso   1.00
O681   O     0.09161   0.74999   0.78132   0.00000  Uiso   1.00
O682   O     0.24172   0.75001   0.71868   0.00000  Uiso   1.00
O683   O     0.09161   0.75000   0.69989   0.00000  Uiso   1.00
O684   O     0.24172   0.75000   0.80012   0.00000  Uiso   1.00
C685   C     0.23015   0.52536   0.82967   0.00000  Uiso   1.00
H686   H     0.20576   0.50431   0.84996   0.00000  Uiso   1.00
H687   H     0.25907   0.50430   0.81481   0.00000  Uiso   1.00
H688   H     0.25111   0.54942   0.85575   0.00000  Uiso   1.00
C689   C     0.23404   0.97503   0.69098   0.00000  Uiso   1.00
H690   H     0.21097   0.99602   0.66342   0.00000  Uiso   1.00
H691   H     0.26190   0.99618   0.71468   0.00000  Uiso   1.00
H692   H     0.25625   0.95115   0.67151   0.00000  Uiso   1.00
C693   C     0.10160   0.61402   0.67029   0.00000  Uiso   1.00
H694   H     0.12538   0.63152   0.64624   0.00000  Uiso   1.00
H695   H     0.07720   0.58956   0.64751   0.00000  Uiso   1.00
H696   H     0.07551   0.63788   0.68521   0.00000  Uiso   1.00
C697   C     0.09806   0.88516   0.80926   0.00000  Uiso   1.00
H698   H     0.07275   0.86150   0.78620   0.00000  Uiso   1.00
H699   H     0.12034   0.86730   0.84007   0.00000  Uiso   1.00
H700   H     0.07288   0.90941   0.82483   0.00000  Uiso   1.00
C701   C     0.49906   0.66493   0.74965   0.00000  Uiso   1.00
C702   C     0.49911   0.83504   0.75011   0.00000  Uiso   1.00
C703   C     0.53963   0.77072   0.55926   0.00000  Uiso   1.00
C704   C     0.47608   0.71585   0.94268   0.00000  Uiso   1.00
C705   C     0.53873   0.77059   0.60988   0.00000  Uiso   1.00
C706   C     0.47623   0.71662   0.89198   0.00000  Uiso   1.00
C707   C     0.46123   0.72946   0.59950   0.00000  Uiso   1.00
C708   C     0.52360   0.78345   0.89863   0.00000  Uiso   1.00
C709   C     0.46027   0.72934   0.54864   0.00000  Uiso   1.00
C710   C     0.52369   0.78428   0.94939   0.00000  Uiso   1.00
C711   C     0.49993   0.75004   0.52733   0.00000  Uiso   1.00
C712   C     0.49990   0.75006   0.97265   0.00000  Uiso   1.00
C713   C     0.40123   0.75000   0.73755   0.00000  Uiso   1.00
C714   C     0.59878   0.75005   0.76245   0.00000  Uiso   1.00
C715   C     0.34596   0.75003   0.73067   0.00000  Uiso   1.00
C716   C     0.65405   0.75010   0.76932   0.00000  Uiso   1.00
C717   C     0.53033   0.54831   0.78861   0.00000  Uiso   1.00
C718   C     0.53225   0.95181   0.72142   0.00000  Uiso   1.00
C719   C     0.52839   0.59448   0.78757   0.00000  Uiso   1.00
C720   C     0.53025   0.90563   0.72168   0.00000  Uiso   1.00
C721   C     0.49867   0.61652   0.74914   0.00000  Uiso   1.00
C722   C     0.49872   0.88338   0.75060   0.00000  Uiso   1.00
C723   C     0.46933   0.59202   0.71131   0.00000  Uiso   1.00
C724   C     0.46766   0.90757   0.77926   0.00000  Uiso   1.00
C725   C     0.47110   0.54586   0.71272   0.00000  Uiso   1.00
C726   C     0.46946   0.95375   0.77857   0.00000  Uiso   1.00
C727   C     0.50147   0.52412   0.75067   0.00000  Uiso   1.00
C728   C     0.50157   0.97575   0.75027   0.00000  Uiso   1.00
Cu729  Cu    0.50000   0.75000   0.79822   0.00000  Uiso   1.00
Cu730  Cu    0.50000   0.75001   0.70179   0.00000  Uiso   1.00
H731   H     0.65931   0.74997   0.69359   0.00000  Uiso   1.00
H732   H     0.34071   0.75016   0.80639   0.00000  Uiso   1.00
H733   H     0.55080   0.61346   0.81641   0.00000  Uiso   1.00
H734   H     0.55398   0.88680   0.69988   0.00000  Uiso   1.00
H735   H     0.44876   0.52649   0.68416   0.00000  Uiso   1.00
H736   H     0.44574   0.97291   0.80009   0.00000  Uiso   1.00
H737   H     0.57177   0.78650   0.54557   0.00000  Uiso   1.00
H738   H     0.45790   0.68814   0.95810   0.00000  Uiso   1.00
H739   H     0.56936   0.78698   0.63359   0.00000  Uiso   1.00
H740   H     0.45734   0.69022   0.86972   0.00000  Uiso   1.00
H741   H     0.43058   0.71315   0.61502   0.00000  Uiso   1.00
H742   H     0.54237   0.80989   0.88165   0.00000  Uiso   1.00
H743   H     0.42809   0.71358   0.52635   0.00000  Uiso   1.00
H744   H     0.54180   0.81203   0.96994   0.00000  Uiso   1.00
N745   N     0.50000   0.75001   0.62935   0.00000  Uiso   1.00
N746   N     0.50000   0.74999   0.87066   0.00000  Uiso   1.00
O747   O     0.50000   0.68573   0.79072   0.00000  Uiso   1.00
O748   O     0.50000   0.81428   0.70929   0.00000  Uiso   1.00
O749   O     0.50000   0.68573   0.70928   0.00000  Uiso   1.00
O750   O     0.50000   0.81427   0.79072   0.00000  Uiso   1.00
O751   O     0.42495   0.74999   0.78132   0.00000  Uiso   1.00
O752   O     0.57505   0.75001   0.71868   0.00000  Uiso   1.00
O753   O     0.42495   0.75000   0.69989   0.00000  Uiso   1.00
O754   O     0.57505   0.75000   0.80012   0.00000  Uiso   1.00
C755   C     0.56348   0.52536   0.82967   0.00000  Uiso   1.00
H756   H     0.53909   0.50431   0.84996   0.00000  Uiso   1.00
H757   H     0.59240   0.50430   0.81481   0.00000  Uiso   1.00
H758   H     0.58444   0.54942   0.85575   0.00000  Uiso   1.00
C759   C     0.56737   0.97503   0.69098   0.00000  Uiso   1.00
H760   H     0.54430   0.99602   0.66342   0.00000  Uiso   1.00
H761   H     0.59523   0.99618   0.71468   0.00000  Uiso   1.00
H762   H     0.58958   0.95115   0.67151   0.00000  Uiso   1.00
C763   C     0.43494   0.61402   0.67029   0.00000  Uiso   1.00
H764   H     0.45872   0.63152   0.64624   0.00000  Uiso   1.00
H765   H     0.41053   0.58956   0.64751   0.00000  Uiso   1.00
H766   H     0.40884   0.63788   0.68521   0.00000  Uiso   1.00
C767   C     0.43139   0.88516   0.80926   0.00000  Uiso   1.00
H768   H     0.40608   0.86150   0.78620   0.00000  Uiso   1.00
H769   H     0.45367   0.86730   0.84007   0.00000  Uiso   1.00
H770   H     0.40621   0.90941   0.82483   0.00000  Uiso   1.00
C771   C     0.83240   0.66493   0.74965   0.00000  Uiso   1.00
C772   C     0.83245   0.83504   0.75011   0.00000  Uiso   1.00
C773   C     0.87296   0.77072   0.55926   0.00000  Uiso   1.00
C774   C     0.80941   0.71585   0.94268   0.00000  Uiso   1.00
C775   C     0.87206   0.77059   0.60988   0.00000  Uiso   1.00
C776   C     0.80957   0.71662   0.89198   0.00000  Uiso   1.00
C777   C     0.79456   0.72946   0.59950   0.00000  Uiso   1.00
C778   C     0.85693   0.78345   0.89863   0.00000  Uiso   1.00
C779   C     0.79360   0.72934   0.54864   0.00000  Uiso   1.00
C780   C     0.85703   0.78428   0.94939   0.00000  Uiso   1.00
C781   C     0.83326   0.75004   0.52733   0.00000  Uiso   1.00
C782   C     0.83323   0.75006   0.97265   0.00000  Uiso   1.00
C783   C     0.73456   0.75000   0.73755   0.00000  Uiso   1.00
C784   C     0.93211   0.75005   0.76245   0.00000  Uiso   1.00
C785   C     0.67929   0.75003   0.73067   0.00000  Uiso   1.00
C786   C     0.98738   0.75010   0.76932   0.00000  Uiso   1.00
C787   C     0.86366   0.54831   0.78861   0.00000  Uiso   1.00
C788   C     0.86558   0.95181   0.72142   0.00000  Uiso   1.00
C789   C     0.86172   0.59448   0.78757   0.00000  Uiso   1.00
C790   C     0.86358   0.90563   0.72168   0.00000  Uiso   1.00
C791   C     0.83201   0.61652   0.74914   0.00000  Uiso   1.00
C792   C     0.83205   0.88338   0.75060   0.00000  Uiso   1.00
C793   C     0.80266   0.59202   0.71131   0.00000  Uiso   1.00
C794   C     0.80100   0.90757   0.77926   0.00000  Uiso   1.00
C795   C     0.80444   0.54586   0.71272   0.00000  Uiso   1.00
C796   C     0.80279   0.95375   0.77857   0.00000  Uiso   1.00
C797   C     0.83481   0.52412   0.75067   0.00000  Uiso   1.00
C798   C     0.83490   0.97575   0.75027   0.00000  Uiso   1.00
Cu799  Cu    0.83333   0.75000   0.79822   0.00000  Uiso   1.00
Cu800  Cu    0.83333   0.75001   0.70179   0.00000  Uiso   1.00
H801   H     0.99264   0.74997   0.69359   0.00000  Uiso   1.00
H802   H     0.67404   0.75016   0.80639   0.00000  Uiso   1.00
H803   H     0.88413   0.61346   0.81641   0.00000  Uiso   1.00
H804   H     0.88732   0.88680   0.69988   0.00000  Uiso   1.00
H805   H     0.78209   0.52649   0.68416   0.00000  Uiso   1.00
H806   H     0.77908   0.97291   0.80009   0.00000  Uiso   1.00
H807   H     0.90510   0.78650   0.54557   0.00000  Uiso   1.00
H808   H     0.79124   0.68814   0.95810   0.00000  Uiso   1.00
H809   H     0.90269   0.78698   0.63359   0.00000  Uiso   1.00
H810   H     0.79068   0.69022   0.86972   0.00000  Uiso   1.00
H811   H     0.76391   0.71315   0.61502   0.00000  Uiso   1.00
H812   H     0.87571   0.80989   0.88165   0.00000  Uiso   1.00
H813   H     0.76142   0.71358   0.52635   0.00000  Uiso   1.00
H814   H     0.87513   0.81203   0.96994   0.00000  Uiso   1.00
N815   N     0.83333   0.75001   0.62935   0.00000  Uiso   1.00
N816   N     0.83333   0.74999   0.87066   0.00000  Uiso   1.00
O817   O     0.83334   0.68573   0.79072   0.00000  Uiso   1.00
O818   O     0.83333   0.81428   0.70929   0.00000  Uiso   1.00
O819   O     0.83334   0.68573   0.70928   0.00000  Uiso   1.00
O820   O     0.83333   0.81427   0.79072   0.00000  Uiso   1.00
O821   O     0.75828   0.74999   0.78132   0.00000  Uiso   1.00
O822   O     0.90839   0.75001   0.71868   0.00000  Uiso   1.00
O823   O     0.75828   0.75000   0.69989   0.00000  Uiso   1.00
O824   O     0.90839   0.75000   0.80012   0.00000  Uiso   1.00
C825   C     0.89682   0.52536   0.82967   0.00000  Uiso   1.00
H826   H     0.87242   0.50431   0.84996   0.00000  Uiso   1.00
H827   H     0.92574   0.50430   0.81481   0.00000  Uiso   1.00
H828   H     0.91777   0.54942   0.85575   0.00000  Uiso   1.00
C829   C     0.90070   0.97503   0.69098   0.00000  Uiso   1.00
H830   H     0.87763   0.99602   0.66342   0.00000  Uiso   1.00
H831   H     0.92857   0.99618   0.71468   0.00000  Uiso   1.00
H832   H     0.92292   0.95115   0.67151   0.00000  Uiso   1.00
C833   C     0.76827   0.61402   0.67029   0.00000  Uiso   1.00
H834   H     0.79205   0.63152   0.64624   0.00000  Uiso   1.00
H835   H     0.74387   0.58956   0.64751   0.00000  Uiso   1.00
H836   H     0.74218   0.63788   0.68521   0.00000  Uiso   1.00
C837   C     0.76472   0.88516   0.80926   0.00000  Uiso   1.00
H838   H     0.73942   0.86150   0.78620   0.00000  Uiso   1.00
H839   H     0.78700   0.86730   0.84007   0.00000  Uiso   1.00
H840   H     0.73955   0.90941   0.82483   0.00000  Uiso   1.00
loop_
_geom_bond_atom_site_label_1
_geom_bond_atom_site_label_2
_geom_bond_distance
_geom_bond_site_symmetry_2
_ccdc_geom_bond_type
C1     C21     1.462   .     S
C1     O47     1.294   .     A
C1     O49     1.291   .     A
C2     C22     1.460   .     S
C2     O50     1.290   .     A
C2     O48     1.293   .     A
C3     C5      1.407   .     A
C3     C11     1.411   .     A
C3     H37     1.081   .     S
C4     C6      1.407   .     A
C4     C12     1.411   .     A
C4     H38     1.081   .     S
C5     H39     1.081   .     S
C5     N45     1.364   .     A
C6     H40     1.081   .     S
C6     N46     1.364   .     A
C7     N45     1.364   .     A
C7     C9      1.407   .     A
C7     H41     1.081   .     S
C8     H42     1.081   .     S
C8     C10     1.407   .     A
C8     N46     1.364   .     A
C9     C11     1.411   .     A
C9     H43     1.081   .     S
C10    C12     1.411   .     A
C10    H44     1.081   .     S
C11    C432    1.516   1_554 S
C12    C431    1.516   .     S
C13    C15     1.434   .     S
C13    O51     1.285   .     A
C13    O53     1.287   .     A
C14    O52     1.285   .     A
C14    O54     1.287   .     A
C14    C16     1.434   .     S
C15    C156    1.335   1_455 S
C15    H171    1.087   1_455 S
C16    C85     1.335   .     S
C16    H102    1.087   .     S
C17    C55     1.507   .     S
C17    C27     1.407   .     A
C17    C19     1.396   .     A
C18    C28     1.407   .     A
C18    C59     1.507   .     S
C18    C20     1.396   .     A
C19    C21     1.403   .     A
C19    H33     1.084   .     S
C20    H34     1.084   .     S
C20    C22     1.402   .     A
C21    C23     1.415   .     A
C22    C24     1.415   .     A
C23    C25     1.396   .     A
C23    C63     1.509   .     S
C24    C67     1.509   .     S
C24    C26     1.396   .     A
C25    H35     1.085   .     S
C25    C27     1.397   .     A
C26    C28     1.397   .     A
C26    H36     1.084   .     S
C27    C238    1.461   1_545 S
C28    C237    1.461   .     S
Cu29   Cu30    2.674   .     S
Cu29   N46     2.009   .     S
Cu29   O47     1.951   .     S
Cu29   O50     1.954   .     S
Cu29   O51     1.957   .     S
Cu29   O54     1.959   .     S
Cu30   N45     2.009   .     S
Cu30   O48     1.951   .     S
Cu30   O49     1.954   .     S
Cu30   O53     1.959   .     S
Cu30   O52     1.957   .     S
H31    C85     1.087   .     S
H32    C156    1.087   1_455 S
C55    H56     1.110   .     S
C55    H57     1.110   .     S
C55    H58     1.111   .     S
C59    H60     1.110   .     S
C59    H61     1.110   .     S
C59    H62     1.111   .     S
C63    H65     1.111   .     S
C63    H66     1.111   .     S
C63    H64     1.109   .     S
C67    H70     1.111   .     S
C67    H68     1.111   .     S
C67    H69     1.110   .     S
C71    C91     1.462   .     S
C71    O117    1.294   .     A
C71    O119    1.291   .     A
C72    C92     1.460   .     S
C72    O120    1.290   .     A
C72    O118    1.293   .     A
C73    C75     1.407   .     A
C73    C81     1.411   .     A
C73    H107    1.081   .     S
C74    C76     1.407   .     A
C74    C82     1.411   .     A
C74    H108    1.081   .     S
C75    H109    1.081   .     S
C75    N115    1.364   .     A
C76    H110    1.081   .     S
C76    N116    1.364   .     A
C77    N115    1.364   .     A
C77    C79     1.407   .     A
C77    H111    1.081   .     S
C78    H112    1.081   .     S
C78    C80     1.407   .     A
C78    N116    1.364   .     A
C79    C81     1.411   .     A
C79    H113    1.081   .     S
C80    C82     1.411   .     A
C80    H114    1.081   .     S
C81    C502    1.516   1_554 S
C82    C501    1.516   .     S
C83    C85     1.434   .     S
C83    O121    1.285   .     A
C83    O123    1.287   .     A
C84    O122    1.285   .     A
C84    O124    1.287   .     A
C84    C86     1.434   .     S
C86    C155    1.335   .     S
C86    H172    1.087   .     S
C87    C125    1.507   .     S
C87    C97     1.407   .     A
C87    C89     1.396   .     A
C88    C98     1.407   .     A
C88    C129    1.507   .     S
C88    C90     1.396   .     A
C89    C91     1.403   .     A
C89    H103    1.084   .     S
C90    H104    1.084   .     S
C90    C92     1.402   .     A
C91    C93     1.415   .     A
C92    C94     1.415   .     A
C93    C95     1.396   .     A
C93    C133    1.509   .     S
C94    C137    1.509   .     S
C94    C96     1.396   .     A
C95    H105    1.085   .     S
C95    C97     1.397   .     A
C96    C98     1.397   .     A
C96    H106    1.084   .     S
C97    C308    1.461   1_545 S
C98    C307    1.461   .     S
Cu99   Cu100   2.674   .     S
Cu99   N116    2.009   .     S
Cu99   O117    1.951   .     S
Cu99   O120    1.954   .     S
Cu99   O121    1.957   .     S
Cu99   O124    1.959   .     S
Cu100  N115    2.009   .     S
Cu100  O118    1.951   .     S
Cu100  O119    1.954   .     S
Cu100  O123    1.959   .     S
Cu100  O122    1.957   .     S
H101   C155    1.087   .     S
C125   H126    1.110   .     S
C125   H127    1.110   .     S
C125   H128    1.111   .     S
C129   H130    1.110   .     S
C129   H131    1.110   .     S
C129   H132    1.111   .     S
C133   H135    1.111   .     S
C133   H136    1.111   .     S
C133   H134    1.109   .     S
C137   H140    1.111   .     S
C137   H138    1.111   .     S
C137   H139    1.110   .     S
C141   C161    1.462   .     S
C141   O187    1.294   .     A
C141   O189    1.291   .     A
C142   C162    1.460   .     S
C142   O190    1.290   .     A
C142   O188    1.293   .     A
C143   C145    1.407   .     A
C143   C151    1.411   .     A
C143   H177    1.081   .     S
C144   C146    1.407   .     A
C144   C152    1.411   .     A
C144   H178    1.081   .     S
C145   H179    1.081   .     S
C145   N185    1.364   .     A
C146   H180    1.081   .     S
C146   N186    1.364   .     A
C147   N185    1.364   .     A
C147   C149    1.407   .     A
C147   H181    1.081   .     S
C148   H182    1.081   .     S
C148   C150    1.407   .     A
C148   N186    1.364   .     A
C149   C151    1.411   .     A
C149   H183    1.081   .     S
C150   C152    1.411   .     A
C150   H184    1.081   .     S
C151   C572    1.516   1_554 S
C152   C571    1.516   .     S
C153   C155    1.434   .     S
C153   O191    1.285   .     A
C153   O193    1.287   .     A
C154   O192    1.285   .     A
C154   O194    1.287   .     A
C154   C156    1.434   .     S
C156   C15     1.335   1_655 S
C156   H32     1.087   1_655 S
C157   C195    1.507   .     S
C157   C167    1.407   .     A
C157   C159    1.396   .     A
C158   C168    1.407   .     A
C158   C199    1.507   .     S
C158   C160    1.396   .     A
C159   C161    1.403   .     A
C159   H173    1.084   .     S
C160   H174    1.084   .     S
C160   C162    1.402   .     A
C161   C163    1.415   .     A
C162   C164    1.415   .     A
C163   C165    1.396   .     A
C163   C203    1.509   .     S
C164   C207    1.509   .     S
C164   C166    1.396   .     A
C165   H175    1.085   .     S
C165   C167    1.397   .     A
C166   C168    1.397   .     A
C166   H176    1.084   .     S
C167   C378    1.461   1_545 S
C168   C377    1.461   .     S
Cu169  Cu170   2.674   .     S
Cu169  N186    2.009   .     S
Cu169  O187    1.951   .     S
Cu169  O190    1.954   .     S
Cu169  O191    1.957   .     S
Cu169  O194    1.959   .     S
Cu170  N185    2.009   .     S
Cu170  O188    1.951   .     S
Cu170  O189    1.954   .     S
Cu170  O193    1.959   .     S
Cu170  O192    1.957   .     S
H171   C15     1.087   1_655 S
C195   H196    1.110   .     S
C195   H197    1.110   .     S
C195   H198    1.111   .     S
C199   H200    1.110   .     S
C199   H201    1.110   .     S
C199   H202    1.111   .     S
C203   H205    1.111   .     S
C203   H206    1.111   .     S
C203   H204    1.109   .     S
C207   H210    1.111   .     S
C207   H208    1.111   .     S
C207   H209    1.110   .     S
C211   C231    1.462   .     S
C211   O257    1.294   .     A
C211   O259    1.291   .     A
C212   C232    1.460   .     S
C212   O260    1.290   .     A
C212   O258    1.293   .     A
C213   C215    1.407   .     A
C213   C221    1.411   .     A
C213   H247    1.081   .     S
C214   C216    1.407   .     A
C214   C222    1.411   .     A
C214   H248    1.081   .     S
C215   H249    1.081   .     S
C215   N255    1.364   .     A
C216   H250    1.081   .     S
C216   N256    1.364   .     A
C217   N255    1.364   .     A
C217   C219    1.407   .     A
C217   H251    1.081   .     S
C218   H252    1.081   .     S
C218   C220    1.407   .     A
C218   N256    1.364   .     A
C219   C221    1.411   .     A
C219   H253    1.081   .     S
C220   C222    1.411   .     A
C220   H254    1.081   .     S
C221   C642    1.516   1_554 S
C222   C641    1.516   .     S
C223   C225    1.434   .     S
C223   O261    1.285   .     A
C223   O263    1.287   .     A
C224   O262    1.285   .     A
C224   O264    1.287   .     A
C224   C226    1.434   .     S
C225   C366    1.335   1_455 S
C225   H381    1.087   1_455 S
C226   C295    1.335   .     S
C226   H312    1.087   .     S
C227   C265    1.507   .     S
C227   C237    1.407   .     A
C227   C229    1.396   .     A
C228   C238    1.407   .     A
C228   C269    1.507   .     S
C228   C230    1.396   .     A
C229   C231    1.403   .     A
C229   H243    1.084   .     S
C230   H244    1.084   .     S
C230   C232    1.402   .     A
C231   C233    1.415   .     A
C232   C234    1.415   .     A
C233   C235    1.396   .     A
C233   C273    1.509   .     S
C234   C277    1.509   .     S
C234   C236    1.396   .     A
C235   H245    1.085   .     S
C235   C237    1.397   .     A
C236   C238    1.397   .     A
C236   H246    1.084   .     S
C238   C27     1.461   1_565 S
Cu239  Cu240   2.674   .     S
Cu239  N256    2.009   .     S
Cu239  O257    1.951   .     S
Cu239  O260    1.954   .     S
Cu239  O261    1.957   .     S
Cu239  O264    1.959   .     S
Cu240  N255    2.009   .     S
Cu240  O258    1.951   .     S
Cu240  O259    1.954   .     S
Cu240  O263    1.959   .     S
Cu240  O262    1.957   .     S
H241   C295    1.087   .     S
H242   C366    1.087   1_455 S
C265   H266    1.110   .     S
C265   H267    1.110   .     S
C265   H268    1.111   .     S
C269   H270    1.110   .     S
C269   H271    1.110   .     S
C269   H272    1.111   .     S
C273   H275    1.111   .     S
C273   H276    1.111   .     S
C273   H274    1.109   .     S
C277   H280    1.111   .     S
C277   H278    1.111   .     S
C277   H279    1.110   .     S
C281   C301    1.462   .     S
C281   O327    1.294   .     A
C281   O329    1.291   .     A
C282   C302    1.460   .     S
C282   O330    1.290   .     A
C282   O328    1.293   .     A
C283   C285    1.407   .     A
C283   C291    1.411   .     A
C283   H317    1.081   .     S
C284   C286    1.407   .     A
C284   C292    1.411   .     A
C284   H318    1.081   .     S
C285   H319    1.081   .     S
C285   N325    1.364   .     A
C286   H320    1.081   .     S
C286   N326    1.364   .     A
C287   N325    1.364   .     A
C287   C289    1.407   .     A
C287   H321    1.081   .     S
C288   H322    1.081   .     S
C288   C290    1.407   .     A
C288   N326    1.364   .     A
C289   C291    1.411   .     A
C289   H323    1.081   .     S
C290   C292    1.411   .     A
C290   H324    1.081   .     S
C291   C712    1.516   1_554 S
C292   C711    1.516   .     S
C293   C295    1.434   .     S
C293   O331    1.285   .     A
C293   O333    1.287   .     A
C294   O332    1.285   .     A
C294   O334    1.287   .     A
C294   C296    1.434   .     S
C296   C365    1.335   .     S
C296   H382    1.087   .     S
C297   C335    1.507   .     S
C297   C307    1.407   .     A
C297   C299    1.396   .     A
C298   C308    1.407   .     A
C298   C339    1.507   .     S
C298   C300    1.396   .     A
C299   C301    1.403   .     A
C299   H313    1.084   .     S
C300   H314    1.084   .     S
C300   C302    1.402   .     A
C301   C303    1.415   .     A
C302   C304    1.415   .     A
C303   C305    1.396   .     A
C303   C343    1.509   .     S
C304   C347    1.509   .     S
C304   C306    1.396   .     A
C305   H315    1.085   .     S
C305   C307    1.397   .     A
C306   C308    1.397   .     A
C306   H316    1.084   .     S
C308   C97     1.461   1_565 S
Cu309  Cu310   2.674   .     S
Cu309  N326    2.009   .     S
Cu309  O327    1.951   .     S
Cu309  O330    1.954   .     S
Cu309  O331    1.957   .     S
Cu309  O334    1.959   .     S
Cu310  N325    2.009   .     S
Cu310  O328    1.951   .     S
Cu310  O329    1.954   .     S
Cu310  O333    1.959   .     S
Cu310  O332    1.957   .     S
H311   C365    1.087   .     S
C335   H336    1.110   .     S
C335   H337    1.110   .     S
C335   H338    1.111   .     S
C339   H340    1.110   .     S
C339   H341    1.110   .     S
C339   H342    1.111   .     S
C343   H345    1.111   .     S
C343   H346    1.111   .     S
C343   H344    1.109   .     S
C347   H350    1.111   .     S
C347   H348    1.111   .     S
C347   H349    1.110   .     S
C351   C371    1.462   .     S
C351   O397    1.294   .     A
C351   O399    1.291   .     A
C352   C372    1.460   .     S
C352   O400    1.290   .     A
C352   O398    1.293   .     A
C353   C355    1.407   .     A
C353   C361    1.411   .     A
C353   H387    1.081   .     S
C354   C356    1.407   .     A
C354   C362    1.411   .     A
C354   H388    1.081   .     S
C355   H389    1.081   .     S
C355   N395    1.364   .     A
C356   H390    1.081   .     S
C356   N396    1.364   .     A
C357   N395    1.364   .     A
C357   C359    1.407   .     A
C357   H391    1.081   .     S
C358   H392    1.081   .     S
C358   C360    1.407   .     A
C358   N396    1.364   .     A
C359   C361    1.411   .     A
C359   H393    1.081   .     S
C360   C362    1.411   .     A
C360   H394    1.081   .     S
C361   C782    1.516   1_554 S
C362   C781    1.516   .     S
C363   C365    1.434   .     S
C363   O401    1.285   .     A
C363   O403    1.287   .     A
C364   O402    1.285   .     A
C364   O404    1.287   .     A
C364   C366    1.434   .     S
C366   C225    1.335   1_655 S
C366   H242    1.087   1_655 S
C367   C405    1.507   .     S
C367   C377    1.407   .     A
C367   C369    1.396   .     A
C368   C378    1.407   .     A
C368   C409    1.507   .     S
C368   C370    1.396   .     A
C369   C371    1.403   .     A
C369   H383    1.084   .     S
C370   H384    1.084   .     S
C370   C372    1.402   .     A
C371   C373    1.415   .     A
C372   C374    1.415   .     A
C373   C375    1.396   .     A
C373   C413    1.509   .     S
C374   C417    1.509   .     S
C374   C376    1.396   .     A
C375   H385    1.085   .     S
C375   C377    1.397   .     A
C376   C378    1.397   .     A
C376   H386    1.084   .     S
C378   C167    1.461   1_565 S
Cu379  Cu380   2.674   .     S
Cu379  N396    2.009   .     S
Cu379  O397    1.951   .     S
Cu379  O400    1.954   .     S
Cu379  O401    1.957   .     S
Cu379  O404    1.959   .     S
Cu380  N395    2.009   .     S
Cu380  O398    1.951   .     S
Cu380  O399    1.954   .     S
Cu380  O403    1.959   .     S
Cu380  O402    1.957   .     S
H381   C225    1.087   1_655 S
C405   H406    1.110   .     S
C405   H407    1.110   .     S
C405   H408    1.111   .     S
C409   H410    1.110   .     S
C409   H411    1.110   .     S
C409   H412    1.111   .     S
C413   H415    1.111   .     S
C413   H416    1.111   .     S
C413   H414    1.109   .     S
C417   H420    1.111   .     S
C417   H418    1.111   .     S
C417   H419    1.110   .     S
C421   C441    1.462   .     S
C421   O467    1.294   .     A
C421   O469    1.291   .     A
C422   C442    1.460   .     S
C422   O470    1.290   .     A
C422   O468    1.293   .     A
C423   C425    1.407   .     A
C423   C431    1.411   .     A
C423   H457    1.081   .     S
C424   C426    1.407   .     A
C424   C432    1.411   .     A
C424   H458    1.081   .     S
C425   H459    1.081   .     S
C425   N465    1.364   .     A
C426   H460    1.081   .     S
C426   N466    1.364   .     A
C427   N465    1.364   .     A
C427   C429    1.407   .     A
C427   H461    1.081   .     S
C428   H462    1.081   .     S
C428   C430    1.407   .     A
C428   N466    1.364   .     A
C429   C431    1.411   .     A
C429   H463    1.081   .     S
C430   C432    1.411   .     A
C430   H464    1.081   .     S
C432   C11     1.516   1_556 S
C433   C435    1.434   .     S
C433   O471    1.285   .     A
C433   O473    1.287   .     A
C434   O472    1.285   .     A
C434   O474    1.287   .     A
C434   C436    1.434   .     S
C435   C576    1.335   1_455 S
C435   H591    1.087   1_455 S
C436   C505    1.335   .     S
C436   H522    1.087   .     S
C437   C475    1.507   .     S
C437   C447    1.407   .     A
C437   C439    1.396   .     A
C438   C448    1.407   .     A
C438   C479    1.507   .     S
C438   C440    1.396   .     A
C439   C441    1.403   .     A
C439   H453    1.084   .     S
C440   H454    1.084   .     S
C440   C442    1.402   .     A
C441   C443    1.415   .     A
C442   C444    1.415   .     A
C443   C445    1.396   .     A
C443   C483    1.509   .     S
C444   C487    1.509   .     S
C444   C446    1.396   .     A
C445   H455    1.085   .     S
C445   C447    1.397   .     A
C446   C448    1.397   .     A
C446   H456    1.084   .     S
C447   C658    1.461   1_545 S
C448   C657    1.461   .     S
Cu449  Cu450   2.674   .     S
Cu449  N466    2.009   .     S
Cu449  O467    1.951   .     S
Cu449  O470    1.954   .     S
Cu449  O471    1.957   .     S
Cu449  O474    1.959   .     S
Cu450  N465    2.009   .     S
Cu450  O468    1.951   .     S
Cu450  O469    1.954   .     S
Cu450  O473    1.959   .     S
Cu450  O472    1.957   .     S
H451   C505    1.087   .     S
H452   C576    1.087   1_455 S
C475   H476    1.110   .     S
C475   H477    1.110   .     S
C475   H478    1.111   .     S
C479   H480    1.110   .     S
C479   H481    1.110   .     S
C479   H482    1.111   .     S
C483   H485    1.111   .     S
C483   H486    1.111   .     S
C483   H484    1.109   .     S
C487   H490    1.111   .     S
C487   H488    1.111   .     S
C487   H489    1.110   .     S
C491   C511    1.462   .     S
C491   O537    1.294   .     A
C491   O539    1.291   .     A
C492   C512    1.460   .     S
C492   O540    1.290   .     A
C492   O538    1.293   .     A
C493   C495    1.407   .     A
C493   C501    1.411   .     A
C493   H527    1.081   .     S
C494   C496    1.407   .     A
C494   C502    1.411   .     A
C494   H528    1.081   .     S
C495   H529    1.081   .     S
C495   N535    1.364   .     A
C496   H530    1.081   .     S
C496   N536    1.364   .     A
C497   N535    1.364   .     A
C497   C499    1.407   .     A
C497   H531    1.081   .     S
C498   H532    1.081   .     S
C498   C500    1.407   .     A
C498   N536    1.364   .     A
C499   C501    1.411   .     A
C499   H533    1.081   .     S
C500   C502    1.411   .     A
C500   H534    1.081   .     S
C502   C81     1.516   1_556 S
C503   C505    1.434   .     S
C503   O541    1.285   .     A
C503   O543    1.287   .     A
C504   O542    1.285   .     A
C504   O544    1.287   .     A
C504   C506    1.434   .     S
C506   C575    1.335   .     S
C506   H592    1.087   .     S
C507   C545    1.507   .     S
C507   C517    1.407   .     A
C507   C509    1.396   .     A
C508   C518    1.407   .     A
C508   C549    1.507   .     S
C508   C510    1.396   .     A
C509   C511    1.403   .     A
C509   H523    1.084   .     S
C510   H524    1.084   .     S
C510   C512    1.402   .     A
C511   C513    1.415   .     A
C512   C514    1.415   .     A
C513   C515    1.396   .     A
C513   C553    1.509   .     S
C514   C557    1.509   .     S
C514   C516    1.396   .     A
C515   H525    1.085   .     S
C515   C517    1.397   .     A
C516   C518    1.397   .     A
C516   H526    1.084   .     S
C517   C728    1.461   1_545 S
C518   C727    1.461   .     S
Cu519  Cu520   2.674   .     S
Cu519  N536    2.009   .     S
Cu519  O537    1.951   .     S
Cu519  O540    1.954   .     S
Cu519  O541    1.957   .     S
Cu519  O544    1.959   .     S
Cu520  N535    2.009   .     S
Cu520  O538    1.951   .     S
Cu520  O539    1.954   .     S
Cu520  O543    1.959   .     S
Cu520  O542    1.957   .     S
H521   C575    1.087   .     S
C545   H546    1.110   .     S
C545   H547    1.110   .     S
C545   H548    1.111   .     S
C549   H550    1.110   .     S
C549   H551    1.110   .     S
C549   H552    1.111   .     S
C553   H555    1.111   .     S
C553   H556    1.111   .     S
C553   H554    1.109   .     S
C557   H560    1.111   .     S
C557   H558    1.111   .     S
C557   H559    1.110   .     S
C561   C581    1.462   .     S
C561   O607    1.294   .     A
C561   O609    1.291   .     A
C562   C582    1.460   .     S
C562   O610    1.290   .     A
C562   O608    1.293   .     A
C563   C565    1.407   .     A
C563   C571    1.411   .     A
C563   H597    1.081   .     S
C564   C566    1.407   .     A
C564   C572    1.411   .     A
C564   H598    1.081   .     S
C565   H599    1.081   .     S
C565   N605    1.364   .     A
C566   H600    1.081   .     S
C566   N606    1.364   .     A
C567   N605    1.364   .     A
C567   C569    1.407   .     A
C567   H601    1.081   .     S
C568   H602    1.081   .     S
C568   C570    1.407   .     A
C568   N606    1.364   .     A
C569   C571    1.411   .     A
C569   H603    1.081   .     S
C570   C572    1.411   .     A
C570   H604    1.081   .     S
C572   C151    1.516   1_556 S
C573   C575    1.434   .     S
C573   O611    1.285   .     A
C573   O613    1.287   .     A
C574   O612    1.285   .     A
C574   O614    1.287   .     A
C574   C576    1.434   .     S
C576   C435    1.335   1_655 S
C576   H452    1.087   1_655 S
C577   C615    1.507   .     S
C577   C587    1.407   .     A
C577   C579    1.396   .     A
C578   C588    1.407   .     A
C578   C619    1.507   .     S
C578   C580    1.396   .     A
C579   C581    1.403   .     A
C579   H593    1.084   .     S
C580   H594    1.084   .     S
C580   C582    1.402   .     A
C581   C583    1.415   .     A
C582   C584    1.415   .     A
C583   C585    1.396   .     A
C583   C623    1.509   .     S
C584   C627    1.509   .     S
C584   C586    1.396   .     A
C585   H595    1.085   .     S
C585   C587    1.397   .     A
C586   C588    1.397   .     A
C586   H596    1.084   .     S
C587   C798    1.461   1_545 S
C588   C797    1.461   .     S
Cu589  Cu590   2.674   .     S
Cu589  N606    2.009   .     S
Cu589  O607    1.951   .     S
Cu589  O610    1.954   .     S
Cu589  O611    1.957   .     S
Cu589  O614    1.959   .     S
Cu590  N605    2.009   .     S
Cu590  O608    1.951   .     S
Cu590  O609    1.954   .     S
Cu590  O613    1.959   .     S
Cu590  O612    1.957   .     S
H591   C435    1.087   1_655 S
C615   H616    1.110   .     S
C615   H617    1.110   .     S
C615   H618    1.111   .     S
C619   H620    1.110   .     S
C619   H621    1.110   .     S
C619   H622    1.111   .     S
C623   H625    1.111   .     S
C623   H626    1.111   .     S
C623   H624    1.109   .     S
C627   H630    1.111   .     S
C627   H628    1.111   .     S
C627   H629    1.110   .     S
C631   C651    1.462   .     S
C631   O677    1.294   .     A
C631   O679    1.291   .     A
C632   C652    1.460   .     S
C632   O680    1.290   .     A
C632   O678    1.293   .     A
C633   C635    1.407   .     A
C633   C641    1.411   .     A
C633   H667    1.081   .     S
C634   C636    1.407   .     A
C634   C642    1.411   .     A
C634   H668    1.081   .     S
C635   H669    1.081   .     S
C635   N675    1.364   .     A
C636   H670    1.081   .     S
C636   N676    1.364   .     A
C637   N675    1.364   .     A
C637   C639    1.407   .     A
C637   H671    1.081   .     S
C638   H672    1.081   .     S
C638   C640    1.407   .     A
C638   N676    1.364   .     A
C639   C641    1.411   .     A
C639   H673    1.081   .     S
C640   C642    1.411   .     A
C640   H674    1.081   .     S
C642   C221    1.516   1_556 S
C643   C645    1.434   .     S
C643   O681    1.285   .     A
C643   O683    1.287   .     A
C644   O682    1.285   .     A
C644   O684    1.287   .     A
C644   C646    1.434   .     S
C645   C786    1.335   1_455 S
C645   H801    1.087   1_455 S
C646   C715    1.335   .     S
C646   H732    1.087   .     S
C647   C685    1.507   .     S
C647   C657    1.407   .     A
C647   C649    1.396   .     A
C648   C658    1.407   .     A
C648   C689    1.507   .     S
C648   C650    1.396   .     A
C649   C651    1.403   .     A
C649   H663    1.084   .     S
C650   H664    1.084   .     S
C650   C652    1.402   .     A
C651   C653    1.415   .     A
C652   C654    1.415   .     A
C653   C655    1.396   .     A
C653   C693    1.509   .     S
C654   C697    1.509   .     S
C654   C656    1.396   .     A
C655   H665    1.085   .     S
C655   C657    1.397   .     A
C656   C658    1.397   .     A
C656   H666    1.084   .     S
C658   C447    1.461   1_565 S
Cu659  Cu660   2.674   .     S
Cu659  N676    2.009   .     S
Cu659  O677    1.951   .     S
Cu659  O680    1.954   .     S
Cu659  O681    1.957   .     S
Cu659  O684    1.959   .     S
Cu660  N675    2.009   .     S
Cu660  O678    1.951   .     S
Cu660  O679    1.954   .     S
Cu660  O683    1.959   .     S
Cu660  O682    1.957   .     S
H661   C715    1.087   .     S
H662   C786    1.087   1_455 S
C685   H686    1.110   .     S
C685   H687    1.110   .     S
C685   H688    1.111   .     S
C689   H690    1.110   .     S
C689   H691    1.110   .     S
C689   H692    1.111   .     S
C693   H695    1.111   .     S
C693   H696    1.111   .     S
C693   H694    1.109   .     S
C697   H700    1.111   .     S
C697   H698    1.111   .     S
C697   H699    1.110   .     S
C701   C721    1.462   .     S
C701   O747    1.294   .     A
C701   O749    1.291   .     A
C702   C722    1.460   .     S
C702   O750    1.290   .     A
C702   O748    1.293   .     A
C703   C705    1.407   .     A
C703   C711    1.411   .     A
C703   H737    1.081   .     S
C704   C706    1.407   .     A
C704   C712    1.411   .     A
C704   H738    1.081   .     S
C705   H739    1.081   .     S
C705   N745    1.364   .     A
C706   H740    1.081   .     S
C706   N746    1.364   .     A
C707   N745    1.364   .     A
C707   C709    1.407   .     A
C707   H741    1.081   .     S
C708   H742    1.081   .     S
C708   C710    1.407   .     A
C708   N746    1.364   .     A
C709   C711    1.411   .     A
C709   H743    1.081   .     S
C710   C712    1.411   .     A
C710   H744    1.081   .     S
C712   C291    1.516   1_556 S
C713   C715    1.434   .     S
C713   O751    1.285   .     A
C713   O753    1.287   .     A
C714   O752    1.285   .     A
C714   O754    1.287   .     A
C714   C716    1.434   .     S
C716   C785    1.335   .     S
C716   H802    1.087   .     S
C717   C755    1.507   .     S
C717   C727    1.407   .     A
C717   C719    1.396   .     A
C718   C728    1.407   .     A
C718   C759    1.507   .     S
C718   C720    1.396   .     A
C719   C721    1.403   .     A
C719   H733    1.084   .     S
C720   H734    1.084   .     S
C720   C722    1.402   .     A
C721   C723    1.415   .     A
C722   C724    1.415   .     A
C723   C725    1.396   .     A
C723   C763    1.509   .     S
C724   C767    1.509   .     S
C724   C726    1.396   .     A
C725   H735    1.085   .     S
C725   C727    1.397   .     A
C726   C728    1.397   .     A
C726   H736    1.084   .     S
C728   C517    1.461   1_565 S
Cu729  Cu730   2.674   .     S
Cu729  N746    2.009   .     S
Cu729  O747    1.951   .     S
Cu729  O750    1.954   .     S
Cu729  O751    1.957   .     S
Cu729  O754    1.959   .     S
Cu730  N745    2.009   .     S
Cu730  O748    1.951   .     S
Cu730  O749    1.954   .     S
Cu730  O753    1.959   .     S
Cu730  O752    1.957   .     S
H731   C785    1.087   .     S
C755   H756    1.110   .     S
C755   H757    1.110   .     S
C755   H758    1.111   .     S
C759   H760    1.110   .     S
C759   H761    1.110   .     S
C759   H762    1.111   .     S
C763   H765    1.111   .     S
C763   H766    1.111   .     S
C763   H764    1.109   .     S
C767   H770    1.111   .     S
C767   H768    1.111   .     S
C767   H769    1.110   .     S
C771   C791    1.462   .     S
C771   O817    1.294   .     A
C771   O819    1.291   .     A
C772   C792    1.460   .     S
C772   O820    1.290   .     A
C772   O818    1.293   .     A
C773   C775    1.407   .     A
C773   C781    1.411   .     A
C773   H807    1.081   .     S
C774   C776    1.407   .     A
C774   C782    1.411   .     A
C774   H808    1.081   .     S
C775   H809    1.081   .     S
C775   N815    1.364   .     A
C776   H810    1.081   .     S
C776   N816    1.364   .     A
C777   N815    1.364   .     A
C777   C779    1.407   .     A
C777   H811    1.081   .     S
C778   H812    1.081   .     S
C778   C780    1.407   .     A
C778   N816    1.364   .     A
C779   C781    1.411   .     A
C779   H813    1.081   .     S
C780   C782    1.411   .     A
C780   H814    1.081   .     S
C782   C361    1.516   1_556 S
C783   C785    1.434   .     S
C783   O821    1.285   .     A
C783   O823    1.287   .     A
C784   O822    1.285   .     A
C784   O824    1.287   .     A
C784   C786    1.434   .     S
C786   C645    1.335   1_655 S
C786   H662    1.087   1_655 S
C787   C825    1.507   .     S
C787   C797    1.407   .     A
C787   C789    1.396   .     A
C788   C798    1.407   .     A
C788   C829    1.507   .     S
C788   C790    1.396   .     A
C789   C791    1.403   .     A
C789   H803    1.084   .     S
C790   H804    1.084   .     S
C790   C792    1.402   .     A
C791   C793    1.415   .     A
C792   C794    1.415   .     A
C793   C795    1.396   .     A
C793   C833    1.509   .     S
C794   C837    1.509   .     S
C794   C796    1.396   .     A
C795   H805    1.085   .     S
C795   C797    1.397   .     A
C796   C798    1.397   .     A
C796   H806    1.084   .     S
C798   C587    1.461   1_565 S
Cu799  Cu800   2.674   .     S
Cu799  N816    2.009   .     S
Cu799  O817    1.951   .     S
Cu799  O820    1.954   .     S
Cu799  O821    1.957   .     S
Cu799  O824    1.959   .     S
Cu800  N815    2.009   .     S
Cu800  O818    1.951   .     S
Cu800  O819    1.954   .     S
Cu800  O823    1.959   .     S
Cu800  O822    1.957   .     S
H801   C645    1.087   1_655 S
C825   H826    1.110   .     S
C825   H827    1.110   .     S
C825   H828    1.111   .     S
C829   H830    1.110   .     S
C829   H831    1.110   .     S
C829   H832    1.111   .     S
C833   H835    1.111   .     S
C833   H836    1.111   .     S
C833   H834    1.109   .     S
C837   H840    1.111   .     S
C837   H838    1.111   .     S
C837   H839    1.110   .     S
