data_str_m2_o1_o17_pcu_sym.211
_audit_creation_date              2020-01-03
_audit_creation_method            'Materials Studio'
_symmetry_space_group_name_H-M    'P1'
_symmetry_Int_Tables_number       1
_symmetry_cell_setting            triclinic
loop_
_symmetry_equiv_pos_as_xyz
  x,y,z
_cell_length_a                    32.4796
_cell_length_b                    28.5218
_cell_length_c                    30.2691
_cell_angle_alpha                 89.8332
_cell_angle_beta                  86.1992
_cell_angle_gamma                 90.0171
loop_
_atom_site_label
_atom_site_type_symbol
_atom_site_fract_x
_atom_site_fract_y
_atom_site_fract_z
_atom_site_U_iso_or_equiv
_atom_site_adp_type
_atom_site_occupancy
C1     C     0.08754   0.16669   0.24751   0.00000  Uiso   1.00
C2     C     0.24580   0.16666   0.25242   0.00000  Uiso   1.00
C3     C     0.09337   0.16300   0.03465   0.00000  Uiso   1.00
C4     C     0.23947   0.17745   0.46528   0.00000  Uiso   1.00
C5     C     0.02141   0.12418   0.24703   0.00000  Uiso   1.00
C6     C     0.31195   0.20925   0.25274   0.00000  Uiso   1.00
C7     C     0.31207   0.12411   0.24956   0.00000  Uiso   1.00
C8     C     0.02130   0.20931   0.25021   0.00000  Uiso   1.00
C9     C     0.29049   0.16665   0.25232   0.00000  Uiso   1.00
C10    C     0.04287   0.16676   0.24752   0.00000  Uiso   1.00
C11    C     0.14091   0.02488   0.22452   0.00000  Uiso   1.00
C12    C     0.19242   0.30845   0.27548   0.00000  Uiso   1.00
C13    C     0.19241   0.02474   0.27549   0.00000  Uiso   1.00
C14    C     0.14092   0.30858   0.22451   0.00000  Uiso   1.00
C15    C     0.17105   0.16674   0.16436   0.00000  Uiso   1.00
C16    C     0.16223   0.16658   0.33564   0.00000  Uiso   1.00
C17    C     0.19763   0.17169   0.40255   0.00000  Uiso   1.00
C18    C     0.13556   0.16292   0.09742   0.00000  Uiso   1.00
C19    C     0.15977   0.16651   0.38421   0.00000  Uiso   1.00
C20    C     0.17350   0.16693   0.11580   0.00000  Uiso   1.00
C21    C     0.12258   0.16229   0.41231   0.00000  Uiso   1.00
C22    C     0.21064   0.17161   0.08774   0.00000  Uiso   1.00
C23    C     0.12572   0.16397   0.45912   0.00000  Uiso   1.00
C24    C     0.20737   0.17229   0.04092   0.00000  Uiso   1.00
C25    C     0.16486   0.16847   0.47679   0.00000  Uiso   1.00
C26    C     0.16818   0.16862   0.02325   0.00000  Uiso   1.00
C27    C     0.20073   0.17238   0.44816   0.00000  Uiso   1.00
C28    C     0.13230   0.16470   0.05188   0.00000  Uiso   1.00
C29    C     0.09038   0.16140   0.48904   0.00000  Uiso   1.00
C30    C     0.24261   0.17655   0.01101   0.00000  Uiso   1.00
Cu31   Cu    0.16667   0.21355   0.25000   0.00000  Uiso   1.00
Cu32   Cu    0.16667   0.11978   0.25000   0.00000  Uiso   1.00
H33    H     0.22521   0.17506   0.38046   0.00000  Uiso   1.00
H34    H     0.10805   0.15873   0.11944   0.00000  Uiso   1.00
H35    H     0.05951   0.15823   0.47819   0.00000  Uiso   1.00
H36    H     0.27345   0.17887   0.02200   0.00000  Uiso   1.00
H37    H     0.03752   0.09093   0.24506   0.00000  Uiso   1.00
H38    H     0.29583   0.24250   0.25471   0.00000  Uiso   1.00
H39    H     0.29606   0.09082   0.24896   0.00000  Uiso   1.00
H40    H     0.03731   0.24261   0.25076   0.00000  Uiso   1.00
H41    H     0.12030   0.04365   0.20409   0.00000  Uiso   1.00
H42    H     0.21303   0.28968   0.29591   0.00000  Uiso   1.00
H43    H     0.21302   0.04340   0.29592   0.00000  Uiso   1.00
H44    H     0.12031   0.28992   0.20408   0.00000  Uiso   1.00
N45    N     0.16667   0.28402   0.25000   0.00000  Uiso   1.00
N46    N     0.16667   0.04931   0.25000   0.00000  Uiso   1.00
O47    O     0.10655   0.20625   0.25000   0.00000  Uiso   1.00
O48    O     0.22679   0.12709   0.25000   0.00000  Uiso   1.00
O49    O     0.22679   0.20625   0.25000   0.00000  Uiso   1.00
O50    O     0.10655   0.12709   0.25000   0.00000  Uiso   1.00
O51    O     0.16666   0.20627   0.18513   0.00000  Uiso   1.00
O52    O     0.16668   0.12707   0.31487   0.00000  Uiso   1.00
O53    O     0.16668   0.20627   0.31487   0.00000  Uiso   1.00
O54    O     0.16666   0.12707   0.18513   0.00000  Uiso   1.00
C55    C     0.07904   0.15624   0.39648   0.00000  Uiso   1.00
C56    C     0.07314   0.15432   0.34766   0.00000  Uiso   1.00
H57    H     0.08338   0.18798   0.33228   0.00000  Uiso   1.00
H58    H     0.08927   0.12338   0.33287   0.00000  Uiso   1.00
H59    H     0.03979   0.15003   0.34265   0.00000  Uiso   1.00
H60    H     0.06579   0.12315   0.41083   0.00000  Uiso   1.00
H61    H     0.05992   0.18607   0.40946   0.00000  Uiso   1.00
C62    C     0.25427   0.17574   0.10363   0.00000  Uiso   1.00
C63    C     0.26053   0.17459   0.15238   0.00000  Uiso   1.00
H64    H     0.24574   0.20568   0.16842   0.00000  Uiso   1.00
H65    H     0.24900   0.14087   0.16664   0.00000  Uiso   1.00
H66    H     0.29409   0.17666   0.15716   0.00000  Uiso   1.00
H67    H     0.27311   0.14640   0.08901   0.00000  Uiso   1.00
H68    H     0.26751   0.20951   0.09103   0.00000  Uiso   1.00
O69    O     0.05786   0.15996   0.06250   0.00000  Uiso   1.00
C70    C     0.03737   0.20386   0.06462   0.00000  Uiso   1.00
H71    H     0.00395   0.19698   0.06288   0.00000  Uiso   1.00
H72    H     0.04629   0.22817   0.03657   0.00000  Uiso   1.00
C73    C     0.04439   0.22793   0.10870   0.00000  Uiso   1.00
H74    H     0.03628   0.20339   0.13654   0.00000  Uiso   1.00
H75    H     0.07746   0.23755   0.10959   0.00000  Uiso   1.00
C76    C     0.01851   0.27233   0.11496   0.00000  Uiso   1.00
H77    H     0.02622   0.29752   0.08761   0.00000  Uiso   1.00
H78    H     0.02504   0.28913   0.14681   0.00000  Uiso   1.00
H79    H     0.31847   0.26378   0.11586   0.00000  Uiso   1.00
O80    O     0.27465   0.17942   0.43671   0.00000  Uiso   1.00
C81    C     0.29645   0.22177   0.44217   0.00000  Uiso   1.00
H82    H     0.32303   0.21448   0.46250   0.00000  Uiso   1.00
H83    H     0.27728   0.25010   0.45861   0.00000  Uiso   1.00
C84    C     0.31233   0.23973   0.39653   0.00000  Uiso   1.00
H85    H     0.32942   0.21140   0.37817   0.00000  Uiso   1.00
H86    H     0.28566   0.24981   0.37734   0.00000  Uiso   1.00
C87    C     0.00737   0.28199   0.40009   0.00000  Uiso   1.00
H88    H     0.32387   0.31124   0.41739   0.00000  Uiso   1.00
H89    H     0.01831   0.29397   0.36639   0.00000  Uiso   1.00
H90    H     0.03463   0.27245   0.41854   0.00000  Uiso   1.00
C91    C     0.42088   0.16669   0.24751   0.00000  Uiso   1.00
C92    C     0.57913   0.16666   0.25242   0.00000  Uiso   1.00
C93    C     0.42671   0.16300   0.03465   0.00000  Uiso   1.00
C94    C     0.57281   0.17745   0.46528   0.00000  Uiso   1.00
C95    C     0.35475   0.12418   0.24703   0.00000  Uiso   1.00
C96    C     0.64528   0.20925   0.25274   0.00000  Uiso   1.00
C97    C     0.64540   0.12411   0.24956   0.00000  Uiso   1.00
C98    C     0.35463   0.20931   0.25021   0.00000  Uiso   1.00
C99    C     0.62382   0.16665   0.25232   0.00000  Uiso   1.00
C100   C     0.37620   0.16676   0.24752   0.00000  Uiso   1.00
C101   C     0.47425   0.02488   0.22452   0.00000  Uiso   1.00
C102   C     0.52575   0.30845   0.27548   0.00000  Uiso   1.00
C103   C     0.52575   0.02474   0.27549   0.00000  Uiso   1.00
C104   C     0.47425   0.30858   0.22451   0.00000  Uiso   1.00
C105   C     0.50439   0.16674   0.16436   0.00000  Uiso   1.00
C106   C     0.49556   0.16658   0.33564   0.00000  Uiso   1.00
C107   C     0.53097   0.17169   0.40255   0.00000  Uiso   1.00
C108   C     0.46890   0.16292   0.09742   0.00000  Uiso   1.00
C109   C     0.49310   0.16651   0.38421   0.00000  Uiso   1.00
C110   C     0.50683   0.16693   0.11580   0.00000  Uiso   1.00
C111   C     0.45591   0.16229   0.41231   0.00000  Uiso   1.00
C112   C     0.54397   0.17161   0.08774   0.00000  Uiso   1.00
C113   C     0.45905   0.16397   0.45912   0.00000  Uiso   1.00
C114   C     0.54070   0.17229   0.04092   0.00000  Uiso   1.00
C115   C     0.49819   0.16847   0.47679   0.00000  Uiso   1.00
C116   C     0.50152   0.16862   0.02325   0.00000  Uiso   1.00
C117   C     0.53407   0.17238   0.44816   0.00000  Uiso   1.00
C118   C     0.46563   0.16470   0.05188   0.00000  Uiso   1.00
C119   C     0.42371   0.16140   0.48904   0.00000  Uiso   1.00
C120   C     0.57594   0.17655   0.01101   0.00000  Uiso   1.00
Cu121  Cu    0.50000   0.21355   0.25000   0.00000  Uiso   1.00
Cu122  Cu    0.50000   0.11978   0.25000   0.00000  Uiso   1.00
H123   H     0.55855   0.17506   0.38046   0.00000  Uiso   1.00
H124   H     0.44139   0.15873   0.11944   0.00000  Uiso   1.00
H125   H     0.39284   0.15823   0.47819   0.00000  Uiso   1.00
H126   H     0.60678   0.17887   0.02200   0.00000  Uiso   1.00
H127   H     0.37086   0.09093   0.24506   0.00000  Uiso   1.00
H128   H     0.62917   0.24250   0.25471   0.00000  Uiso   1.00
H129   H     0.62940   0.09082   0.24896   0.00000  Uiso   1.00
H130   H     0.37064   0.24261   0.25076   0.00000  Uiso   1.00
H131   H     0.45363   0.04365   0.20409   0.00000  Uiso   1.00
H132   H     0.54636   0.28968   0.29591   0.00000  Uiso   1.00
H133   H     0.54635   0.04340   0.29592   0.00000  Uiso   1.00
H134   H     0.45364   0.28992   0.20408   0.00000  Uiso   1.00
N135   N     0.50000   0.28402   0.25000   0.00000  Uiso   1.00
N136   N     0.50000   0.04931   0.25000   0.00000  Uiso   1.00
O137   O     0.43988   0.20625   0.25000   0.00000  Uiso   1.00
O138   O     0.56012   0.12709   0.25000   0.00000  Uiso   1.00
O139   O     0.56012   0.20625   0.25000   0.00000  Uiso   1.00
O140   O     0.43988   0.12709   0.25000   0.00000  Uiso   1.00
O141   O     0.49999   0.20627   0.18513   0.00000  Uiso   1.00
O142   O     0.50001   0.12707   0.31487   0.00000  Uiso   1.00
O143   O     0.50001   0.20627   0.31487   0.00000  Uiso   1.00
O144   O     0.49999   0.12707   0.18513   0.00000  Uiso   1.00
C145   C     0.41237   0.15624   0.39648   0.00000  Uiso   1.00
C146   C     0.40647   0.15432   0.34766   0.00000  Uiso   1.00
H147   H     0.41672   0.18798   0.33228   0.00000  Uiso   1.00
H148   H     0.42260   0.12338   0.33287   0.00000  Uiso   1.00
H149   H     0.37312   0.15003   0.34265   0.00000  Uiso   1.00
H150   H     0.39912   0.12315   0.41083   0.00000  Uiso   1.00
H151   H     0.39326   0.18607   0.40946   0.00000  Uiso   1.00
C152   C     0.58760   0.17574   0.10363   0.00000  Uiso   1.00
C153   C     0.59386   0.17459   0.15238   0.00000  Uiso   1.00
H154   H     0.57907   0.20568   0.16842   0.00000  Uiso   1.00
H155   H     0.58234   0.14087   0.16664   0.00000  Uiso   1.00
H156   H     0.62742   0.17666   0.15716   0.00000  Uiso   1.00
H157   H     0.60644   0.14640   0.08901   0.00000  Uiso   1.00
H158   H     0.60085   0.20951   0.09103   0.00000  Uiso   1.00
O159   O     0.39119   0.15996   0.06250   0.00000  Uiso   1.00
C160   C     0.37070   0.20386   0.06462   0.00000  Uiso   1.00
H161   H     0.33729   0.19698   0.06288   0.00000  Uiso   1.00
H162   H     0.37963   0.22817   0.03657   0.00000  Uiso   1.00
C163   C     0.37772   0.22793   0.10870   0.00000  Uiso   1.00
H164   H     0.36962   0.20339   0.13654   0.00000  Uiso   1.00
H165   H     0.41079   0.23755   0.10959   0.00000  Uiso   1.00
C166   C     0.35184   0.27233   0.11496   0.00000  Uiso   1.00
H167   H     0.35956   0.29752   0.08761   0.00000  Uiso   1.00
H168   H     0.35838   0.28913   0.14681   0.00000  Uiso   1.00
H169   H     0.65180   0.26378   0.11586   0.00000  Uiso   1.00
O170   O     0.60798   0.17942   0.43671   0.00000  Uiso   1.00
C171   C     0.62979   0.22177   0.44217   0.00000  Uiso   1.00
H172   H     0.65637   0.21448   0.46250   0.00000  Uiso   1.00
H173   H     0.61061   0.25010   0.45861   0.00000  Uiso   1.00
C174   C     0.64566   0.23973   0.39653   0.00000  Uiso   1.00
H175   H     0.66275   0.21140   0.37817   0.00000  Uiso   1.00
H176   H     0.61899   0.24981   0.37734   0.00000  Uiso   1.00
C177   C     0.34071   0.28199   0.40009   0.00000  Uiso   1.00
H178   H     0.65720   0.31124   0.41739   0.00000  Uiso   1.00
H179   H     0.35164   0.29397   0.36639   0.00000  Uiso   1.00
H180   H     0.36796   0.27245   0.41854   0.00000  Uiso   1.00
C181   C     0.75421   0.16669   0.24751   0.00000  Uiso   1.00
C182   C     0.91247   0.16666   0.25242   0.00000  Uiso   1.00
C183   C     0.76004   0.16300   0.03465   0.00000  Uiso   1.00
C184   C     0.90614   0.17745   0.46528   0.00000  Uiso   1.00
C185   C     0.68808   0.12418   0.24703   0.00000  Uiso   1.00
C186   C     0.97861   0.20925   0.25274   0.00000  Uiso   1.00
C187   C     0.97873   0.12411   0.24956   0.00000  Uiso   1.00
C188   C     0.68796   0.20931   0.25021   0.00000  Uiso   1.00
C189   C     0.95716   0.16665   0.25232   0.00000  Uiso   1.00
C190   C     0.70953   0.16676   0.24752   0.00000  Uiso   1.00
C191   C     0.80758   0.02488   0.22452   0.00000  Uiso   1.00
C192   C     0.85908   0.30845   0.27548   0.00000  Uiso   1.00
C193   C     0.85908   0.02474   0.27549   0.00000  Uiso   1.00
C194   C     0.80758   0.30858   0.22451   0.00000  Uiso   1.00
C195   C     0.83772   0.16674   0.16436   0.00000  Uiso   1.00
C196   C     0.82889   0.16658   0.33564   0.00000  Uiso   1.00
C197   C     0.86430   0.17169   0.40255   0.00000  Uiso   1.00
C198   C     0.80223   0.16292   0.09742   0.00000  Uiso   1.00
C199   C     0.82643   0.16651   0.38421   0.00000  Uiso   1.00
C200   C     0.84016   0.16693   0.11580   0.00000  Uiso   1.00
C201   C     0.78925   0.16229   0.41231   0.00000  Uiso   1.00
C202   C     0.87730   0.17161   0.08774   0.00000  Uiso   1.00
C203   C     0.79239   0.16397   0.45912   0.00000  Uiso   1.00
C204   C     0.87403   0.17229   0.04092   0.00000  Uiso   1.00
C205   C     0.83153   0.16847   0.47679   0.00000  Uiso   1.00
C206   C     0.83485   0.16862   0.02325   0.00000  Uiso   1.00
C207   C     0.86740   0.17238   0.44816   0.00000  Uiso   1.00
C208   C     0.79897   0.16470   0.05188   0.00000  Uiso   1.00
C209   C     0.75705   0.16140   0.48904   0.00000  Uiso   1.00
C210   C     0.90928   0.17655   0.01101   0.00000  Uiso   1.00
Cu211  Cu    0.83333   0.21355   0.25000   0.00000  Uiso   1.00
Cu212  Cu    0.83333   0.11978   0.25000   0.00000  Uiso   1.00
H213   H     0.89188   0.17506   0.38046   0.00000  Uiso   1.00
H214   H     0.77472   0.15873   0.11944   0.00000  Uiso   1.00
H215   H     0.72617   0.15823   0.47819   0.00000  Uiso   1.00
H216   H     0.94012   0.17887   0.02200   0.00000  Uiso   1.00
H217   H     0.70419   0.09093   0.24506   0.00000  Uiso   1.00
H218   H     0.96250   0.24250   0.25471   0.00000  Uiso   1.00
H219   H     0.96273   0.09082   0.24896   0.00000  Uiso   1.00
H220   H     0.70397   0.24261   0.25076   0.00000  Uiso   1.00
H221   H     0.78697   0.04365   0.20409   0.00000  Uiso   1.00
H222   H     0.87969   0.28968   0.29591   0.00000  Uiso   1.00
H223   H     0.87968   0.04340   0.29592   0.00000  Uiso   1.00
H224   H     0.78698   0.28992   0.20408   0.00000  Uiso   1.00
N225   N     0.83333   0.28402   0.25000   0.00000  Uiso   1.00
N226   N     0.83333   0.04931   0.25000   0.00000  Uiso   1.00
O227   O     0.77321   0.20625   0.25000   0.00000  Uiso   1.00
O228   O     0.89345   0.12709   0.25000   0.00000  Uiso   1.00
O229   O     0.89345   0.20625   0.25000   0.00000  Uiso   1.00
O230   O     0.77321   0.12709   0.25000   0.00000  Uiso   1.00
O231   O     0.83332   0.20627   0.18513   0.00000  Uiso   1.00
O232   O     0.83334   0.12707   0.31487   0.00000  Uiso   1.00
O233   O     0.83334   0.20627   0.31487   0.00000  Uiso   1.00
O234   O     0.83332   0.12707   0.18513   0.00000  Uiso   1.00
C235   C     0.74571   0.15624   0.39648   0.00000  Uiso   1.00
C236   C     0.73980   0.15432   0.34766   0.00000  Uiso   1.00
H237   H     0.75005   0.18798   0.33228   0.00000  Uiso   1.00
H238   H     0.75594   0.12338   0.33287   0.00000  Uiso   1.00
H239   H     0.70645   0.15003   0.34265   0.00000  Uiso   1.00
H240   H     0.73245   0.12315   0.41083   0.00000  Uiso   1.00
H241   H     0.72659   0.18607   0.40946   0.00000  Uiso   1.00
C242   C     0.92094   0.17574   0.10363   0.00000  Uiso   1.00
C243   C     0.92720   0.17459   0.15238   0.00000  Uiso   1.00
H244   H     0.91241   0.20568   0.16842   0.00000  Uiso   1.00
H245   H     0.91567   0.14087   0.16664   0.00000  Uiso   1.00
H246   H     0.96076   0.17666   0.15716   0.00000  Uiso   1.00
H247   H     0.93977   0.14640   0.08901   0.00000  Uiso   1.00
H248   H     0.93418   0.20951   0.09103   0.00000  Uiso   1.00
O249   O     0.72453   0.15996   0.06250   0.00000  Uiso   1.00
C250   C     0.70404   0.20386   0.06462   0.00000  Uiso   1.00
H251   H     0.67062   0.19698   0.06288   0.00000  Uiso   1.00
H252   H     0.71296   0.22817   0.03657   0.00000  Uiso   1.00
C253   C     0.71105   0.22793   0.10870   0.00000  Uiso   1.00
H254   H     0.70295   0.20339   0.13654   0.00000  Uiso   1.00
H255   H     0.74413   0.23755   0.10959   0.00000  Uiso   1.00
C256   C     0.68518   0.27233   0.11496   0.00000  Uiso   1.00
H257   H     0.69289   0.29752   0.08761   0.00000  Uiso   1.00
H258   H     0.69171   0.28913   0.14681   0.00000  Uiso   1.00
H259   H     0.98514   0.26378   0.11586   0.00000  Uiso   1.00
O260   O     0.94132   0.17942   0.43671   0.00000  Uiso   1.00
C261   C     0.96312   0.22177   0.44217   0.00000  Uiso   1.00
H262   H     0.98970   0.21448   0.46250   0.00000  Uiso   1.00
H263   H     0.94395   0.25010   0.45861   0.00000  Uiso   1.00
C264   C     0.97899   0.23973   0.39653   0.00000  Uiso   1.00
H265   H     0.99608   0.21140   0.37817   0.00000  Uiso   1.00
H266   H     0.95233   0.24981   0.37734   0.00000  Uiso   1.00
C267   C     0.67404   0.28199   0.40009   0.00000  Uiso   1.00
H268   H     0.99054   0.31124   0.41739   0.00000  Uiso   1.00
H269   H     0.68497   0.29397   0.36639   0.00000  Uiso   1.00
H270   H     0.70130   0.27245   0.41854   0.00000  Uiso   1.00
C271   C     0.08754   0.50002   0.24751   0.00000  Uiso   1.00
C272   C     0.24580   0.49999   0.25242   0.00000  Uiso   1.00
C273   C     0.09337   0.49634   0.03465   0.00000  Uiso   1.00
C274   C     0.23947   0.51079   0.46528   0.00000  Uiso   1.00
C275   C     0.02141   0.45751   0.24703   0.00000  Uiso   1.00
C276   C     0.31195   0.54258   0.25274   0.00000  Uiso   1.00
C277   C     0.31207   0.45745   0.24956   0.00000  Uiso   1.00
C278   C     0.02130   0.54265   0.25021   0.00000  Uiso   1.00
C279   C     0.29049   0.49998   0.25232   0.00000  Uiso   1.00
C280   C     0.04287   0.50010   0.24752   0.00000  Uiso   1.00
C281   C     0.14091   0.35822   0.22452   0.00000  Uiso   1.00
C282   C     0.19242   0.64178   0.27548   0.00000  Uiso   1.00
C283   C     0.19241   0.35808   0.27549   0.00000  Uiso   1.00
C284   C     0.14092   0.64192   0.22451   0.00000  Uiso   1.00
C285   C     0.17105   0.50008   0.16436   0.00000  Uiso   1.00
C286   C     0.16223   0.49992   0.33564   0.00000  Uiso   1.00
C287   C     0.19763   0.50502   0.40255   0.00000  Uiso   1.00
C288   C     0.13556   0.49626   0.09742   0.00000  Uiso   1.00
C289   C     0.15977   0.49984   0.38421   0.00000  Uiso   1.00
C290   C     0.17350   0.50026   0.11580   0.00000  Uiso   1.00
C291   C     0.12258   0.49563   0.41231   0.00000  Uiso   1.00
C292   C     0.21064   0.50494   0.08774   0.00000  Uiso   1.00
C293   C     0.12572   0.49731   0.45912   0.00000  Uiso   1.00
C294   C     0.20737   0.50562   0.04092   0.00000  Uiso   1.00
C295   C     0.16486   0.50180   0.47679   0.00000  Uiso   1.00
C296   C     0.16818   0.50195   0.02325   0.00000  Uiso   1.00
C297   C     0.20073   0.50572   0.44816   0.00000  Uiso   1.00
C298   C     0.13230   0.49803   0.05188   0.00000  Uiso   1.00
C299   C     0.09038   0.49474   0.48904   0.00000  Uiso   1.00
C300   C     0.24261   0.50988   0.01101   0.00000  Uiso   1.00
Cu301  Cu    0.16667   0.54689   0.25000   0.00000  Uiso   1.00
Cu302  Cu    0.16667   0.45311   0.25000   0.00000  Uiso   1.00
H303   H     0.22521   0.50840   0.38046   0.00000  Uiso   1.00
H304   H     0.10805   0.49206   0.11944   0.00000  Uiso   1.00
H305   H     0.05951   0.49156   0.47819   0.00000  Uiso   1.00
H306   H     0.27345   0.51221   0.02200   0.00000  Uiso   1.00
H307   H     0.03752   0.42426   0.24506   0.00000  Uiso   1.00
H308   H     0.29583   0.57583   0.25471   0.00000  Uiso   1.00
H309   H     0.29606   0.42415   0.24896   0.00000  Uiso   1.00
H310   H     0.03731   0.57594   0.25076   0.00000  Uiso   1.00
H311   H     0.12030   0.37698   0.20409   0.00000  Uiso   1.00
H312   H     0.21303   0.62301   0.29591   0.00000  Uiso   1.00
H313   H     0.21302   0.37674   0.29592   0.00000  Uiso   1.00
H314   H     0.12031   0.62326   0.20408   0.00000  Uiso   1.00
N315   N     0.16667   0.61736   0.25000   0.00000  Uiso   1.00
N316   N     0.16667   0.38264   0.25000   0.00000  Uiso   1.00
O317   O     0.10655   0.53958   0.25000   0.00000  Uiso   1.00
O318   O     0.22679   0.46042   0.25000   0.00000  Uiso   1.00
O319   O     0.22679   0.53958   0.25000   0.00000  Uiso   1.00
O320   O     0.10655   0.46042   0.25000   0.00000  Uiso   1.00
O321   O     0.16666   0.53960   0.18513   0.00000  Uiso   1.00
O322   O     0.16668   0.46040   0.31487   0.00000  Uiso   1.00
O323   O     0.16668   0.53960   0.31487   0.00000  Uiso   1.00
O324   O     0.16666   0.46040   0.18513   0.00000  Uiso   1.00
C325   C     0.07904   0.48957   0.39648   0.00000  Uiso   1.00
C326   C     0.07314   0.48765   0.34766   0.00000  Uiso   1.00
H327   H     0.08338   0.52132   0.33228   0.00000  Uiso   1.00
H328   H     0.08927   0.45671   0.33287   0.00000  Uiso   1.00
H329   H     0.03979   0.48336   0.34265   0.00000  Uiso   1.00
H330   H     0.06579   0.45648   0.41083   0.00000  Uiso   1.00
H331   H     0.05992   0.51941   0.40946   0.00000  Uiso   1.00
C332   C     0.25427   0.50908   0.10363   0.00000  Uiso   1.00
C333   C     0.26053   0.50792   0.15238   0.00000  Uiso   1.00
H334   H     0.24574   0.53901   0.16842   0.00000  Uiso   1.00
H335   H     0.24900   0.47420   0.16664   0.00000  Uiso   1.00
H336   H     0.29409   0.50999   0.15716   0.00000  Uiso   1.00
H337   H     0.27311   0.47974   0.08901   0.00000  Uiso   1.00
H338   H     0.26751   0.54284   0.09103   0.00000  Uiso   1.00
O339   O     0.05786   0.49329   0.06250   0.00000  Uiso   1.00
C340   C     0.03737   0.53719   0.06462   0.00000  Uiso   1.00
H341   H     0.00395   0.53031   0.06288   0.00000  Uiso   1.00
H342   H     0.04629   0.56151   0.03657   0.00000  Uiso   1.00
C343   C     0.04439   0.56126   0.10870   0.00000  Uiso   1.00
H344   H     0.03628   0.53672   0.13654   0.00000  Uiso   1.00
H345   H     0.07746   0.57088   0.10959   0.00000  Uiso   1.00
C346   C     0.01851   0.60566   0.11496   0.00000  Uiso   1.00
H347   H     0.02622   0.63086   0.08761   0.00000  Uiso   1.00
H348   H     0.02504   0.62246   0.14681   0.00000  Uiso   1.00
H349   H     0.31847   0.59711   0.11586   0.00000  Uiso   1.00
O350   O     0.27465   0.51276   0.43671   0.00000  Uiso   1.00
C351   C     0.29645   0.55510   0.44217   0.00000  Uiso   1.00
H352   H     0.32303   0.54782   0.46250   0.00000  Uiso   1.00
H353   H     0.27728   0.58344   0.45861   0.00000  Uiso   1.00
C354   C     0.31233   0.57306   0.39653   0.00000  Uiso   1.00
H355   H     0.32942   0.54473   0.37817   0.00000  Uiso   1.00
H356   H     0.28566   0.58314   0.37734   0.00000  Uiso   1.00
C357   C     0.00737   0.61533   0.40009   0.00000  Uiso   1.00
H358   H     0.32387   0.64457   0.41739   0.00000  Uiso   1.00
H359   H     0.01831   0.62730   0.36639   0.00000  Uiso   1.00
H360   H     0.03463   0.60578   0.41854   0.00000  Uiso   1.00
C361   C     0.42088   0.50002   0.24751   0.00000  Uiso   1.00
C362   C     0.57913   0.49999   0.25242   0.00000  Uiso   1.00
C363   C     0.42671   0.49634   0.03465   0.00000  Uiso   1.00
C364   C     0.57281   0.51079   0.46528   0.00000  Uiso   1.00
C365   C     0.35475   0.45751   0.24703   0.00000  Uiso   1.00
C366   C     0.64528   0.54258   0.25274   0.00000  Uiso   1.00
C367   C     0.64540   0.45745   0.24956   0.00000  Uiso   1.00
C368   C     0.35463   0.54265   0.25021   0.00000  Uiso   1.00
C369   C     0.62382   0.49998   0.25232   0.00000  Uiso   1.00
C370   C     0.37620   0.50010   0.24752   0.00000  Uiso   1.00
C371   C     0.47425   0.35822   0.22452   0.00000  Uiso   1.00
C372   C     0.52575   0.64178   0.27548   0.00000  Uiso   1.00
C373   C     0.52575   0.35808   0.27549   0.00000  Uiso   1.00
C374   C     0.47425   0.64192   0.22451   0.00000  Uiso   1.00
C375   C     0.50439   0.50008   0.16436   0.00000  Uiso   1.00
C376   C     0.49556   0.49992   0.33564   0.00000  Uiso   1.00
C377   C     0.53097   0.50502   0.40255   0.00000  Uiso   1.00
C378   C     0.46890   0.49626   0.09742   0.00000  Uiso   1.00
C379   C     0.49310   0.49984   0.38421   0.00000  Uiso   1.00
C380   C     0.50683   0.50026   0.11580   0.00000  Uiso   1.00
C381   C     0.45591   0.49563   0.41231   0.00000  Uiso   1.00
C382   C     0.54397   0.50494   0.08774   0.00000  Uiso   1.00
C383   C     0.45905   0.49731   0.45912   0.00000  Uiso   1.00
C384   C     0.54070   0.50562   0.04092   0.00000  Uiso   1.00
C385   C     0.49819   0.50180   0.47679   0.00000  Uiso   1.00
C386   C     0.50152   0.50195   0.02325   0.00000  Uiso   1.00
C387   C     0.53407   0.50572   0.44816   0.00000  Uiso   1.00
C388   C     0.46563   0.49803   0.05188   0.00000  Uiso   1.00
C389   C     0.42371   0.49474   0.48904   0.00000  Uiso   1.00
C390   C     0.57594   0.50988   0.01101   0.00000  Uiso   1.00
Cu391  Cu    0.50000   0.54689   0.25000   0.00000  Uiso   1.00
Cu392  Cu    0.50000   0.45311   0.25000   0.00000  Uiso   1.00
H393   H     0.55855   0.50840   0.38046   0.00000  Uiso   1.00
H394   H     0.44139   0.49206   0.11944   0.00000  Uiso   1.00
H395   H     0.39284   0.49156   0.47819   0.00000  Uiso   1.00
H396   H     0.60678   0.51221   0.02200   0.00000  Uiso   1.00
H397   H     0.37086   0.42426   0.24506   0.00000  Uiso   1.00
H398   H     0.62917   0.57583   0.25471   0.00000  Uiso   1.00
H399   H     0.62940   0.42415   0.24896   0.00000  Uiso   1.00
H400   H     0.37064   0.57594   0.25076   0.00000  Uiso   1.00
H401   H     0.45363   0.37698   0.20409   0.00000  Uiso   1.00
H402   H     0.54636   0.62301   0.29591   0.00000  Uiso   1.00
H403   H     0.54635   0.37674   0.29592   0.00000  Uiso   1.00
H404   H     0.45364   0.62326   0.20408   0.00000  Uiso   1.00
N405   N     0.50000   0.61736   0.25000   0.00000  Uiso   1.00
N406   N     0.50000   0.38264   0.25000   0.00000  Uiso   1.00
O407   O     0.43988   0.53958   0.25000   0.00000  Uiso   1.00
O408   O     0.56012   0.46042   0.25000   0.00000  Uiso   1.00
O409   O     0.56012   0.53958   0.25000   0.00000  Uiso   1.00
O410   O     0.43988   0.46042   0.25000   0.00000  Uiso   1.00
O411   O     0.49999   0.53960   0.18513   0.00000  Uiso   1.00
O412   O     0.50001   0.46040   0.31487   0.00000  Uiso   1.00
O413   O     0.50001   0.53960   0.31487   0.00000  Uiso   1.00
O414   O     0.49999   0.46040   0.18513   0.00000  Uiso   1.00
C415   C     0.41237   0.48957   0.39648   0.00000  Uiso   1.00
C416   C     0.40647   0.48765   0.34766   0.00000  Uiso   1.00
H417   H     0.41672   0.52132   0.33228   0.00000  Uiso   1.00
H418   H     0.42260   0.45671   0.33287   0.00000  Uiso   1.00
H419   H     0.37312   0.48336   0.34265   0.00000  Uiso   1.00
H420   H     0.39912   0.45648   0.41083   0.00000  Uiso   1.00
H421   H     0.39326   0.51941   0.40946   0.00000  Uiso   1.00
C422   C     0.58760   0.50908   0.10363   0.00000  Uiso   1.00
C423   C     0.59386   0.50792   0.15238   0.00000  Uiso   1.00
H424   H     0.57907   0.53901   0.16842   0.00000  Uiso   1.00
H425   H     0.58234   0.47420   0.16664   0.00000  Uiso   1.00
H426   H     0.62742   0.50999   0.15716   0.00000  Uiso   1.00
H427   H     0.60644   0.47974   0.08901   0.00000  Uiso   1.00
H428   H     0.60085   0.54284   0.09103   0.00000  Uiso   1.00
O429   O     0.39119   0.49329   0.06250   0.00000  Uiso   1.00
C430   C     0.37070   0.53719   0.06462   0.00000  Uiso   1.00
H431   H     0.33729   0.53031   0.06288   0.00000  Uiso   1.00
H432   H     0.37963   0.56151   0.03657   0.00000  Uiso   1.00
C433   C     0.37772   0.56126   0.10870   0.00000  Uiso   1.00
H434   H     0.36962   0.53672   0.13654   0.00000  Uiso   1.00
H435   H     0.41079   0.57088   0.10959   0.00000  Uiso   1.00
C436   C     0.35184   0.60566   0.11496   0.00000  Uiso   1.00
H437   H     0.35956   0.63086   0.08761   0.00000  Uiso   1.00
H438   H     0.35838   0.62246   0.14681   0.00000  Uiso   1.00
H439   H     0.65180   0.59711   0.11586   0.00000  Uiso   1.00
O440   O     0.60798   0.51276   0.43671   0.00000  Uiso   1.00
C441   C     0.62979   0.55510   0.44217   0.00000  Uiso   1.00
H442   H     0.65637   0.54782   0.46250   0.00000  Uiso   1.00
H443   H     0.61061   0.58344   0.45861   0.00000  Uiso   1.00
C444   C     0.64566   0.57306   0.39653   0.00000  Uiso   1.00
H445   H     0.66275   0.54473   0.37817   0.00000  Uiso   1.00
H446   H     0.61899   0.58314   0.37734   0.00000  Uiso   1.00
C447   C     0.34071   0.61533   0.40009   0.00000  Uiso   1.00
H448   H     0.65720   0.64457   0.41739   0.00000  Uiso   1.00
H449   H     0.35164   0.62730   0.36639   0.00000  Uiso   1.00
H450   H     0.36796   0.60578   0.41854   0.00000  Uiso   1.00
C451   C     0.75421   0.50002   0.24751   0.00000  Uiso   1.00
C452   C     0.91247   0.49999   0.25242   0.00000  Uiso   1.00
C453   C     0.76004   0.49634   0.03465   0.00000  Uiso   1.00
C454   C     0.90614   0.51079   0.46528   0.00000  Uiso   1.00
C455   C     0.68808   0.45751   0.24703   0.00000  Uiso   1.00
C456   C     0.97861   0.54258   0.25274   0.00000  Uiso   1.00
C457   C     0.97873   0.45745   0.24956   0.00000  Uiso   1.00
C458   C     0.68796   0.54265   0.25021   0.00000  Uiso   1.00
C459   C     0.95716   0.49998   0.25232   0.00000  Uiso   1.00
C460   C     0.70953   0.50010   0.24752   0.00000  Uiso   1.00
C461   C     0.80758   0.35822   0.22452   0.00000  Uiso   1.00
C462   C     0.85908   0.64178   0.27548   0.00000  Uiso   1.00
C463   C     0.85908   0.35808   0.27549   0.00000  Uiso   1.00
C464   C     0.80758   0.64192   0.22451   0.00000  Uiso   1.00
C465   C     0.83772   0.50008   0.16436   0.00000  Uiso   1.00
C466   C     0.82889   0.49992   0.33564   0.00000  Uiso   1.00
C467   C     0.86430   0.50502   0.40255   0.00000  Uiso   1.00
C468   C     0.80223   0.49626   0.09742   0.00000  Uiso   1.00
C469   C     0.82643   0.49984   0.38421   0.00000  Uiso   1.00
C470   C     0.84016   0.50026   0.11580   0.00000  Uiso   1.00
C471   C     0.78925   0.49563   0.41231   0.00000  Uiso   1.00
C472   C     0.87730   0.50494   0.08774   0.00000  Uiso   1.00
C473   C     0.79239   0.49731   0.45912   0.00000  Uiso   1.00
C474   C     0.87403   0.50562   0.04092   0.00000  Uiso   1.00
C475   C     0.83153   0.50180   0.47679   0.00000  Uiso   1.00
C476   C     0.83485   0.50195   0.02325   0.00000  Uiso   1.00
C477   C     0.86740   0.50572   0.44816   0.00000  Uiso   1.00
C478   C     0.79897   0.49803   0.05188   0.00000  Uiso   1.00
C479   C     0.75705   0.49474   0.48904   0.00000  Uiso   1.00
C480   C     0.90928   0.50988   0.01101   0.00000  Uiso   1.00
Cu481  Cu    0.83333   0.54689   0.25000   0.00000  Uiso   1.00
Cu482  Cu    0.83333   0.45311   0.25000   0.00000  Uiso   1.00
H483   H     0.89188   0.50840   0.38046   0.00000  Uiso   1.00
H484   H     0.77472   0.49206   0.11944   0.00000  Uiso   1.00
H485   H     0.72617   0.49156   0.47819   0.00000  Uiso   1.00
H486   H     0.94012   0.51221   0.02200   0.00000  Uiso   1.00
H487   H     0.70419   0.42426   0.24506   0.00000  Uiso   1.00
H488   H     0.96250   0.57583   0.25471   0.00000  Uiso   1.00
H489   H     0.96273   0.42415   0.24896   0.00000  Uiso   1.00
H490   H     0.70397   0.57594   0.25076   0.00000  Uiso   1.00
H491   H     0.78697   0.37698   0.20409   0.00000  Uiso   1.00
H492   H     0.87969   0.62301   0.29591   0.00000  Uiso   1.00
H493   H     0.87968   0.37674   0.29592   0.00000  Uiso   1.00
H494   H     0.78698   0.62326   0.20408   0.00000  Uiso   1.00
N495   N     0.83333   0.61736   0.25000   0.00000  Uiso   1.00
N496   N     0.83333   0.38264   0.25000   0.00000  Uiso   1.00
O497   O     0.77321   0.53958   0.25000   0.00000  Uiso   1.00
O498   O     0.89345   0.46042   0.25000   0.00000  Uiso   1.00
O499   O     0.89345   0.53958   0.25000   0.00000  Uiso   1.00
O500   O     0.77321   0.46042   0.25000   0.00000  Uiso   1.00
O501   O     0.83332   0.53960   0.18513   0.00000  Uiso   1.00
O502   O     0.83334   0.46040   0.31487   0.00000  Uiso   1.00
O503   O     0.83334   0.53960   0.31487   0.00000  Uiso   1.00
O504   O     0.83332   0.46040   0.18513   0.00000  Uiso   1.00
C505   C     0.74571   0.48957   0.39648   0.00000  Uiso   1.00
C506   C     0.73980   0.48765   0.34766   0.00000  Uiso   1.00
H507   H     0.75005   0.52132   0.33228   0.00000  Uiso   1.00
H508   H     0.75594   0.45671   0.33287   0.00000  Uiso   1.00
H509   H     0.70645   0.48336   0.34265   0.00000  Uiso   1.00
H510   H     0.73245   0.45648   0.41083   0.00000  Uiso   1.00
H511   H     0.72659   0.51941   0.40946   0.00000  Uiso   1.00
C512   C     0.92094   0.50908   0.10363   0.00000  Uiso   1.00
C513   C     0.92720   0.50792   0.15238   0.00000  Uiso   1.00
H514   H     0.91241   0.53901   0.16842   0.00000  Uiso   1.00
H515   H     0.91567   0.47420   0.16664   0.00000  Uiso   1.00
H516   H     0.96076   0.50999   0.15716   0.00000  Uiso   1.00
H517   H     0.93977   0.47974   0.08901   0.00000  Uiso   1.00
H518   H     0.93418   0.54284   0.09103   0.00000  Uiso   1.00
O519   O     0.72453   0.49329   0.06250   0.00000  Uiso   1.00
C520   C     0.70404   0.53719   0.06462   0.00000  Uiso   1.00
H521   H     0.67062   0.53031   0.06288   0.00000  Uiso   1.00
H522   H     0.71296   0.56151   0.03657   0.00000  Uiso   1.00
C523   C     0.71105   0.56126   0.10870   0.00000  Uiso   1.00
H524   H     0.70295   0.53672   0.13654   0.00000  Uiso   1.00
H525   H     0.74413   0.57088   0.10959   0.00000  Uiso   1.00
C526   C     0.68518   0.60566   0.11496   0.00000  Uiso   1.00
H527   H     0.69289   0.63086   0.08761   0.00000  Uiso   1.00
H528   H     0.69171   0.62246   0.14681   0.00000  Uiso   1.00
H529   H     0.98514   0.59711   0.11586   0.00000  Uiso   1.00
O530   O     0.94132   0.51276   0.43671   0.00000  Uiso   1.00
C531   C     0.96312   0.55510   0.44217   0.00000  Uiso   1.00
H532   H     0.98970   0.54782   0.46250   0.00000  Uiso   1.00
H533   H     0.94395   0.58344   0.45861   0.00000  Uiso   1.00
C534   C     0.97899   0.57306   0.39653   0.00000  Uiso   1.00
H535   H     0.99608   0.54473   0.37817   0.00000  Uiso   1.00
H536   H     0.95233   0.58314   0.37734   0.00000  Uiso   1.00
C537   C     0.67404   0.61533   0.40009   0.00000  Uiso   1.00
H538   H     0.99054   0.64457   0.41739   0.00000  Uiso   1.00
H539   H     0.68497   0.62730   0.36639   0.00000  Uiso   1.00
H540   H     0.70130   0.60578   0.41854   0.00000  Uiso   1.00
C541   C     0.08754   0.83336   0.24751   0.00000  Uiso   1.00
C542   C     0.24580   0.83332   0.25242   0.00000  Uiso   1.00
C543   C     0.09337   0.82967   0.03465   0.00000  Uiso   1.00
C544   C     0.23947   0.84412   0.46528   0.00000  Uiso   1.00
C545   C     0.02141   0.79085   0.24703   0.00000  Uiso   1.00
C546   C     0.31195   0.87591   0.25274   0.00000  Uiso   1.00
C547   C     0.31207   0.79078   0.24956   0.00000  Uiso   1.00
C548   C     0.02130   0.87598   0.25021   0.00000  Uiso   1.00
C549   C     0.29049   0.83331   0.25232   0.00000  Uiso   1.00
C550   C     0.04287   0.83343   0.24752   0.00000  Uiso   1.00
C551   C     0.14091   0.69155   0.22452   0.00000  Uiso   1.00
C552   C     0.19242   0.97511   0.27548   0.00000  Uiso   1.00
C553   C     0.19241   0.69141   0.27549   0.00000  Uiso   1.00
C554   C     0.14092   0.97525   0.22451   0.00000  Uiso   1.00
C555   C     0.17105   0.83341   0.16436   0.00000  Uiso   1.00
C556   C     0.16223   0.83325   0.33564   0.00000  Uiso   1.00
C557   C     0.19763   0.83835   0.40255   0.00000  Uiso   1.00
C558   C     0.13556   0.82959   0.09742   0.00000  Uiso   1.00
C559   C     0.15977   0.83317   0.38421   0.00000  Uiso   1.00
C560   C     0.17350   0.83359   0.11580   0.00000  Uiso   1.00
C561   C     0.12258   0.82896   0.41231   0.00000  Uiso   1.00
C562   C     0.21064   0.83828   0.08774   0.00000  Uiso   1.00
C563   C     0.12572   0.83064   0.45912   0.00000  Uiso   1.00
C564   C     0.20737   0.83896   0.04092   0.00000  Uiso   1.00
C565   C     0.16486   0.83513   0.47679   0.00000  Uiso   1.00
C566   C     0.16818   0.83529   0.02325   0.00000  Uiso   1.00
C567   C     0.20073   0.83905   0.44816   0.00000  Uiso   1.00
C568   C     0.13230   0.83137   0.05188   0.00000  Uiso   1.00
C569   C     0.09038   0.82807   0.48904   0.00000  Uiso   1.00
C570   C     0.24261   0.84322   0.01101   0.00000  Uiso   1.00
Cu571  Cu    0.16667   0.88022   0.25000   0.00000  Uiso   1.00
Cu572  Cu    0.16667   0.78645   0.25000   0.00000  Uiso   1.00
H573   H     0.22521   0.84173   0.38046   0.00000  Uiso   1.00
H574   H     0.10805   0.82539   0.11944   0.00000  Uiso   1.00
H575   H     0.05951   0.82490   0.47819   0.00000  Uiso   1.00
H576   H     0.27345   0.84554   0.02200   0.00000  Uiso   1.00
H577   H     0.03752   0.75759   0.24506   0.00000  Uiso   1.00
H578   H     0.29583   0.90917   0.25471   0.00000  Uiso   1.00
H579   H     0.29606   0.75749   0.24896   0.00000  Uiso   1.00
H580   H     0.03731   0.90927   0.25076   0.00000  Uiso   1.00
H581   H     0.12030   0.71031   0.20409   0.00000  Uiso   1.00
H582   H     0.21303   0.95635   0.29591   0.00000  Uiso   1.00
H583   H     0.21302   0.71007   0.29592   0.00000  Uiso   1.00
H584   H     0.12031   0.95659   0.20408   0.00000  Uiso   1.00
N585   N     0.16667   0.95069   0.25000   0.00000  Uiso   1.00
N586   N     0.16667   0.71598   0.25000   0.00000  Uiso   1.00
O587   O     0.10655   0.87291   0.25000   0.00000  Uiso   1.00
O588   O     0.22679   0.79375   0.25000   0.00000  Uiso   1.00
O589   O     0.22679   0.87291   0.25000   0.00000  Uiso   1.00
O590   O     0.10655   0.79375   0.25000   0.00000  Uiso   1.00
O591   O     0.16666   0.87293   0.18513   0.00000  Uiso   1.00
O592   O     0.16668   0.79373   0.31487   0.00000  Uiso   1.00
O593   O     0.16668   0.87293   0.31487   0.00000  Uiso   1.00
O594   O     0.16666   0.79373   0.18513   0.00000  Uiso   1.00
C595   C     0.07904   0.82291   0.39648   0.00000  Uiso   1.00
C596   C     0.07314   0.82099   0.34766   0.00000  Uiso   1.00
H597   H     0.08338   0.85465   0.33228   0.00000  Uiso   1.00
H598   H     0.08927   0.79004   0.33287   0.00000  Uiso   1.00
H599   H     0.03979   0.81669   0.34265   0.00000  Uiso   1.00
H600   H     0.06579   0.78982   0.41083   0.00000  Uiso   1.00
H601   H     0.05992   0.85274   0.40946   0.00000  Uiso   1.00
C602   C     0.25427   0.84241   0.10363   0.00000  Uiso   1.00
C603   C     0.26053   0.84125   0.15238   0.00000  Uiso   1.00
H604   H     0.24574   0.87234   0.16842   0.00000  Uiso   1.00
H605   H     0.24900   0.80753   0.16664   0.00000  Uiso   1.00
H606   H     0.29409   0.84333   0.15716   0.00000  Uiso   1.00
H607   H     0.27311   0.81307   0.08901   0.00000  Uiso   1.00
H608   H     0.26751   0.87617   0.09103   0.00000  Uiso   1.00
O609   O     0.05786   0.82662   0.06250   0.00000  Uiso   1.00
C610   C     0.03737   0.87053   0.06462   0.00000  Uiso   1.00
H611   H     0.00395   0.86364   0.06288   0.00000  Uiso   1.00
H612   H     0.04629   0.89484   0.03657   0.00000  Uiso   1.00
C613   C     0.04439   0.89459   0.10870   0.00000  Uiso   1.00
H614   H     0.03628   0.87006   0.13654   0.00000  Uiso   1.00
H615   H     0.07746   0.90422   0.10959   0.00000  Uiso   1.00
C616   C     0.01851   0.93900   0.11496   0.00000  Uiso   1.00
H617   H     0.02622   0.96419   0.08761   0.00000  Uiso   1.00
H618   H     0.02504   0.95579   0.14681   0.00000  Uiso   1.00
H619   H     0.31847   0.93045   0.11586   0.00000  Uiso   1.00
O620   O     0.27465   0.84609   0.43671   0.00000  Uiso   1.00
C621   C     0.29645   0.88843   0.44217   0.00000  Uiso   1.00
H622   H     0.32303   0.88115   0.46250   0.00000  Uiso   1.00
H623   H     0.27728   0.91677   0.45861   0.00000  Uiso   1.00
C624   C     0.31233   0.90639   0.39653   0.00000  Uiso   1.00
H625   H     0.32942   0.87807   0.37817   0.00000  Uiso   1.00
H626   H     0.28566   0.91648   0.37734   0.00000  Uiso   1.00
C627   C     0.00737   0.94866   0.40009   0.00000  Uiso   1.00
H628   H     0.32387   0.97791   0.41739   0.00000  Uiso   1.00
H629   H     0.01831   0.96064   0.36639   0.00000  Uiso   1.00
H630   H     0.03463   0.93911   0.41854   0.00000  Uiso   1.00
C631   C     0.42088   0.83336   0.24751   0.00000  Uiso   1.00
C632   C     0.57913   0.83332   0.25242   0.00000  Uiso   1.00
C633   C     0.42671   0.82967   0.03465   0.00000  Uiso   1.00
C634   C     0.57281   0.84412   0.46528   0.00000  Uiso   1.00
C635   C     0.35475   0.79085   0.24703   0.00000  Uiso   1.00
C636   C     0.64528   0.87591   0.25274   0.00000  Uiso   1.00
C637   C     0.64540   0.79078   0.24956   0.00000  Uiso   1.00
C638   C     0.35463   0.87598   0.25021   0.00000  Uiso   1.00
C639   C     0.62382   0.83331   0.25232   0.00000  Uiso   1.00
C640   C     0.37620   0.83343   0.24752   0.00000  Uiso   1.00
C641   C     0.47425   0.69155   0.22452   0.00000  Uiso   1.00
C642   C     0.52575   0.97511   0.27548   0.00000  Uiso   1.00
C643   C     0.52575   0.69141   0.27549   0.00000  Uiso   1.00
C644   C     0.47425   0.97525   0.22451   0.00000  Uiso   1.00
C645   C     0.50439   0.83341   0.16436   0.00000  Uiso   1.00
C646   C     0.49556   0.83325   0.33564   0.00000  Uiso   1.00
C647   C     0.53097   0.83835   0.40255   0.00000  Uiso   1.00
C648   C     0.46890   0.82959   0.09742   0.00000  Uiso   1.00
C649   C     0.49310   0.83317   0.38421   0.00000  Uiso   1.00
C650   C     0.50683   0.83359   0.11580   0.00000  Uiso   1.00
C651   C     0.45591   0.82896   0.41231   0.00000  Uiso   1.00
C652   C     0.54397   0.83828   0.08774   0.00000  Uiso   1.00
C653   C     0.45905   0.83064   0.45912   0.00000  Uiso   1.00
C654   C     0.54070   0.83896   0.04092   0.00000  Uiso   1.00
C655   C     0.49819   0.83513   0.47679   0.00000  Uiso   1.00
C656   C     0.50152   0.83529   0.02325   0.00000  Uiso   1.00
C657   C     0.53407   0.83905   0.44816   0.00000  Uiso   1.00
C658   C     0.46563   0.83137   0.05188   0.00000  Uiso   1.00
C659   C     0.42371   0.82807   0.48904   0.00000  Uiso   1.00
C660   C     0.57594   0.84322   0.01101   0.00000  Uiso   1.00
Cu661  Cu    0.50000   0.88022   0.25000   0.00000  Uiso   1.00
Cu662  Cu    0.50000   0.78645   0.25000   0.00000  Uiso   1.00
H663   H     0.55855   0.84173   0.38046   0.00000  Uiso   1.00
H664   H     0.44139   0.82539   0.11944   0.00000  Uiso   1.00
H665   H     0.39284   0.82490   0.47819   0.00000  Uiso   1.00
H666   H     0.60678   0.84554   0.02200   0.00000  Uiso   1.00
H667   H     0.37086   0.75759   0.24506   0.00000  Uiso   1.00
H668   H     0.62917   0.90917   0.25471   0.00000  Uiso   1.00
H669   H     0.62940   0.75749   0.24896   0.00000  Uiso   1.00
H670   H     0.37064   0.90927   0.25076   0.00000  Uiso   1.00
H671   H     0.45363   0.71031   0.20409   0.00000  Uiso   1.00
H672   H     0.54636   0.95635   0.29591   0.00000  Uiso   1.00
H673   H     0.54635   0.71007   0.29592   0.00000  Uiso   1.00
H674   H     0.45364   0.95659   0.20408   0.00000  Uiso   1.00
N675   N     0.50000   0.95069   0.25000   0.00000  Uiso   1.00
N676   N     0.50000   0.71598   0.25000   0.00000  Uiso   1.00
O677   O     0.43988   0.87291   0.25000   0.00000  Uiso   1.00
O678   O     0.56012   0.79375   0.25000   0.00000  Uiso   1.00
O679   O     0.56012   0.87291   0.25000   0.00000  Uiso   1.00
O680   O     0.43988   0.79375   0.25000   0.00000  Uiso   1.00
O681   O     0.49999   0.87293   0.18513   0.00000  Uiso   1.00
O682   O     0.50001   0.79373   0.31487   0.00000  Uiso   1.00
O683   O     0.50001   0.87293   0.31487   0.00000  Uiso   1.00
O684   O     0.49999   0.79373   0.18513   0.00000  Uiso   1.00
C685   C     0.41237   0.82291   0.39648   0.00000  Uiso   1.00
C686   C     0.40647   0.82099   0.34766   0.00000  Uiso   1.00
H687   H     0.41672   0.85465   0.33228   0.00000  Uiso   1.00
H688   H     0.42260   0.79004   0.33287   0.00000  Uiso   1.00
H689   H     0.37312   0.81669   0.34265   0.00000  Uiso   1.00
H690   H     0.39912   0.78982   0.41083   0.00000  Uiso   1.00
H691   H     0.39326   0.85274   0.40946   0.00000  Uiso   1.00
C692   C     0.58760   0.84241   0.10363   0.00000  Uiso   1.00
C693   C     0.59386   0.84125   0.15238   0.00000  Uiso   1.00
H694   H     0.57907   0.87234   0.16842   0.00000  Uiso   1.00
H695   H     0.58234   0.80753   0.16664   0.00000  Uiso   1.00
H696   H     0.62742   0.84333   0.15716   0.00000  Uiso   1.00
H697   H     0.60644   0.81307   0.08901   0.00000  Uiso   1.00
H698   H     0.60085   0.87617   0.09103   0.00000  Uiso   1.00
O699   O     0.39119   0.82662   0.06250   0.00000  Uiso   1.00
C700   C     0.37070   0.87053   0.06462   0.00000  Uiso   1.00
H701   H     0.33729   0.86364   0.06288   0.00000  Uiso   1.00
H702   H     0.37963   0.89484   0.03657   0.00000  Uiso   1.00
C703   C     0.37772   0.89459   0.10870   0.00000  Uiso   1.00
H704   H     0.36962   0.87006   0.13654   0.00000  Uiso   1.00
H705   H     0.41079   0.90422   0.10959   0.00000  Uiso   1.00
C706   C     0.35184   0.93900   0.11496   0.00000  Uiso   1.00
H707   H     0.35956   0.96419   0.08761   0.00000  Uiso   1.00
H708   H     0.35838   0.95579   0.14681   0.00000  Uiso   1.00
H709   H     0.65180   0.93045   0.11586   0.00000  Uiso   1.00
O710   O     0.60798   0.84609   0.43671   0.00000  Uiso   1.00
C711   C     0.62979   0.88843   0.44217   0.00000  Uiso   1.00
H712   H     0.65637   0.88115   0.46250   0.00000  Uiso   1.00
H713   H     0.61061   0.91677   0.45861   0.00000  Uiso   1.00
C714   C     0.64566   0.90639   0.39653   0.00000  Uiso   1.00
H715   H     0.66275   0.87807   0.37817   0.00000  Uiso   1.00
H716   H     0.61899   0.91648   0.37734   0.00000  Uiso   1.00
C717   C     0.34071   0.94866   0.40009   0.00000  Uiso   1.00
H718   H     0.65720   0.97791   0.41739   0.00000  Uiso   1.00
H719   H     0.35164   0.96064   0.36639   0.00000  Uiso   1.00
H720   H     0.36796   0.93911   0.41854   0.00000  Uiso   1.00
C721   C     0.75421   0.83336   0.24751   0.00000  Uiso   1.00
C722   C     0.91247   0.83332   0.25242   0.00000  Uiso   1.00
C723   C     0.76004   0.82967   0.03465   0.00000  Uiso   1.00
C724   C     0.90614   0.84412   0.46528   0.00000  Uiso   1.00
C725   C     0.68808   0.79085   0.24703   0.00000  Uiso   1.00
C726   C     0.97861   0.87591   0.25274   0.00000  Uiso   1.00
C727   C     0.97873   0.79078   0.24956   0.00000  Uiso   1.00
C728   C     0.68796   0.87598   0.25021   0.00000  Uiso   1.00
C729   C     0.95716   0.83331   0.25232   0.00000  Uiso   1.00
C730   C     0.70953   0.83343   0.24752   0.00000  Uiso   1.00
C731   C     0.80758   0.69155   0.22452   0.00000  Uiso   1.00
C732   C     0.85908   0.97511   0.27548   0.00000  Uiso   1.00
C733   C     0.85908   0.69141   0.27549   0.00000  Uiso   1.00
C734   C     0.80758   0.97525   0.22451   0.00000  Uiso   1.00
C735   C     0.83772   0.83341   0.16436   0.00000  Uiso   1.00
C736   C     0.82889   0.83325   0.33564   0.00000  Uiso   1.00
C737   C     0.86430   0.83835   0.40255   0.00000  Uiso   1.00
C738   C     0.80223   0.82959   0.09742   0.00000  Uiso   1.00
C739   C     0.82643   0.83317   0.38421   0.00000  Uiso   1.00
C740   C     0.84016   0.83359   0.11580   0.00000  Uiso   1.00
C741   C     0.78925   0.82896   0.41231   0.00000  Uiso   1.00
C742   C     0.87730   0.83828   0.08774   0.00000  Uiso   1.00
C743   C     0.79239   0.83064   0.45912   0.00000  Uiso   1.00
C744   C     0.87403   0.83896   0.04092   0.00000  Uiso   1.00
C745   C     0.83153   0.83513   0.47679   0.00000  Uiso   1.00
C746   C     0.83485   0.83529   0.02325   0.00000  Uiso   1.00
C747   C     0.86740   0.83905   0.44816   0.00000  Uiso   1.00
C748   C     0.79897   0.83137   0.05188   0.00000  Uiso   1.00
C749   C     0.75705   0.82807   0.48904   0.00000  Uiso   1.00
C750   C     0.90928   0.84322   0.01101   0.00000  Uiso   1.00
Cu751  Cu    0.83333   0.88022   0.25000   0.00000  Uiso   1.00
Cu752  Cu    0.83333   0.78645   0.25000   0.00000  Uiso   1.00
H753   H     0.89188   0.84173   0.38046   0.00000  Uiso   1.00
H754   H     0.77472   0.82539   0.11944   0.00000  Uiso   1.00
H755   H     0.72617   0.82490   0.47819   0.00000  Uiso   1.00
H756   H     0.94012   0.84554   0.02200   0.00000  Uiso   1.00
H757   H     0.70419   0.75759   0.24506   0.00000  Uiso   1.00
H758   H     0.96250   0.90917   0.25471   0.00000  Uiso   1.00
H759   H     0.96273   0.75749   0.24896   0.00000  Uiso   1.00
H760   H     0.70397   0.90927   0.25076   0.00000  Uiso   1.00
H761   H     0.78697   0.71031   0.20409   0.00000  Uiso   1.00
H762   H     0.87969   0.95635   0.29591   0.00000  Uiso   1.00
H763   H     0.87968   0.71007   0.29592   0.00000  Uiso   1.00
H764   H     0.78698   0.95659   0.20408   0.00000  Uiso   1.00
N765   N     0.83333   0.95069   0.25000   0.00000  Uiso   1.00
N766   N     0.83333   0.71598   0.25000   0.00000  Uiso   1.00
O767   O     0.77321   0.87291   0.25000   0.00000  Uiso   1.00
O768   O     0.89345   0.79375   0.25000   0.00000  Uiso   1.00
O769   O     0.89345   0.87291   0.25000   0.00000  Uiso   1.00
O770   O     0.77321   0.79375   0.25000   0.00000  Uiso   1.00
O771   O     0.83332   0.87293   0.18513   0.00000  Uiso   1.00
O772   O     0.83334   0.79373   0.31487   0.00000  Uiso   1.00
O773   O     0.83334   0.87293   0.31487   0.00000  Uiso   1.00
O774   O     0.83332   0.79373   0.18513   0.00000  Uiso   1.00
C775   C     0.74571   0.82291   0.39648   0.00000  Uiso   1.00
C776   C     0.73980   0.82099   0.34766   0.00000  Uiso   1.00
H777   H     0.75005   0.85465   0.33228   0.00000  Uiso   1.00
H778   H     0.75594   0.79004   0.33287   0.00000  Uiso   1.00
H779   H     0.70645   0.81669   0.34265   0.00000  Uiso   1.00
H780   H     0.73245   0.78982   0.41083   0.00000  Uiso   1.00
H781   H     0.72659   0.85274   0.40946   0.00000  Uiso   1.00
C782   C     0.92094   0.84241   0.10363   0.00000  Uiso   1.00
C783   C     0.92720   0.84125   0.15238   0.00000  Uiso   1.00
H784   H     0.91241   0.87234   0.16842   0.00000  Uiso   1.00
H785   H     0.91567   0.80753   0.16664   0.00000  Uiso   1.00
H786   H     0.96076   0.84333   0.15716   0.00000  Uiso   1.00
H787   H     0.93977   0.81307   0.08901   0.00000  Uiso   1.00
H788   H     0.93418   0.87617   0.09103   0.00000  Uiso   1.00
O789   O     0.72453   0.82662   0.06250   0.00000  Uiso   1.00
C790   C     0.70404   0.87053   0.06462   0.00000  Uiso   1.00
H791   H     0.67062   0.86364   0.06288   0.00000  Uiso   1.00
H792   H     0.71296   0.89484   0.03657   0.00000  Uiso   1.00
C793   C     0.71105   0.89459   0.10870   0.00000  Uiso   1.00
H794   H     0.70295   0.87006   0.13654   0.00000  Uiso   1.00
H795   H     0.74413   0.90422   0.10959   0.00000  Uiso   1.00
C796   C     0.68518   0.93900   0.11496   0.00000  Uiso   1.00
H797   H     0.69289   0.96419   0.08761   0.00000  Uiso   1.00
H798   H     0.69171   0.95579   0.14681   0.00000  Uiso   1.00
H799   H     0.98514   0.93045   0.11586   0.00000  Uiso   1.00
O800   O     0.94132   0.84609   0.43671   0.00000  Uiso   1.00
C801   C     0.96312   0.88843   0.44217   0.00000  Uiso   1.00
H802   H     0.98970   0.88115   0.46250   0.00000  Uiso   1.00
H803   H     0.94395   0.91677   0.45861   0.00000  Uiso   1.00
C804   C     0.97899   0.90639   0.39653   0.00000  Uiso   1.00
H805   H     0.99608   0.87807   0.37817   0.00000  Uiso   1.00
H806   H     0.95233   0.91648   0.37734   0.00000  Uiso   1.00
C807   C     0.67404   0.94866   0.40009   0.00000  Uiso   1.00
H808   H     0.99054   0.97791   0.41739   0.00000  Uiso   1.00
H809   H     0.68497   0.96064   0.36639   0.00000  Uiso   1.00
H810   H     0.70130   0.93911   0.41854   0.00000  Uiso   1.00
C811   C     0.08754   0.16669   0.74751   0.00000  Uiso   1.00
C812   C     0.24580   0.16666   0.75242   0.00000  Uiso   1.00
C813   C     0.09337   0.16300   0.53465   0.00000  Uiso   1.00
C814   C     0.23947   0.17745   0.96528   0.00000  Uiso   1.00
C815   C     0.02141   0.12418   0.74703   0.00000  Uiso   1.00
C816   C     0.31195   0.20925   0.75274   0.00000  Uiso   1.00
C817   C     0.31207   0.12411   0.74956   0.00000  Uiso   1.00
C818   C     0.02130   0.20931   0.75021   0.00000  Uiso   1.00
C819   C     0.29049   0.16665   0.75232   0.00000  Uiso   1.00
C820   C     0.04287   0.16676   0.74752   0.00000  Uiso   1.00
C821   C     0.14091   0.02488   0.72452   0.00000  Uiso   1.00
C822   C     0.19242   0.30845   0.77548   0.00000  Uiso   1.00
C823   C     0.19241   0.02474   0.77549   0.00000  Uiso   1.00
C824   C     0.14092   0.30858   0.72451   0.00000  Uiso   1.00
C825   C     0.17105   0.16674   0.66436   0.00000  Uiso   1.00
C826   C     0.16223   0.16658   0.83564   0.00000  Uiso   1.00
C827   C     0.19763   0.17169   0.90255   0.00000  Uiso   1.00
C828   C     0.13556   0.16292   0.59742   0.00000  Uiso   1.00
C829   C     0.15977   0.16651   0.88421   0.00000  Uiso   1.00
C830   C     0.17350   0.16693   0.61580   0.00000  Uiso   1.00
C831   C     0.12258   0.16229   0.91231   0.00000  Uiso   1.00
C832   C     0.21064   0.17161   0.58774   0.00000  Uiso   1.00
C833   C     0.12572   0.16397   0.95912   0.00000  Uiso   1.00
C834   C     0.20737   0.17229   0.54092   0.00000  Uiso   1.00
C835   C     0.16486   0.16847   0.97679   0.00000  Uiso   1.00
C836   C     0.16818   0.16862   0.52325   0.00000  Uiso   1.00
C837   C     0.20073   0.17238   0.94816   0.00000  Uiso   1.00
C838   C     0.13230   0.16470   0.55188   0.00000  Uiso   1.00
C839   C     0.09038   0.16140   0.98904   0.00000  Uiso   1.00
C840   C     0.24261   0.17655   0.51101   0.00000  Uiso   1.00
Cu841  Cu    0.16667   0.21355   0.75000   0.00000  Uiso   1.00
Cu842  Cu    0.16667   0.11978   0.75000   0.00000  Uiso   1.00
H843   H     0.22521   0.17506   0.88046   0.00000  Uiso   1.00
H844   H     0.10805   0.15873   0.61944   0.00000  Uiso   1.00
H845   H     0.05951   0.15823   0.97819   0.00000  Uiso   1.00
H846   H     0.27345   0.17887   0.52200   0.00000  Uiso   1.00
H847   H     0.03752   0.09093   0.74506   0.00000  Uiso   1.00
H848   H     0.29583   0.24250   0.75471   0.00000  Uiso   1.00
H849   H     0.29606   0.09082   0.74896   0.00000  Uiso   1.00
H850   H     0.03731   0.24261   0.75076   0.00000  Uiso   1.00
H851   H     0.12030   0.04365   0.70409   0.00000  Uiso   1.00
H852   H     0.21303   0.28968   0.79591   0.00000  Uiso   1.00
H853   H     0.21302   0.04340   0.79592   0.00000  Uiso   1.00
H854   H     0.12031   0.28992   0.70408   0.00000  Uiso   1.00
N855   N     0.16667   0.28402   0.75000   0.00000  Uiso   1.00
N856   N     0.16667   0.04931   0.75000   0.00000  Uiso   1.00
O857   O     0.10655   0.20625   0.75000   0.00000  Uiso   1.00
O858   O     0.22679   0.12709   0.75000   0.00000  Uiso   1.00
O859   O     0.22679   0.20625   0.75000   0.00000  Uiso   1.00
O860   O     0.10655   0.12709   0.75000   0.00000  Uiso   1.00
O861   O     0.16666   0.20627   0.68513   0.00000  Uiso   1.00
O862   O     0.16668   0.12707   0.81487   0.00000  Uiso   1.00
O863   O     0.16668   0.20627   0.81487   0.00000  Uiso   1.00
O864   O     0.16666   0.12707   0.68513   0.00000  Uiso   1.00
C865   C     0.07904   0.15624   0.89648   0.00000  Uiso   1.00
C866   C     0.07314   0.15432   0.84766   0.00000  Uiso   1.00
H867   H     0.08338   0.18798   0.83228   0.00000  Uiso   1.00
H868   H     0.08927   0.12338   0.83287   0.00000  Uiso   1.00
H869   H     0.03979   0.15003   0.84265   0.00000  Uiso   1.00
H870   H     0.06579   0.12315   0.91083   0.00000  Uiso   1.00
H871   H     0.05992   0.18607   0.90946   0.00000  Uiso   1.00
C872   C     0.25427   0.17574   0.60363   0.00000  Uiso   1.00
C873   C     0.26053   0.17459   0.65238   0.00000  Uiso   1.00
H874   H     0.24574   0.20568   0.66842   0.00000  Uiso   1.00
H875   H     0.24900   0.14087   0.66664   0.00000  Uiso   1.00
H876   H     0.29409   0.17666   0.65716   0.00000  Uiso   1.00
H877   H     0.27311   0.14640   0.58901   0.00000  Uiso   1.00
H878   H     0.26751   0.20951   0.59103   0.00000  Uiso   1.00
O879   O     0.05786   0.15996   0.56250   0.00000  Uiso   1.00
C880   C     0.03737   0.20386   0.56462   0.00000  Uiso   1.00
H881   H     0.00395   0.19698   0.56288   0.00000  Uiso   1.00
H882   H     0.04629   0.22817   0.53657   0.00000  Uiso   1.00
C883   C     0.04439   0.22793   0.60870   0.00000  Uiso   1.00
H884   H     0.03628   0.20339   0.63654   0.00000  Uiso   1.00
H885   H     0.07746   0.23755   0.60959   0.00000  Uiso   1.00
C886   C     0.01851   0.27233   0.61496   0.00000  Uiso   1.00
H887   H     0.02622   0.29752   0.58761   0.00000  Uiso   1.00
H888   H     0.02504   0.28913   0.64681   0.00000  Uiso   1.00
H889   H     0.31847   0.26378   0.61586   0.00000  Uiso   1.00
O890   O     0.27465   0.17942   0.93671   0.00000  Uiso   1.00
C891   C     0.29645   0.22177   0.94217   0.00000  Uiso   1.00
H892   H     0.32303   0.21448   0.96250   0.00000  Uiso   1.00
H893   H     0.27728   0.25010   0.95861   0.00000  Uiso   1.00
C894   C     0.31233   0.23973   0.89653   0.00000  Uiso   1.00
H895   H     0.32942   0.21140   0.87817   0.00000  Uiso   1.00
H896   H     0.28566   0.24981   0.87734   0.00000  Uiso   1.00
C897   C     0.00737   0.28199   0.90009   0.00000  Uiso   1.00
H898   H     0.32387   0.31124   0.91739   0.00000  Uiso   1.00
H899   H     0.01831   0.29397   0.86639   0.00000  Uiso   1.00
H900   H     0.03463   0.27245   0.91854   0.00000  Uiso   1.00
C901   C     0.42088   0.16669   0.74751   0.00000  Uiso   1.00
C902   C     0.57913   0.16666   0.75242   0.00000  Uiso   1.00
C903   C     0.42671   0.16300   0.53465   0.00000  Uiso   1.00
C904   C     0.57281   0.17745   0.96528   0.00000  Uiso   1.00
C905   C     0.35475   0.12418   0.74703   0.00000  Uiso   1.00
C906   C     0.64528   0.20925   0.75274   0.00000  Uiso   1.00
C907   C     0.64540   0.12411   0.74956   0.00000  Uiso   1.00
C908   C     0.35463   0.20931   0.75021   0.00000  Uiso   1.00
C909   C     0.62382   0.16665   0.75232   0.00000  Uiso   1.00
C910   C     0.37620   0.16676   0.74752   0.00000  Uiso   1.00
C911   C     0.47425   0.02488   0.72452   0.00000  Uiso   1.00
C912   C     0.52575   0.30845   0.77548   0.00000  Uiso   1.00
C913   C     0.52575   0.02474   0.77549   0.00000  Uiso   1.00
C914   C     0.47425   0.30858   0.72451   0.00000  Uiso   1.00
C915   C     0.50439   0.16674   0.66436   0.00000  Uiso   1.00
C916   C     0.49556   0.16658   0.83564   0.00000  Uiso   1.00
C917   C     0.53097   0.17169   0.90255   0.00000  Uiso   1.00
C918   C     0.46890   0.16292   0.59742   0.00000  Uiso   1.00
C919   C     0.49310   0.16651   0.88421   0.00000  Uiso   1.00
C920   C     0.50683   0.16693   0.61580   0.00000  Uiso   1.00
C921   C     0.45591   0.16229   0.91231   0.00000  Uiso   1.00
C922   C     0.54397   0.17161   0.58774   0.00000  Uiso   1.00
C923   C     0.45905   0.16397   0.95912   0.00000  Uiso   1.00
C924   C     0.54070   0.17229   0.54092   0.00000  Uiso   1.00
C925   C     0.49819   0.16847   0.97679   0.00000  Uiso   1.00
C926   C     0.50152   0.16862   0.52325   0.00000  Uiso   1.00
C927   C     0.53407   0.17238   0.94816   0.00000  Uiso   1.00
C928   C     0.46563   0.16470   0.55188   0.00000  Uiso   1.00
C929   C     0.42371   0.16140   0.98904   0.00000  Uiso   1.00
C930   C     0.57594   0.17655   0.51101   0.00000  Uiso   1.00
Cu931  Cu    0.50000   0.21355   0.75000   0.00000  Uiso   1.00
Cu932  Cu    0.50000   0.11978   0.75000   0.00000  Uiso   1.00
H933   H     0.55855   0.17506   0.88046   0.00000  Uiso   1.00
H934   H     0.44139   0.15873   0.61944   0.00000  Uiso   1.00
H935   H     0.39284   0.15823   0.97819   0.00000  Uiso   1.00
H936   H     0.60678   0.17887   0.52200   0.00000  Uiso   1.00
H937   H     0.37086   0.09093   0.74506   0.00000  Uiso   1.00
H938   H     0.62917   0.24250   0.75471   0.00000  Uiso   1.00
H939   H     0.62940   0.09082   0.74896   0.00000  Uiso   1.00
H940   H     0.37064   0.24261   0.75076   0.00000  Uiso   1.00
H941   H     0.45363   0.04365   0.70409   0.00000  Uiso   1.00
H942   H     0.54636   0.28968   0.79591   0.00000  Uiso   1.00
H943   H     0.54635   0.04340   0.79592   0.00000  Uiso   1.00
H944   H     0.45364   0.28992   0.70408   0.00000  Uiso   1.00
N945   N     0.50000   0.28402   0.75000   0.00000  Uiso   1.00
N946   N     0.50000   0.04931   0.75000   0.00000  Uiso   1.00
O947   O     0.43988   0.20625   0.75000   0.00000  Uiso   1.00
O948   O     0.56012   0.12709   0.75000   0.00000  Uiso   1.00
O949   O     0.56012   0.20625   0.75000   0.00000  Uiso   1.00
O950   O     0.43988   0.12709   0.75000   0.00000  Uiso   1.00
O951   O     0.49999   0.20627   0.68513   0.00000  Uiso   1.00
O952   O     0.50001   0.12707   0.81487   0.00000  Uiso   1.00
O953   O     0.50001   0.20627   0.81487   0.00000  Uiso   1.00
O954   O     0.49999   0.12707   0.68513   0.00000  Uiso   1.00
C955   C     0.41237   0.15624   0.89648   0.00000  Uiso   1.00
C956   C     0.40647   0.15432   0.84766   0.00000  Uiso   1.00
H957   H     0.41672   0.18798   0.83228   0.00000  Uiso   1.00
H958   H     0.42260   0.12338   0.83287   0.00000  Uiso   1.00
H959   H     0.37312   0.15003   0.84265   0.00000  Uiso   1.00
H960   H     0.39912   0.12315   0.91083   0.00000  Uiso   1.00
H961   H     0.39326   0.18607   0.90946   0.00000  Uiso   1.00
C962   C     0.58760   0.17574   0.60363   0.00000  Uiso   1.00
C963   C     0.59386   0.17459   0.65238   0.00000  Uiso   1.00
H964   H     0.57907   0.20568   0.66842   0.00000  Uiso   1.00
H965   H     0.58234   0.14087   0.66664   0.00000  Uiso   1.00
H966   H     0.62742   0.17666   0.65716   0.00000  Uiso   1.00
H967   H     0.60644   0.14640   0.58901   0.00000  Uiso   1.00
H968   H     0.60085   0.20951   0.59103   0.00000  Uiso   1.00
O969   O     0.39119   0.15996   0.56250   0.00000  Uiso   1.00
C970   C     0.37070   0.20386   0.56462   0.00000  Uiso   1.00
H971   H     0.33729   0.19698   0.56288   0.00000  Uiso   1.00
H972   H     0.37963   0.22817   0.53657   0.00000  Uiso   1.00
C973   C     0.37772   0.22793   0.60870   0.00000  Uiso   1.00
H974   H     0.36962   0.20339   0.63654   0.00000  Uiso   1.00
H975   H     0.41079   0.23755   0.60959   0.00000  Uiso   1.00
C976   C     0.35184   0.27233   0.61496   0.00000  Uiso   1.00
H977   H     0.35956   0.29752   0.58761   0.00000  Uiso   1.00
H978   H     0.35838   0.28913   0.64681   0.00000  Uiso   1.00
H979   H     0.65180   0.26378   0.61586   0.00000  Uiso   1.00
O980   O     0.60798   0.17942   0.93671   0.00000  Uiso   1.00
C981   C     0.62979   0.22177   0.94217   0.00000  Uiso   1.00
H982   H     0.65637   0.21448   0.96250   0.00000  Uiso   1.00
H983   H     0.61061   0.25010   0.95861   0.00000  Uiso   1.00
C984   C     0.64566   0.23973   0.89653   0.00000  Uiso   1.00
H985   H     0.66275   0.21140   0.87817   0.00000  Uiso   1.00
H986   H     0.61899   0.24981   0.87734   0.00000  Uiso   1.00
C987   C     0.34071   0.28199   0.90009   0.00000  Uiso   1.00
H988   H     0.65720   0.31124   0.91739   0.00000  Uiso   1.00
H989   H     0.35164   0.29397   0.86639   0.00000  Uiso   1.00
H990   H     0.36796   0.27245   0.91854   0.00000  Uiso   1.00
C991   C     0.75421   0.16669   0.74751   0.00000  Uiso   1.00
C992   C     0.91247   0.16666   0.75242   0.00000  Uiso   1.00
C993   C     0.76004   0.16300   0.53465   0.00000  Uiso   1.00
C994   C     0.90614   0.17745   0.96528   0.00000  Uiso   1.00
C995   C     0.68808   0.12418   0.74703   0.00000  Uiso   1.00
C996   C     0.97861   0.20925   0.75274   0.00000  Uiso   1.00
C997   C     0.97873   0.12411   0.74956   0.00000  Uiso   1.00
C998   C     0.68796   0.20931   0.75021   0.00000  Uiso   1.00
C999   C     0.95716   0.16665   0.75232   0.00000  Uiso   1.00
C1000  C     0.70953   0.16676   0.74752   0.00000  Uiso   1.00
C1001  C     0.80758   0.02488   0.72452   0.00000  Uiso   1.00
C1002  C     0.85908   0.30845   0.77548   0.00000  Uiso   1.00
C1003  C     0.85908   0.02474   0.77549   0.00000  Uiso   1.00
C1004  C     0.80758   0.30858   0.72451   0.00000  Uiso   1.00
C1005  C     0.83772   0.16674   0.66436   0.00000  Uiso   1.00
C1006  C     0.82889   0.16658   0.83564   0.00000  Uiso   1.00
C1007  C     0.86430   0.17169   0.90255   0.00000  Uiso   1.00
C1008  C     0.80223   0.16292   0.59742   0.00000  Uiso   1.00
C1009  C     0.82643   0.16651   0.88421   0.00000  Uiso   1.00
C1010  C     0.84016   0.16693   0.61580   0.00000  Uiso   1.00
C1011  C     0.78925   0.16229   0.91231   0.00000  Uiso   1.00
C1012  C     0.87730   0.17161   0.58774   0.00000  Uiso   1.00
C1013  C     0.79239   0.16397   0.95912   0.00000  Uiso   1.00
C1014  C     0.87403   0.17229   0.54092   0.00000  Uiso   1.00
C1015  C     0.83153   0.16847   0.97679   0.00000  Uiso   1.00
C1016  C     0.83485   0.16862   0.52325   0.00000  Uiso   1.00
C1017  C     0.86740   0.17238   0.94816   0.00000  Uiso   1.00
C1018  C     0.79897   0.16470   0.55188   0.00000  Uiso   1.00
C1019  C     0.75705   0.16140   0.98904   0.00000  Uiso   1.00
C1020  C     0.90928   0.17655   0.51101   0.00000  Uiso   1.00
Cu1021 Cu    0.83333   0.21355   0.75000   0.00000  Uiso   1.00
Cu1022 Cu    0.83333   0.11978   0.75000   0.00000  Uiso   1.00
H1023  H     0.89188   0.17506   0.88046   0.00000  Uiso   1.00
H1024  H     0.77472   0.15873   0.61944   0.00000  Uiso   1.00
H1025  H     0.72617   0.15823   0.97819   0.00000  Uiso   1.00
H1026  H     0.94012   0.17887   0.52200   0.00000  Uiso   1.00
H1027  H     0.70419   0.09093   0.74506   0.00000  Uiso   1.00
H1028  H     0.96250   0.24250   0.75471   0.00000  Uiso   1.00
H1029  H     0.96273   0.09082   0.74896   0.00000  Uiso   1.00
H1030  H     0.70397   0.24261   0.75076   0.00000  Uiso   1.00
H1031  H     0.78697   0.04365   0.70409   0.00000  Uiso   1.00
H1032  H     0.87969   0.28968   0.79591   0.00000  Uiso   1.00
H1033  H     0.87968   0.04340   0.79592   0.00000  Uiso   1.00
H1034  H     0.78698   0.28992   0.70408   0.00000  Uiso   1.00
N1035  N     0.83333   0.28402   0.75000   0.00000  Uiso   1.00
N1036  N     0.83333   0.04931   0.75000   0.00000  Uiso   1.00
O1037  O     0.77321   0.20625   0.75000   0.00000  Uiso   1.00
O1038  O     0.89345   0.12709   0.75000   0.00000  Uiso   1.00
O1039  O     0.89345   0.20625   0.75000   0.00000  Uiso   1.00
O1040  O     0.77321   0.12709   0.75000   0.00000  Uiso   1.00
O1041  O     0.83332   0.20627   0.68513   0.00000  Uiso   1.00
O1042  O     0.83334   0.12707   0.81487   0.00000  Uiso   1.00
O1043  O     0.83334   0.20627   0.81487   0.00000  Uiso   1.00
O1044  O     0.83332   0.12707   0.68513   0.00000  Uiso   1.00
C1045  C     0.74571   0.15624   0.89648   0.00000  Uiso   1.00
C1046  C     0.73980   0.15432   0.84766   0.00000  Uiso   1.00
H1047  H     0.75005   0.18798   0.83228   0.00000  Uiso   1.00
H1048  H     0.75594   0.12338   0.83287   0.00000  Uiso   1.00
H1049  H     0.70645   0.15003   0.84265   0.00000  Uiso   1.00
H1050  H     0.73245   0.12315   0.91083   0.00000  Uiso   1.00
H1051  H     0.72659   0.18607   0.90946   0.00000  Uiso   1.00
C1052  C     0.92094   0.17574   0.60363   0.00000  Uiso   1.00
C1053  C     0.92720   0.17459   0.65238   0.00000  Uiso   1.00
H1054  H     0.91241   0.20568   0.66842   0.00000  Uiso   1.00
H1055  H     0.91567   0.14087   0.66664   0.00000  Uiso   1.00
H1056  H     0.96076   0.17666   0.65716   0.00000  Uiso   1.00
H1057  H     0.93977   0.14640   0.58901   0.00000  Uiso   1.00
H1058  H     0.93418   0.20951   0.59103   0.00000  Uiso   1.00
O1059  O     0.72453   0.15996   0.56250   0.00000  Uiso   1.00
C1060  C     0.70404   0.20386   0.56462   0.00000  Uiso   1.00
H1061  H     0.67062   0.19698   0.56288   0.00000  Uiso   1.00
H1062  H     0.71296   0.22817   0.53657   0.00000  Uiso   1.00
C1063  C     0.71105   0.22793   0.60870   0.00000  Uiso   1.00
H1064  H     0.70295   0.20339   0.63654   0.00000  Uiso   1.00
H1065  H     0.74413   0.23755   0.60959   0.00000  Uiso   1.00
C1066  C     0.68518   0.27233   0.61496   0.00000  Uiso   1.00
H1067  H     0.69289   0.29752   0.58761   0.00000  Uiso   1.00
H1068  H     0.69171   0.28913   0.64681   0.00000  Uiso   1.00
H1069  H     0.98514   0.26378   0.61586   0.00000  Uiso   1.00
O1070  O     0.94132   0.17942   0.93671   0.00000  Uiso   1.00
C1071  C     0.96312   0.22177   0.94217   0.00000  Uiso   1.00
H1072  H     0.98970   0.21448   0.96250   0.00000  Uiso   1.00
H1073  H     0.94395   0.25010   0.95861   0.00000  Uiso   1.00
C1074  C     0.97899   0.23973   0.89653   0.00000  Uiso   1.00
H1075  H     0.99608   0.21140   0.87817   0.00000  Uiso   1.00
H1076  H     0.95233   0.24981   0.87734   0.00000  Uiso   1.00
C1077  C     0.67404   0.28199   0.90009   0.00000  Uiso   1.00
H1078  H     0.99054   0.31124   0.91739   0.00000  Uiso   1.00
H1079  H     0.68497   0.29397   0.86639   0.00000  Uiso   1.00
H1080  H     0.70130   0.27245   0.91854   0.00000  Uiso   1.00
C1081  C     0.08754   0.50002   0.74751   0.00000  Uiso   1.00
C1082  C     0.24580   0.49999   0.75242   0.00000  Uiso   1.00
C1083  C     0.09337   0.49634   0.53465   0.00000  Uiso   1.00
C1084  C     0.23947   0.51079   0.96528   0.00000  Uiso   1.00
C1085  C     0.02141   0.45751   0.74703   0.00000  Uiso   1.00
C1086  C     0.31195   0.54258   0.75274   0.00000  Uiso   1.00
C1087  C     0.31207   0.45745   0.74956   0.00000  Uiso   1.00
C1088  C     0.02130   0.54265   0.75021   0.00000  Uiso   1.00
C1089  C     0.29049   0.49998   0.75232   0.00000  Uiso   1.00
C1090  C     0.04287   0.50010   0.74752   0.00000  Uiso   1.00
C1091  C     0.14091   0.35822   0.72452   0.00000  Uiso   1.00
C1092  C     0.19242   0.64178   0.77548   0.00000  Uiso   1.00
C1093  C     0.19241   0.35808   0.77549   0.00000  Uiso   1.00
C1094  C     0.14092   0.64192   0.72451   0.00000  Uiso   1.00
C1095  C     0.17105   0.50008   0.66436   0.00000  Uiso   1.00
C1096  C     0.16223   0.49992   0.83564   0.00000  Uiso   1.00
C1097  C     0.19763   0.50502   0.90255   0.00000  Uiso   1.00
C1098  C     0.13556   0.49626   0.59742   0.00000  Uiso   1.00
C1099  C     0.15977   0.49984   0.88421   0.00000  Uiso   1.00
C1100  C     0.17350   0.50026   0.61580   0.00000  Uiso   1.00
C1101  C     0.12258   0.49563   0.91231   0.00000  Uiso   1.00
C1102  C     0.21064   0.50494   0.58774   0.00000  Uiso   1.00
C1103  C     0.12572   0.49731   0.95912   0.00000  Uiso   1.00
C1104  C     0.20737   0.50562   0.54092   0.00000  Uiso   1.00
C1105  C     0.16486   0.50180   0.97679   0.00000  Uiso   1.00
C1106  C     0.16818   0.50195   0.52325   0.00000  Uiso   1.00
C1107  C     0.20073   0.50572   0.94816   0.00000  Uiso   1.00
C1108  C     0.13230   0.49803   0.55188   0.00000  Uiso   1.00
C1109  C     0.09038   0.49474   0.98904   0.00000  Uiso   1.00
C1110  C     0.24261   0.50988   0.51101   0.00000  Uiso   1.00
Cu1111 Cu    0.16667   0.54689   0.75000   0.00000  Uiso   1.00
Cu1112 Cu    0.16667   0.45311   0.75000   0.00000  Uiso   1.00
H1113  H     0.22521   0.50840   0.88046   0.00000  Uiso   1.00
H1114  H     0.10805   0.49206   0.61944   0.00000  Uiso   1.00
H1115  H     0.05951   0.49156   0.97819   0.00000  Uiso   1.00
H1116  H     0.27345   0.51221   0.52200   0.00000  Uiso   1.00
H1117  H     0.03752   0.42426   0.74506   0.00000  Uiso   1.00
H1118  H     0.29583   0.57583   0.75471   0.00000  Uiso   1.00
H1119  H     0.29606   0.42415   0.74896   0.00000  Uiso   1.00
H1120  H     0.03731   0.57594   0.75076   0.00000  Uiso   1.00
H1121  H     0.12030   0.37698   0.70409   0.00000  Uiso   1.00
H1122  H     0.21303   0.62301   0.79591   0.00000  Uiso   1.00
H1123  H     0.21302   0.37674   0.79592   0.00000  Uiso   1.00
H1124  H     0.12031   0.62326   0.70408   0.00000  Uiso   1.00
N1125  N     0.16667   0.61736   0.75000   0.00000  Uiso   1.00
N1126  N     0.16667   0.38264   0.75000   0.00000  Uiso   1.00
O1127  O     0.10655   0.53958   0.75000   0.00000  Uiso   1.00
O1128  O     0.22679   0.46042   0.75000   0.00000  Uiso   1.00
O1129  O     0.22679   0.53958   0.75000   0.00000  Uiso   1.00
O1130  O     0.10655   0.46042   0.75000   0.00000  Uiso   1.00
O1131  O     0.16666   0.53960   0.68513   0.00000  Uiso   1.00
O1132  O     0.16668   0.46040   0.81487   0.00000  Uiso   1.00
O1133  O     0.16668   0.53960   0.81487   0.00000  Uiso   1.00
O1134  O     0.16666   0.46040   0.68513   0.00000  Uiso   1.00
C1135  C     0.07904   0.48957   0.89648   0.00000  Uiso   1.00
C1136  C     0.07314   0.48765   0.84766   0.00000  Uiso   1.00
H1137  H     0.08338   0.52132   0.83228   0.00000  Uiso   1.00
H1138  H     0.08927   0.45671   0.83287   0.00000  Uiso   1.00
H1139  H     0.03979   0.48336   0.84265   0.00000  Uiso   1.00
H1140  H     0.06579   0.45648   0.91083   0.00000  Uiso   1.00
H1141  H     0.05992   0.51941   0.90946   0.00000  Uiso   1.00
C1142  C     0.25427   0.50908   0.60363   0.00000  Uiso   1.00
C1143  C     0.26053   0.50792   0.65238   0.00000  Uiso   1.00
H1144  H     0.24574   0.53901   0.66842   0.00000  Uiso   1.00
H1145  H     0.24900   0.47420   0.66664   0.00000  Uiso   1.00
H1146  H     0.29409   0.50999   0.65716   0.00000  Uiso   1.00
H1147  H     0.27311   0.47974   0.58901   0.00000  Uiso   1.00
H1148  H     0.26751   0.54284   0.59103   0.00000  Uiso   1.00
O1149  O     0.05786   0.49329   0.56250   0.00000  Uiso   1.00
C1150  C     0.03737   0.53719   0.56462   0.00000  Uiso   1.00
H1151  H     0.00395   0.53031   0.56288   0.00000  Uiso   1.00
H1152  H     0.04629   0.56151   0.53657   0.00000  Uiso   1.00
C1153  C     0.04439   0.56126   0.60870   0.00000  Uiso   1.00
H1154  H     0.03628   0.53672   0.63654   0.00000  Uiso   1.00
H1155  H     0.07746   0.57088   0.60959   0.00000  Uiso   1.00
C1156  C     0.01851   0.60566   0.61496   0.00000  Uiso   1.00
H1157  H     0.02622   0.63086   0.58761   0.00000  Uiso   1.00
H1158  H     0.02504   0.62246   0.64681   0.00000  Uiso   1.00
H1159  H     0.31847   0.59711   0.61586   0.00000  Uiso   1.00
O1160  O     0.27465   0.51276   0.93671   0.00000  Uiso   1.00
C1161  C     0.29645   0.55510   0.94217   0.00000  Uiso   1.00
H1162  H     0.32303   0.54782   0.96250   0.00000  Uiso   1.00
H1163  H     0.27728   0.58344   0.95861   0.00000  Uiso   1.00
C1164  C     0.31233   0.57306   0.89653   0.00000  Uiso   1.00
H1165  H     0.32942   0.54473   0.87817   0.00000  Uiso   1.00
H1166  H     0.28566   0.58314   0.87734   0.00000  Uiso   1.00
C1167  C     0.00737   0.61533   0.90009   0.00000  Uiso   1.00
H1168  H     0.32387   0.64457   0.91739   0.00000  Uiso   1.00
H1169  H     0.01831   0.62730   0.86639   0.00000  Uiso   1.00
H1170  H     0.03463   0.60578   0.91854   0.00000  Uiso   1.00
C1171  C     0.42088   0.50002   0.74751   0.00000  Uiso   1.00
C1172  C     0.57913   0.49999   0.75242   0.00000  Uiso   1.00
C1173  C     0.42671   0.49634   0.53465   0.00000  Uiso   1.00
C1174  C     0.57281   0.51079   0.96528   0.00000  Uiso   1.00
C1175  C     0.35475   0.45751   0.74703   0.00000  Uiso   1.00
C1176  C     0.64528   0.54258   0.75274   0.00000  Uiso   1.00
C1177  C     0.64540   0.45745   0.74956   0.00000  Uiso   1.00
C1178  C     0.35463   0.54265   0.75021   0.00000  Uiso   1.00
C1179  C     0.62382   0.49998   0.75232   0.00000  Uiso   1.00
C1180  C     0.37620   0.50010   0.74752   0.00000  Uiso   1.00
C1181  C     0.47425   0.35822   0.72452   0.00000  Uiso   1.00
C1182  C     0.52575   0.64178   0.77548   0.00000  Uiso   1.00
C1183  C     0.52575   0.35808   0.77549   0.00000  Uiso   1.00
C1184  C     0.47425   0.64192   0.72451   0.00000  Uiso   1.00
C1185  C     0.50439   0.50008   0.66436   0.00000  Uiso   1.00
C1186  C     0.49556   0.49992   0.83564   0.00000  Uiso   1.00
C1187  C     0.53097   0.50502   0.90255   0.00000  Uiso   1.00
C1188  C     0.46890   0.49626   0.59742   0.00000  Uiso   1.00
C1189  C     0.49310   0.49984   0.88421   0.00000  Uiso   1.00
C1190  C     0.50683   0.50026   0.61580   0.00000  Uiso   1.00
C1191  C     0.45591   0.49563   0.91231   0.00000  Uiso   1.00
C1192  C     0.54397   0.50494   0.58774   0.00000  Uiso   1.00
C1193  C     0.45905   0.49731   0.95912   0.00000  Uiso   1.00
C1194  C     0.54070   0.50562   0.54092   0.00000  Uiso   1.00
C1195  C     0.49819   0.50180   0.97679   0.00000  Uiso   1.00
C1196  C     0.50152   0.50195   0.52325   0.00000  Uiso   1.00
C1197  C     0.53407   0.50572   0.94816   0.00000  Uiso   1.00
C1198  C     0.46563   0.49803   0.55188   0.00000  Uiso   1.00
C1199  C     0.42371   0.49474   0.98904   0.00000  Uiso   1.00
C1200  C     0.57594   0.50988   0.51101   0.00000  Uiso   1.00
Cu1201 Cu    0.50000   0.54689   0.75000   0.00000  Uiso   1.00
Cu1202 Cu    0.50000   0.45311   0.75000   0.00000  Uiso   1.00
H1203  H     0.55855   0.50840   0.88046   0.00000  Uiso   1.00
H1204  H     0.44139   0.49206   0.61944   0.00000  Uiso   1.00
H1205  H     0.39284   0.49156   0.97819   0.00000  Uiso   1.00
H1206  H     0.60678   0.51221   0.52200   0.00000  Uiso   1.00
H1207  H     0.37086   0.42426   0.74506   0.00000  Uiso   1.00
H1208  H     0.62917   0.57583   0.75471   0.00000  Uiso   1.00
H1209  H     0.62940   0.42415   0.74896   0.00000  Uiso   1.00
H1210  H     0.37064   0.57594   0.75076   0.00000  Uiso   1.00
H1211  H     0.45363   0.37698   0.70409   0.00000  Uiso   1.00
H1212  H     0.54636   0.62301   0.79591   0.00000  Uiso   1.00
H1213  H     0.54635   0.37674   0.79592   0.00000  Uiso   1.00
H1214  H     0.45364   0.62326   0.70408   0.00000  Uiso   1.00
N1215  N     0.50000   0.61736   0.75000   0.00000  Uiso   1.00
N1216  N     0.50000   0.38264   0.75000   0.00000  Uiso   1.00
O1217  O     0.43988   0.53958   0.75000   0.00000  Uiso   1.00
O1218  O     0.56012   0.46042   0.75000   0.00000  Uiso   1.00
O1219  O     0.56012   0.53958   0.75000   0.00000  Uiso   1.00
O1220  O     0.43988   0.46042   0.75000   0.00000  Uiso   1.00
O1221  O     0.49999   0.53960   0.68513   0.00000  Uiso   1.00
O1222  O     0.50001   0.46040   0.81487   0.00000  Uiso   1.00
O1223  O     0.50001   0.53960   0.81487   0.00000  Uiso   1.00
O1224  O     0.49999   0.46040   0.68513   0.00000  Uiso   1.00
C1225  C     0.41237   0.48957   0.89648   0.00000  Uiso   1.00
C1226  C     0.40647   0.48765   0.84766   0.00000  Uiso   1.00
H1227  H     0.41672   0.52132   0.83228   0.00000  Uiso   1.00
H1228  H     0.42260   0.45671   0.83287   0.00000  Uiso   1.00
H1229  H     0.37312   0.48336   0.84265   0.00000  Uiso   1.00
H1230  H     0.39912   0.45648   0.91083   0.00000  Uiso   1.00
H1231  H     0.39326   0.51941   0.90946   0.00000  Uiso   1.00
C1232  C     0.58760   0.50908   0.60363   0.00000  Uiso   1.00
C1233  C     0.59386   0.50792   0.65238   0.00000  Uiso   1.00
H1234  H     0.57907   0.53901   0.66842   0.00000  Uiso   1.00
H1235  H     0.58234   0.47420   0.66664   0.00000  Uiso   1.00
H1236  H     0.62742   0.50999   0.65716   0.00000  Uiso   1.00
H1237  H     0.60644   0.47974   0.58901   0.00000  Uiso   1.00
H1238  H     0.60085   0.54284   0.59103   0.00000  Uiso   1.00
O1239  O     0.39119   0.49329   0.56250   0.00000  Uiso   1.00
C1240  C     0.37070   0.53719   0.56462   0.00000  Uiso   1.00
H1241  H     0.33729   0.53031   0.56288   0.00000  Uiso   1.00
H1242  H     0.37963   0.56151   0.53657   0.00000  Uiso   1.00
C1243  C     0.37772   0.56126   0.60870   0.00000  Uiso   1.00
H1244  H     0.36962   0.53672   0.63654   0.00000  Uiso   1.00
H1245  H     0.41079   0.57088   0.60959   0.00000  Uiso   1.00
C1246  C     0.35184   0.60566   0.61496   0.00000  Uiso   1.00
H1247  H     0.35956   0.63086   0.58761   0.00000  Uiso   1.00
H1248  H     0.35838   0.62246   0.64681   0.00000  Uiso   1.00
H1249  H     0.65180   0.59711   0.61586   0.00000  Uiso   1.00
O1250  O     0.60798   0.51276   0.93671   0.00000  Uiso   1.00
C1251  C     0.62979   0.55510   0.94217   0.00000  Uiso   1.00
H1252  H     0.65637   0.54782   0.96250   0.00000  Uiso   1.00
H1253  H     0.61061   0.58344   0.95861   0.00000  Uiso   1.00
C1254  C     0.64566   0.57306   0.89653   0.00000  Uiso   1.00
H1255  H     0.66275   0.54473   0.87817   0.00000  Uiso   1.00
H1256  H     0.61899   0.58314   0.87734   0.00000  Uiso   1.00
C1257  C     0.34071   0.61533   0.90009   0.00000  Uiso   1.00
H1258  H     0.65720   0.64457   0.91739   0.00000  Uiso   1.00
H1259  H     0.35164   0.62730   0.86639   0.00000  Uiso   1.00
H1260  H     0.36796   0.60578   0.91854   0.00000  Uiso   1.00
C1261  C     0.75421   0.50002   0.74751   0.00000  Uiso   1.00
C1262  C     0.91247   0.49999   0.75242   0.00000  Uiso   1.00
C1263  C     0.76004   0.49634   0.53465   0.00000  Uiso   1.00
C1264  C     0.90614   0.51079   0.96528   0.00000  Uiso   1.00
C1265  C     0.68808   0.45751   0.74703   0.00000  Uiso   1.00
C1266  C     0.97861   0.54258   0.75274   0.00000  Uiso   1.00
C1267  C     0.97873   0.45745   0.74956   0.00000  Uiso   1.00
C1268  C     0.68796   0.54265   0.75021   0.00000  Uiso   1.00
C1269  C     0.95716   0.49998   0.75232   0.00000  Uiso   1.00
C1270  C     0.70953   0.50010   0.74752   0.00000  Uiso   1.00
C1271  C     0.80758   0.35822   0.72452   0.00000  Uiso   1.00
C1272  C     0.85908   0.64178   0.77548   0.00000  Uiso   1.00
C1273  C     0.85908   0.35808   0.77549   0.00000  Uiso   1.00
C1274  C     0.80758   0.64192   0.72451   0.00000  Uiso   1.00
C1275  C     0.83772   0.50008   0.66436   0.00000  Uiso   1.00
C1276  C     0.82889   0.49992   0.83564   0.00000  Uiso   1.00
C1277  C     0.86430   0.50502   0.90255   0.00000  Uiso   1.00
C1278  C     0.80223   0.49626   0.59742   0.00000  Uiso   1.00
C1279  C     0.82643   0.49984   0.88421   0.00000  Uiso   1.00
C1280  C     0.84016   0.50026   0.61580   0.00000  Uiso   1.00
C1281  C     0.78925   0.49563   0.91231   0.00000  Uiso   1.00
C1282  C     0.87730   0.50494   0.58774   0.00000  Uiso   1.00
C1283  C     0.79239   0.49731   0.95912   0.00000  Uiso   1.00
C1284  C     0.87403   0.50562   0.54092   0.00000  Uiso   1.00
C1285  C     0.83153   0.50180   0.97679   0.00000  Uiso   1.00
C1286  C     0.83485   0.50195   0.52325   0.00000  Uiso   1.00
C1287  C     0.86740   0.50572   0.94816   0.00000  Uiso   1.00
C1288  C     0.79897   0.49803   0.55188   0.00000  Uiso   1.00
C1289  C     0.75705   0.49474   0.98904   0.00000  Uiso   1.00
C1290  C     0.90928   0.50988   0.51101   0.00000  Uiso   1.00
Cu1291 Cu    0.83333   0.54689   0.75000   0.00000  Uiso   1.00
Cu1292 Cu    0.83333   0.45311   0.75000   0.00000  Uiso   1.00
H1293  H     0.89188   0.50840   0.88046   0.00000  Uiso   1.00
H1294  H     0.77472   0.49206   0.61944   0.00000  Uiso   1.00
H1295  H     0.72617   0.49156   0.97819   0.00000  Uiso   1.00
H1296  H     0.94012   0.51221   0.52200   0.00000  Uiso   1.00
H1297  H     0.70419   0.42426   0.74506   0.00000  Uiso   1.00
H1298  H     0.96250   0.57583   0.75471   0.00000  Uiso   1.00
H1299  H     0.96273   0.42415   0.74896   0.00000  Uiso   1.00
H1300  H     0.70397   0.57594   0.75076   0.00000  Uiso   1.00
H1301  H     0.78697   0.37698   0.70409   0.00000  Uiso   1.00
H1302  H     0.87969   0.62301   0.79591   0.00000  Uiso   1.00
H1303  H     0.87968   0.37674   0.79592   0.00000  Uiso   1.00
H1304  H     0.78698   0.62326   0.70408   0.00000  Uiso   1.00
N1305  N     0.83333   0.61736   0.75000   0.00000  Uiso   1.00
N1306  N     0.83333   0.38264   0.75000   0.00000  Uiso   1.00
O1307  O     0.77321   0.53958   0.75000   0.00000  Uiso   1.00
O1308  O     0.89345   0.46042   0.75000   0.00000  Uiso   1.00
O1309  O     0.89345   0.53958   0.75000   0.00000  Uiso   1.00
O1310  O     0.77321   0.46042   0.75000   0.00000  Uiso   1.00
O1311  O     0.83332   0.53960   0.68513   0.00000  Uiso   1.00
O1312  O     0.83334   0.46040   0.81487   0.00000  Uiso   1.00
O1313  O     0.83334   0.53960   0.81487   0.00000  Uiso   1.00
O1314  O     0.83332   0.46040   0.68513   0.00000  Uiso   1.00
C1315  C     0.74571   0.48957   0.89648   0.00000  Uiso   1.00
C1316  C     0.73980   0.48765   0.84766   0.00000  Uiso   1.00
H1317  H     0.75005   0.52132   0.83228   0.00000  Uiso   1.00
H1318  H     0.75594   0.45671   0.83287   0.00000  Uiso   1.00
H1319  H     0.70645   0.48336   0.84265   0.00000  Uiso   1.00
H1320  H     0.73245   0.45648   0.91083   0.00000  Uiso   1.00
H1321  H     0.72659   0.51941   0.90946   0.00000  Uiso   1.00
C1322  C     0.92094   0.50908   0.60363   0.00000  Uiso   1.00
C1323  C     0.92720   0.50792   0.65238   0.00000  Uiso   1.00
H1324  H     0.91241   0.53901   0.66842   0.00000  Uiso   1.00
H1325  H     0.91567   0.47420   0.66664   0.00000  Uiso   1.00
H1326  H     0.96076   0.50999   0.65716   0.00000  Uiso   1.00
H1327  H     0.93977   0.47974   0.58901   0.00000  Uiso   1.00
H1328  H     0.93418   0.54284   0.59103   0.00000  Uiso   1.00
O1329  O     0.72453   0.49329   0.56250   0.00000  Uiso   1.00
C1330  C     0.70404   0.53719   0.56462   0.00000  Uiso   1.00
H1331  H     0.67062   0.53031   0.56288   0.00000  Uiso   1.00
H1332  H     0.71296   0.56151   0.53657   0.00000  Uiso   1.00
C1333  C     0.71105   0.56126   0.60870   0.00000  Uiso   1.00
H1334  H     0.70295   0.53672   0.63654   0.00000  Uiso   1.00
H1335  H     0.74413   0.57088   0.60959   0.00000  Uiso   1.00
C1336  C     0.68518   0.60566   0.61496   0.00000  Uiso   1.00
H1337  H     0.69289   0.63086   0.58761   0.00000  Uiso   1.00
H1338  H     0.69171   0.62246   0.64681   0.00000  Uiso   1.00
H1339  H     0.98514   0.59711   0.61586   0.00000  Uiso   1.00
O1340  O     0.94132   0.51276   0.93671   0.00000  Uiso   1.00
C1341  C     0.96312   0.55510   0.94217   0.00000  Uiso   1.00
H1342  H     0.98970   0.54782   0.96250   0.00000  Uiso   1.00
H1343  H     0.94395   0.58344   0.95861   0.00000  Uiso   1.00
C1344  C     0.97899   0.57306   0.89653   0.00000  Uiso   1.00
H1345  H     0.99608   0.54473   0.87817   0.00000  Uiso   1.00
H1346  H     0.95233   0.58314   0.87734   0.00000  Uiso   1.00
C1347  C     0.67404   0.61533   0.90009   0.00000  Uiso   1.00
H1348  H     0.99054   0.64457   0.91739   0.00000  Uiso   1.00
H1349  H     0.68497   0.62730   0.86639   0.00000  Uiso   1.00
H1350  H     0.70130   0.60578   0.91854   0.00000  Uiso   1.00
C1351  C     0.08754   0.83336   0.74751   0.00000  Uiso   1.00
C1352  C     0.24580   0.83332   0.75242   0.00000  Uiso   1.00
C1353  C     0.09337   0.82967   0.53465   0.00000  Uiso   1.00
C1354  C     0.23947   0.84412   0.96528   0.00000  Uiso   1.00
C1355  C     0.02141   0.79085   0.74703   0.00000  Uiso   1.00
C1356  C     0.31195   0.87591   0.75274   0.00000  Uiso   1.00
C1357  C     0.31207   0.79078   0.74956   0.00000  Uiso   1.00
C1358  C     0.02130   0.87598   0.75021   0.00000  Uiso   1.00
C1359  C     0.29049   0.83331   0.75232   0.00000  Uiso   1.00
C1360  C     0.04287   0.83343   0.74752   0.00000  Uiso   1.00
C1361  C     0.14091   0.69155   0.72452   0.00000  Uiso   1.00
C1362  C     0.19242   0.97511   0.77548   0.00000  Uiso   1.00
C1363  C     0.19241   0.69141   0.77549   0.00000  Uiso   1.00
C1364  C     0.14092   0.97525   0.72451   0.00000  Uiso   1.00
C1365  C     0.17105   0.83341   0.66436   0.00000  Uiso   1.00
C1366  C     0.16223   0.83325   0.83564   0.00000  Uiso   1.00
C1367  C     0.19763   0.83835   0.90255   0.00000  Uiso   1.00
C1368  C     0.13556   0.82959   0.59742   0.00000  Uiso   1.00
C1369  C     0.15977   0.83317   0.88421   0.00000  Uiso   1.00
C1370  C     0.17350   0.83359   0.61580   0.00000  Uiso   1.00
C1371  C     0.12258   0.82896   0.91231   0.00000  Uiso   1.00
C1372  C     0.21064   0.83828   0.58774   0.00000  Uiso   1.00
C1373  C     0.12572   0.83064   0.95912   0.00000  Uiso   1.00
C1374  C     0.20737   0.83896   0.54092   0.00000  Uiso   1.00
C1375  C     0.16486   0.83513   0.97679   0.00000  Uiso   1.00
C1376  C     0.16818   0.83529   0.52325   0.00000  Uiso   1.00
C1377  C     0.20073   0.83905   0.94816   0.00000  Uiso   1.00
C1378  C     0.13230   0.83137   0.55188   0.00000  Uiso   1.00
C1379  C     0.09038   0.82807   0.98904   0.00000  Uiso   1.00
C1380  C     0.24261   0.84322   0.51101   0.00000  Uiso   1.00
Cu1381 Cu    0.16667   0.88022   0.75000   0.00000  Uiso   1.00
Cu1382 Cu    0.16667   0.78645   0.75000   0.00000  Uiso   1.00
H1383  H     0.22521   0.84173   0.88046   0.00000  Uiso   1.00
H1384  H     0.10805   0.82539   0.61944   0.00000  Uiso   1.00
H1385  H     0.05951   0.82490   0.97819   0.00000  Uiso   1.00
H1386  H     0.27345   0.84554   0.52200   0.00000  Uiso   1.00
H1387  H     0.03752   0.75759   0.74506   0.00000  Uiso   1.00
H1388  H     0.29583   0.90917   0.75471   0.00000  Uiso   1.00
H1389  H     0.29606   0.75749   0.74896   0.00000  Uiso   1.00
H1390  H     0.03731   0.90927   0.75076   0.00000  Uiso   1.00
H1391  H     0.12030   0.71031   0.70409   0.00000  Uiso   1.00
H1392  H     0.21303   0.95635   0.79591   0.00000  Uiso   1.00
H1393  H     0.21302   0.71007   0.79592   0.00000  Uiso   1.00
H1394  H     0.12031   0.95659   0.70408   0.00000  Uiso   1.00
N1395  N     0.16667   0.95069   0.75000   0.00000  Uiso   1.00
N1396  N     0.16667   0.71598   0.75000   0.00000  Uiso   1.00
O1397  O     0.10655   0.87291   0.75000   0.00000  Uiso   1.00
O1398  O     0.22679   0.79375   0.75000   0.00000  Uiso   1.00
O1399  O     0.22679   0.87291   0.75000   0.00000  Uiso   1.00
O1400  O     0.10655   0.79375   0.75000   0.00000  Uiso   1.00
O1401  O     0.16666   0.87293   0.68513   0.00000  Uiso   1.00
O1402  O     0.16668   0.79373   0.81487   0.00000  Uiso   1.00
O1403  O     0.16668   0.87293   0.81487   0.00000  Uiso   1.00
O1404  O     0.16666   0.79373   0.68513   0.00000  Uiso   1.00
C1405  C     0.07904   0.82291   0.89648   0.00000  Uiso   1.00
C1406  C     0.07314   0.82099   0.84766   0.00000  Uiso   1.00
H1407  H     0.08338   0.85465   0.83228   0.00000  Uiso   1.00
H1408  H     0.08927   0.79004   0.83287   0.00000  Uiso   1.00
H1409  H     0.03979   0.81669   0.84265   0.00000  Uiso   1.00
H1410  H     0.06579   0.78982   0.91083   0.00000  Uiso   1.00
H1411  H     0.05992   0.85274   0.90946   0.00000  Uiso   1.00
C1412  C     0.25427   0.84241   0.60363   0.00000  Uiso   1.00
C1413  C     0.26053   0.84125   0.65238   0.00000  Uiso   1.00
H1414  H     0.24574   0.87234   0.66842   0.00000  Uiso   1.00
H1415  H     0.24900   0.80753   0.66664   0.00000  Uiso   1.00
H1416  H     0.29409   0.84333   0.65716   0.00000  Uiso   1.00
H1417  H     0.27311   0.81307   0.58901   0.00000  Uiso   1.00
H1418  H     0.26751   0.87617   0.59103   0.00000  Uiso   1.00
O1419  O     0.05786   0.82662   0.56250   0.00000  Uiso   1.00
C1420  C     0.03737   0.87053   0.56462   0.00000  Uiso   1.00
H1421  H     0.00395   0.86364   0.56288   0.00000  Uiso   1.00
H1422  H     0.04629   0.89484   0.53657   0.00000  Uiso   1.00
C1423  C     0.04439   0.89459   0.60870   0.00000  Uiso   1.00
H1424  H     0.03628   0.87006   0.63654   0.00000  Uiso   1.00
H1425  H     0.07746   0.90422   0.60959   0.00000  Uiso   1.00
C1426  C     0.01851   0.93900   0.61496   0.00000  Uiso   1.00
H1427  H     0.02622   0.96419   0.58761   0.00000  Uiso   1.00
H1428  H     0.02504   0.95579   0.64681   0.00000  Uiso   1.00
H1429  H     0.31847   0.93045   0.61586   0.00000  Uiso   1.00
O1430  O     0.27465   0.84609   0.93671   0.00000  Uiso   1.00
C1431  C     0.29645   0.88843   0.94217   0.00000  Uiso   1.00
H1432  H     0.32303   0.88115   0.96250   0.00000  Uiso   1.00
H1433  H     0.27728   0.91677   0.95861   0.00000  Uiso   1.00
C1434  C     0.31233   0.90639   0.89653   0.00000  Uiso   1.00
H1435  H     0.32942   0.87807   0.87817   0.00000  Uiso   1.00
H1436  H     0.28566   0.91648   0.87734   0.00000  Uiso   1.00
C1437  C     0.00737   0.94866   0.90009   0.00000  Uiso   1.00
H1438  H     0.32387   0.97791   0.91739   0.00000  Uiso   1.00
H1439  H     0.01831   0.96064   0.86639   0.00000  Uiso   1.00
H1440  H     0.03463   0.93911   0.91854   0.00000  Uiso   1.00
C1441  C     0.42088   0.83336   0.74751   0.00000  Uiso   1.00
C1442  C     0.57913   0.83332   0.75242   0.00000  Uiso   1.00
C1443  C     0.42671   0.82967   0.53465   0.00000  Uiso   1.00
C1444  C     0.57281   0.84412   0.96528   0.00000  Uiso   1.00
C1445  C     0.35475   0.79085   0.74703   0.00000  Uiso   1.00
C1446  C     0.64528   0.87591   0.75274   0.00000  Uiso   1.00
C1447  C     0.64540   0.79078   0.74956   0.00000  Uiso   1.00
C1448  C     0.35463   0.87598   0.75021   0.00000  Uiso   1.00
C1449  C     0.62382   0.83331   0.75232   0.00000  Uiso   1.00
C1450  C     0.37620   0.83343   0.74752   0.00000  Uiso   1.00
C1451  C     0.47425   0.69155   0.72452   0.00000  Uiso   1.00
C1452  C     0.52575   0.97511   0.77548   0.00000  Uiso   1.00
C1453  C     0.52575   0.69141   0.77549   0.00000  Uiso   1.00
C1454  C     0.47425   0.97525   0.72451   0.00000  Uiso   1.00
C1455  C     0.50439   0.83341   0.66436   0.00000  Uiso   1.00
C1456  C     0.49556   0.83325   0.83564   0.00000  Uiso   1.00
C1457  C     0.53097   0.83835   0.90255   0.00000  Uiso   1.00
C1458  C     0.46890   0.82959   0.59742   0.00000  Uiso   1.00
C1459  C     0.49310   0.83317   0.88421   0.00000  Uiso   1.00
C1460  C     0.50683   0.83359   0.61580   0.00000  Uiso   1.00
C1461  C     0.45591   0.82896   0.91231   0.00000  Uiso   1.00
C1462  C     0.54397   0.83828   0.58774   0.00000  Uiso   1.00
C1463  C     0.45905   0.83064   0.95912   0.00000  Uiso   1.00
C1464  C     0.54070   0.83896   0.54092   0.00000  Uiso   1.00
C1465  C     0.49819   0.83513   0.97679   0.00000  Uiso   1.00
C1466  C     0.50152   0.83529   0.52325   0.00000  Uiso   1.00
C1467  C     0.53407   0.83905   0.94816   0.00000  Uiso   1.00
C1468  C     0.46563   0.83137   0.55188   0.00000  Uiso   1.00
C1469  C     0.42371   0.82807   0.98904   0.00000  Uiso   1.00
C1470  C     0.57594   0.84322   0.51101   0.00000  Uiso   1.00
Cu1471 Cu    0.50000   0.88022   0.75000   0.00000  Uiso   1.00
Cu1472 Cu    0.50000   0.78645   0.75000   0.00000  Uiso   1.00
H1473  H     0.55855   0.84173   0.88046   0.00000  Uiso   1.00
H1474  H     0.44139   0.82539   0.61944   0.00000  Uiso   1.00
H1475  H     0.39284   0.82490   0.97819   0.00000  Uiso   1.00
H1476  H     0.60678   0.84554   0.52200   0.00000  Uiso   1.00
H1477  H     0.37086   0.75759   0.74506   0.00000  Uiso   1.00
H1478  H     0.62917   0.90917   0.75471   0.00000  Uiso   1.00
H1479  H     0.62940   0.75749   0.74896   0.00000  Uiso   1.00
H1480  H     0.37064   0.90927   0.75076   0.00000  Uiso   1.00
H1481  H     0.45363   0.71031   0.70409   0.00000  Uiso   1.00
H1482  H     0.54636   0.95635   0.79591   0.00000  Uiso   1.00
H1483  H     0.54635   0.71007   0.79592   0.00000  Uiso   1.00
H1484  H     0.45364   0.95659   0.70408   0.00000  Uiso   1.00
N1485  N     0.50000   0.95069   0.75000   0.00000  Uiso   1.00
N1486  N     0.50000   0.71598   0.75000   0.00000  Uiso   1.00
O1487  O     0.43988   0.87291   0.75000   0.00000  Uiso   1.00
O1488  O     0.56012   0.79375   0.75000   0.00000  Uiso   1.00
O1489  O     0.56012   0.87291   0.75000   0.00000  Uiso   1.00
O1490  O     0.43988   0.79375   0.75000   0.00000  Uiso   1.00
O1491  O     0.49999   0.87293   0.68513   0.00000  Uiso   1.00
O1492  O     0.50001   0.79373   0.81487   0.00000  Uiso   1.00
O1493  O     0.50001   0.87293   0.81487   0.00000  Uiso   1.00
O1494  O     0.49999   0.79373   0.68513   0.00000  Uiso   1.00
C1495  C     0.41237   0.82291   0.89648   0.00000  Uiso   1.00
C1496  C     0.40647   0.82099   0.84766   0.00000  Uiso   1.00
H1497  H     0.41672   0.85465   0.83228   0.00000  Uiso   1.00
H1498  H     0.42260   0.79004   0.83287   0.00000  Uiso   1.00
H1499  H     0.37312   0.81669   0.84265   0.00000  Uiso   1.00
H1500  H     0.39912   0.78982   0.91083   0.00000  Uiso   1.00
H1501  H     0.39326   0.85274   0.90946   0.00000  Uiso   1.00
C1502  C     0.58760   0.84241   0.60363   0.00000  Uiso   1.00
C1503  C     0.59386   0.84125   0.65238   0.00000  Uiso   1.00
H1504  H     0.57907   0.87234   0.66842   0.00000  Uiso   1.00
H1505  H     0.58234   0.80753   0.66664   0.00000  Uiso   1.00
H1506  H     0.62742   0.84333   0.65716   0.00000  Uiso   1.00
H1507  H     0.60644   0.81307   0.58901   0.00000  Uiso   1.00
H1508  H     0.60085   0.87617   0.59103   0.00000  Uiso   1.00
O1509  O     0.39119   0.82662   0.56250   0.00000  Uiso   1.00
C1510  C     0.37070   0.87053   0.56462   0.00000  Uiso   1.00
H1511  H     0.33729   0.86364   0.56288   0.00000  Uiso   1.00
H1512  H     0.37963   0.89484   0.53657   0.00000  Uiso   1.00
C1513  C     0.37772   0.89459   0.60870   0.00000  Uiso   1.00
H1514  H     0.36962   0.87006   0.63654   0.00000  Uiso   1.00
H1515  H     0.41079   0.90422   0.60959   0.00000  Uiso   1.00
C1516  C     0.35184   0.93900   0.61496   0.00000  Uiso   1.00
H1517  H     0.35956   0.96419   0.58761   0.00000  Uiso   1.00
H1518  H     0.35838   0.95579   0.64681   0.00000  Uiso   1.00
H1519  H     0.65180   0.93045   0.61586   0.00000  Uiso   1.00
O1520  O     0.60798   0.84609   0.93671   0.00000  Uiso   1.00
C1521  C     0.62979   0.88843   0.94217   0.00000  Uiso   1.00
H1522  H     0.65637   0.88115   0.96250   0.00000  Uiso   1.00
H1523  H     0.61061   0.91677   0.95861   0.00000  Uiso   1.00
C1524  C     0.64566   0.90639   0.89653   0.00000  Uiso   1.00
H1525  H     0.66275   0.87807   0.87817   0.00000  Uiso   1.00
H1526  H     0.61899   0.91648   0.87734   0.00000  Uiso   1.00
C1527  C     0.34071   0.94866   0.90009   0.00000  Uiso   1.00
H1528  H     0.65720   0.97791   0.91739   0.00000  Uiso   1.00
H1529  H     0.35164   0.96064   0.86639   0.00000  Uiso   1.00
H1530  H     0.36796   0.93911   0.91854   0.00000  Uiso   1.00
C1531  C     0.75421   0.83336   0.74751   0.00000  Uiso   1.00
C1532  C     0.91247   0.83332   0.75242   0.00000  Uiso   1.00
C1533  C     0.76004   0.82967   0.53465   0.00000  Uiso   1.00
C1534  C     0.90614   0.84412   0.96528   0.00000  Uiso   1.00
C1535  C     0.68808   0.79085   0.74703   0.00000  Uiso   1.00
C1536  C     0.97861   0.87591   0.75274   0.00000  Uiso   1.00
C1537  C     0.97873   0.79078   0.74956   0.00000  Uiso   1.00
C1538  C     0.68796   0.87598   0.75021   0.00000  Uiso   1.00
C1539  C     0.95716   0.83331   0.75232   0.00000  Uiso   1.00
C1540  C     0.70953   0.83343   0.74752   0.00000  Uiso   1.00
C1541  C     0.80758   0.69155   0.72452   0.00000  Uiso   1.00
C1542  C     0.85908   0.97511   0.77548   0.00000  Uiso   1.00
C1543  C     0.85908   0.69141   0.77549   0.00000  Uiso   1.00
C1544  C     0.80758   0.97525   0.72451   0.00000  Uiso   1.00
C1545  C     0.83772   0.83341   0.66436   0.00000  Uiso   1.00
C1546  C     0.82889   0.83325   0.83564   0.00000  Uiso   1.00
C1547  C     0.86430   0.83835   0.90255   0.00000  Uiso   1.00
C1548  C     0.80223   0.82959   0.59742   0.00000  Uiso   1.00
C1549  C     0.82643   0.83317   0.88421   0.00000  Uiso   1.00
C1550  C     0.84016   0.83359   0.61580   0.00000  Uiso   1.00
C1551  C     0.78925   0.82896   0.91231   0.00000  Uiso   1.00
C1552  C     0.87730   0.83828   0.58774   0.00000  Uiso   1.00
C1553  C     0.79239   0.83064   0.95912   0.00000  Uiso   1.00
C1554  C     0.87403   0.83896   0.54092   0.00000  Uiso   1.00
C1555  C     0.83153   0.83513   0.97679   0.00000  Uiso   1.00
C1556  C     0.83485   0.83529   0.52325   0.00000  Uiso   1.00
C1557  C     0.86740   0.83905   0.94816   0.00000  Uiso   1.00
C1558  C     0.79897   0.83137   0.55188   0.00000  Uiso   1.00
C1559  C     0.75705   0.82807   0.98904   0.00000  Uiso   1.00
C1560  C     0.90928   0.84322   0.51101   0.00000  Uiso   1.00
Cu1561 Cu    0.83333   0.88022   0.75000   0.00000  Uiso   1.00
Cu1562 Cu    0.83333   0.78645   0.75000   0.00000  Uiso   1.00
H1563  H     0.89188   0.84173   0.88046   0.00000  Uiso   1.00
H1564  H     0.77472   0.82539   0.61944   0.00000  Uiso   1.00
H1565  H     0.72617   0.82490   0.97819   0.00000  Uiso   1.00
H1566  H     0.94012   0.84554   0.52200   0.00000  Uiso   1.00
H1567  H     0.70419   0.75759   0.74506   0.00000  Uiso   1.00
H1568  H     0.96250   0.90917   0.75471   0.00000  Uiso   1.00
H1569  H     0.96273   0.75749   0.74896   0.00000  Uiso   1.00
H1570  H     0.70397   0.90927   0.75076   0.00000  Uiso   1.00
H1571  H     0.78697   0.71031   0.70409   0.00000  Uiso   1.00
H1572  H     0.87969   0.95635   0.79591   0.00000  Uiso   1.00
H1573  H     0.87968   0.71007   0.79592   0.00000  Uiso   1.00
H1574  H     0.78698   0.95659   0.70408   0.00000  Uiso   1.00
N1575  N     0.83333   0.95069   0.75000   0.00000  Uiso   1.00
N1576  N     0.83333   0.71598   0.75000   0.00000  Uiso   1.00
O1577  O     0.77321   0.87291   0.75000   0.00000  Uiso   1.00
O1578  O     0.89345   0.79375   0.75000   0.00000  Uiso   1.00
O1579  O     0.89345   0.87291   0.75000   0.00000  Uiso   1.00
O1580  O     0.77321   0.79375   0.75000   0.00000  Uiso   1.00
O1581  O     0.83332   0.87293   0.68513   0.00000  Uiso   1.00
O1582  O     0.83334   0.79373   0.81487   0.00000  Uiso   1.00
O1583  O     0.83334   0.87293   0.81487   0.00000  Uiso   1.00
O1584  O     0.83332   0.79373   0.68513   0.00000  Uiso   1.00
C1585  C     0.74571   0.82291   0.89648   0.00000  Uiso   1.00
C1586  C     0.73980   0.82099   0.84766   0.00000  Uiso   1.00
H1587  H     0.75005   0.85465   0.83228   0.00000  Uiso   1.00
H1588  H     0.75594   0.79004   0.83287   0.00000  Uiso   1.00
H1589  H     0.70645   0.81669   0.84265   0.00000  Uiso   1.00
H1590  H     0.73245   0.78982   0.91083   0.00000  Uiso   1.00
H1591  H     0.72659   0.85274   0.90946   0.00000  Uiso   1.00
C1592  C     0.92094   0.84241   0.60363   0.00000  Uiso   1.00
C1593  C     0.92720   0.84125   0.65238   0.00000  Uiso   1.00
H1594  H     0.91241   0.87234   0.66842   0.00000  Uiso   1.00
H1595  H     0.91567   0.80753   0.66664   0.00000  Uiso   1.00
H1596  H     0.96076   0.84333   0.65716   0.00000  Uiso   1.00
H1597  H     0.93977   0.81307   0.58901   0.00000  Uiso   1.00
H1598  H     0.93418   0.87617   0.59103   0.00000  Uiso   1.00
O1599  O     0.72453   0.82662   0.56250   0.00000  Uiso   1.00
C1600  C     0.70404   0.87053   0.56462   0.00000  Uiso   1.00
H1601  H     0.67062   0.86364   0.56288   0.00000  Uiso   1.00
H1602  H     0.71296   0.89484   0.53657   0.00000  Uiso   1.00
C1603  C     0.71105   0.89459   0.60870   0.00000  Uiso   1.00
H1604  H     0.70295   0.87006   0.63654   0.00000  Uiso   1.00
H1605  H     0.74413   0.90422   0.60959   0.00000  Uiso   1.00
C1606  C     0.68518   0.93900   0.61496   0.00000  Uiso   1.00
H1607  H     0.69289   0.96419   0.58761   0.00000  Uiso   1.00
H1608  H     0.69171   0.95579   0.64681   0.00000  Uiso   1.00
H1609  H     0.98514   0.93045   0.61586   0.00000  Uiso   1.00
O1610  O     0.94132   0.84609   0.93671   0.00000  Uiso   1.00
C1611  C     0.96312   0.88843   0.94217   0.00000  Uiso   1.00
H1612  H     0.98970   0.88115   0.96250   0.00000  Uiso   1.00
H1613  H     0.94395   0.91677   0.95861   0.00000  Uiso   1.00
C1614  C     0.97899   0.90639   0.89653   0.00000  Uiso   1.00
H1615  H     0.99608   0.87807   0.87817   0.00000  Uiso   1.00
H1616  H     0.95233   0.91648   0.87734   0.00000  Uiso   1.00
C1617  C     0.67404   0.94866   0.90009   0.00000  Uiso   1.00
H1618  H     0.99054   0.97791   0.91739   0.00000  Uiso   1.00
H1619  H     0.68497   0.96064   0.86639   0.00000  Uiso   1.00
H1620  H     0.70130   0.93911   0.91854   0.00000  Uiso   1.00
loop_
_geom_bond_atom_site_label_1
_geom_bond_atom_site_label_2
_geom_bond_distance
_geom_bond_site_symmetry_2
_ccdc_geom_bond_type
C1     O50     1.292   .     A
C1     O47     1.291   .     A
C1     C10     1.451   .     S
C2     O48     1.291   .     A
C2     O49     1.291   .     A
C2     C9      1.451   .     S
C3     C28     1.400   .     A
C3     O69     1.385   .     S
C3     C839    1.391   1_554 S
C4     C27     1.400   .     A
C4     O80     1.388   .     S
C4     C840    1.395   .     S
C5     H37     1.083   .     S
C5     C10     1.401   .     A
C5     C187    1.383   1_455 S
C6     C9      1.401   .     A
C6     H38     1.083   .     S
C6     C98     1.383   .     S
C7     C9      1.401   .     A
C7     H39     1.083   .     S
C7     C95     1.383   .     S
C8     C10     1.401   .     A
C8     H40     1.083   .     S
C8     C186    1.383   1_455 S
C11    H41     1.082   .     S
C11    N46     1.367   .     A
C11    C554    1.416   1_545 S
C12    H42     1.082   .     S
C12    N45     1.367   .     A
C12    C283    1.416   .     S
C13    N46     1.367   .     A
C13    H43     1.082   .     S
C13    C552    1.416   1_545 S
C14    N45     1.367   .     A
C14    H44     1.082   .     S
C14    C281    1.416   .     S
C15    O51     1.296   .     A
C15    C20     1.467   .     S
C15    O54     1.296   .     A
C16    O53     1.296   .     A
C16    O52     1.296   .     A
C16    C19     1.467   .     S
C17    H33     1.086   .     S
C17    C27     1.391   .     A
C17    C19     1.390   .     A
C18    C28     1.390   .     A
C18    H34     1.085   .     S
C18    C20     1.390   .     A
C19    C21     1.435   .     A
C20    C22     1.435   .     A
C21    C55     1.533   .     S
C21    C23     1.428   .     A
C22    C62     1.531   .     S
C22    C24     1.428   .     A
C23    C29     1.416   .     A
C23    C25     1.417   .     A
C24    C26     1.417   .     A
C24    C30     1.417   .     A
C25    C27     1.409   .     A
C25    C836    1.418   .     S
C26    C28     1.410   .     A
C26    C835    1.418   1_554 S
C29    H35     1.080   .     S
C29    C813    1.391   .     S
C30    H36     1.078   .     S
C30    C814    1.395   1_554 S
Cu31   O47     1.964   .     S
Cu31   O49     1.964   .     S
Cu31   O51     1.975   .     S
Cu31   Cu32    2.675   .     S
Cu31   O53     1.974   .     S
Cu31   N45     2.010   .     S
Cu32   O52     1.975   .     S
Cu32   O48     1.964   .     S
Cu32   O54     1.974   .     S
Cu32   O50     1.964   .     S
Cu32   N46     2.010   .     S
C55    C56     1.504   .     S
C55    H60     1.112   .     S
C55    H61     1.111   .     S
C56    H57     1.107   .     S
C56    H59     1.110   .     S
C56    H58     1.107   .     S
C62    H67     1.112   .     S
C62    C63     1.503   .     S
C62    H68     1.111   .     S
C63    H65     1.108   .     S
C63    H66     1.111   .     S
C63    H64     1.107   .     S
O69    C70     1.418   .     S
C70    H71     1.108   .     S
C70    C73     1.532   .     S
C70    H72     1.118   .     S
C73    H75     1.111   .     S
C73    H74     1.112   .     S
C73    C76     1.525   .     S
C76    H77     1.111   .     S
C76    H78     1.111   .     S
C76    H259    1.110   1_455 S
H79    C166    1.110   .     S
O80    C81     1.415   .     S
C81    H82     1.112   .     S
C81    H83     1.118   .     S
C81    C84     1.529   .     S
C84    H85     1.110   .     S
C84    H86     1.112   .     S
C84    C177    1.526   .     S
C87    H89     1.111   .     S
C87    H90     1.111   .     S
C87    C264    1.526   1_455 S
C87    H268    1.111   1_455 S
H88    C177    1.111   .     S
C91    O140    1.292   .     A
C91    O137    1.291   .     A
C91    C100    1.451   .     S
C92    O138    1.291   .     A
C92    O139    1.291   .     A
C92    C99     1.451   .     S
C93    C118    1.400   .     A
C93    O159    1.385   .     S
C93    C929    1.391   1_554 S
C94    C117    1.400   .     A
C94    O170    1.388   .     S
C94    C930    1.395   .     S
C95    H127    1.083   .     S
C95    C100    1.401   .     A
C96    C99     1.401   .     A
C96    H128    1.083   .     S
C96    C188    1.383   .     S
C97    C99     1.401   .     A
C97    H129    1.083   .     S
C97    C185    1.383   .     S
C98    C100    1.401   .     A
C98    H130    1.083   .     S
C101   H131    1.082   .     S
C101   N136    1.367   .     A
C101   C644    1.416   1_545 S
C102   H132    1.082   .     S
C102   N135    1.367   .     A
C102   C373    1.416   .     S
C103   N136    1.367   .     A
C103   H133    1.082   .     S
C103   C642    1.416   1_545 S
C104   N135    1.367   .     A
C104   H134    1.082   .     S
C104   C371    1.416   .     S
C105   O141    1.296   .     A
C105   C110    1.467   .     S
C105   O144    1.296   .     A
C106   O143    1.296   .     A
C106   O142    1.296   .     A
C106   C109    1.467   .     S
C107   H123    1.086   .     S
C107   C117    1.391   .     A
C107   C109    1.390   .     A
C108   C118    1.390   .     A
C108   H124    1.085   .     S
C108   C110    1.390   .     A
C109   C111    1.435   .     A
C110   C112    1.435   .     A
C111   C145    1.533   .     S
C111   C113    1.428   .     A
C112   C152    1.531   .     S
C112   C114    1.428   .     A
C113   C119    1.416   .     A
C113   C115    1.417   .     A
C114   C116    1.417   .     A
C114   C120    1.417   .     A
C115   C117    1.409   .     A
C115   C926    1.418   .     S
C116   C118    1.410   .     A
C116   C925    1.418   1_554 S
C119   H125    1.080   .     S
C119   C903    1.391   .     S
C120   H126    1.078   .     S
C120   C904    1.395   1_554 S
Cu121  O137    1.964   .     S
Cu121  O139    1.964   .     S
Cu121  O141    1.975   .     S
Cu121  Cu122   2.675   .     S
Cu121  O143    1.974   .     S
Cu121  N135    2.010   .     S
Cu122  O142    1.975   .     S
Cu122  O138    1.964   .     S
Cu122  O144    1.974   .     S
Cu122  O140    1.964   .     S
Cu122  N136    2.010   .     S
C145   C146    1.504   .     S
C145   H150    1.112   .     S
C145   H151    1.111   .     S
C146   H147    1.107   .     S
C146   H149    1.110   .     S
C146   H148    1.107   .     S
C152   H157    1.112   .     S
C152   C153    1.503   .     S
C152   H158    1.111   .     S
C153   H155    1.108   .     S
C153   H156    1.111   .     S
C153   H154    1.107   .     S
O159   C160    1.418   .     S
C160   H161    1.108   .     S
C160   C163    1.532   .     S
C160   H162    1.118   .     S
C163   H165    1.111   .     S
C163   H164    1.112   .     S
C163   C166    1.525   .     S
C166   H167    1.111   .     S
C166   H168    1.111   .     S
H169   C256    1.110   .     S
O170   C171    1.415   .     S
C171   H172    1.112   .     S
C171   H173    1.118   .     S
C171   C174    1.529   .     S
C174   H175    1.110   .     S
C174   H176    1.112   .     S
C174   C267    1.526   .     S
C177   H179    1.111   .     S
C177   H180    1.111   .     S
H178   C267    1.111   .     S
C181   O230    1.292   .     A
C181   O227    1.291   .     A
C181   C190    1.451   .     S
C182   O228    1.291   .     A
C182   O229    1.291   .     A
C182   C189    1.451   .     S
C183   C208    1.400   .     A
C183   O249    1.385   .     S
C183   C1019   1.391   1_554 S
C184   C207    1.400   .     A
C184   O260    1.388   .     S
C184   C1020   1.395   .     S
C185   H217    1.083   .     S
C185   C190    1.401   .     A
C186   C189    1.401   .     A
C186   H218    1.083   .     S
C186   C8      1.383   1_655 S
C187   C189    1.401   .     A
C187   H219    1.083   .     S
C187   C5      1.383   1_655 S
C188   C190    1.401   .     A
C188   H220    1.083   .     S
C191   H221    1.082   .     S
C191   N226    1.367   .     A
C191   C734    1.416   1_545 S
C192   H222    1.082   .     S
C192   N225    1.367   .     A
C192   C463    1.416   .     S
C193   N226    1.367   .     A
C193   H223    1.082   .     S
C193   C732    1.416   1_545 S
C194   N225    1.367   .     A
C194   H224    1.082   .     S
C194   C461    1.416   .     S
C195   O231    1.296   .     A
C195   C200    1.467   .     S
C195   O234    1.296   .     A
C196   O233    1.296   .     A
C196   O232    1.296   .     A
C196   C199    1.467   .     S
C197   H213    1.086   .     S
C197   C207    1.391   .     A
C197   C199    1.390   .     A
C198   C208    1.390   .     A
C198   H214    1.085   .     S
C198   C200    1.390   .     A
C199   C201    1.435   .     A
C200   C202    1.435   .     A
C201   C235    1.533   .     S
C201   C203    1.428   .     A
C202   C242    1.531   .     S
C202   C204    1.428   .     A
C203   C209    1.416   .     A
C203   C205    1.417   .     A
C204   C206    1.417   .     A
C204   C210    1.417   .     A
C205   C207    1.409   .     A
C205   C1016   1.418   .     S
C206   C208    1.410   .     A
C206   C1015   1.418   1_554 S
C209   H215    1.080   .     S
C209   C993    1.391   .     S
C210   H216    1.078   .     S
C210   C994    1.395   1_554 S
Cu211  O227    1.964   .     S
Cu211  O229    1.964   .     S
Cu211  O231    1.975   .     S
Cu211  Cu212   2.675   .     S
Cu211  O233    1.974   .     S
Cu211  N225    2.010   .     S
Cu212  O232    1.975   .     S
Cu212  O228    1.964   .     S
Cu212  O234    1.974   .     S
Cu212  O230    1.964   .     S
Cu212  N226    2.010   .     S
C235   C236    1.504   .     S
C235   H240    1.112   .     S
C235   H241    1.111   .     S
C236   H237    1.107   .     S
C236   H239    1.110   .     S
C236   H238    1.107   .     S
C242   H247    1.112   .     S
C242   C243    1.503   .     S
C242   H248    1.111   .     S
C243   H245    1.108   .     S
C243   H246    1.111   .     S
C243   H244    1.107   .     S
O249   C250    1.418   .     S
C250   H251    1.108   .     S
C250   C253    1.532   .     S
C250   H252    1.118   .     S
C253   H255    1.111   .     S
C253   H254    1.112   .     S
C253   C256    1.525   .     S
C256   H257    1.111   .     S
C256   H258    1.111   .     S
H259   C76     1.110   1_655 S
O260   C261    1.415   .     S
C261   H262    1.112   .     S
C261   H263    1.118   .     S
C261   C264    1.529   .     S
C264   H265    1.110   .     S
C264   H266    1.112   .     S
C264   C87     1.526   1_655 S
C267   H269    1.111   .     S
C267   H270    1.111   .     S
H268   C87     1.111   1_655 S
C271   O320    1.292   .     A
C271   O317    1.291   .     A
C271   C280    1.451   .     S
C272   O318    1.291   .     A
C272   O319    1.291   .     A
C272   C279    1.451   .     S
C273   C298    1.400   .     A
C273   O339    1.385   .     S
C273   C1109   1.391   1_554 S
C274   C297    1.400   .     A
C274   O350    1.388   .     S
C274   C1110   1.395   .     S
C275   H307    1.083   .     S
C275   C280    1.401   .     A
C275   C457    1.383   1_455 S
C276   C279    1.401   .     A
C276   H308    1.083   .     S
C276   C368    1.383   .     S
C277   C279    1.401   .     A
C277   H309    1.083   .     S
C277   C365    1.383   .     S
C278   C280    1.401   .     A
C278   H310    1.083   .     S
C278   C456    1.383   1_455 S
C281   H311    1.082   .     S
C281   N316    1.367   .     A
C282   H312    1.082   .     S
C282   N315    1.367   .     A
C282   C553    1.416   .     S
C283   N316    1.367   .     A
C283   H313    1.082   .     S
C284   N315    1.367   .     A
C284   H314    1.082   .     S
C284   C551    1.416   .     S
C285   O321    1.296   .     A
C285   C290    1.467   .     S
C285   O324    1.296   .     A
C286   O323    1.296   .     A
C286   O322    1.296   .     A
C286   C289    1.467   .     S
C287   H303    1.086   .     S
C287   C297    1.391   .     A
C287   C289    1.390   .     A
C288   C298    1.390   .     A
C288   H304    1.085   .     S
C288   C290    1.390   .     A
C289   C291    1.435   .     A
C290   C292    1.435   .     A
C291   C325    1.533   .     S
C291   C293    1.428   .     A
C292   C332    1.531   .     S
C292   C294    1.428   .     A
C293   C299    1.416   .     A
C293   C295    1.417   .     A
C294   C296    1.417   .     A
C294   C300    1.417   .     A
C295   C297    1.409   .     A
C295   C1106   1.418   .     S
C296   C298    1.410   .     A
C296   C1105   1.418   1_554 S
C299   H305    1.080   .     S
C299   C1083   1.391   .     S
C300   H306    1.078   .     S
C300   C1084   1.395   1_554 S
Cu301  O317    1.964   .     S
Cu301  O319    1.964   .     S
Cu301  O321    1.975   .     S
Cu301  Cu302   2.675   .     S
Cu301  O323    1.974   .     S
Cu301  N315    2.010   .     S
Cu302  O322    1.975   .     S
Cu302  O318    1.964   .     S
Cu302  O324    1.974   .     S
Cu302  O320    1.964   .     S
Cu302  N316    2.010   .     S
C325   C326    1.504   .     S
C325   H330    1.112   .     S
C325   H331    1.111   .     S
C326   H327    1.107   .     S
C326   H329    1.110   .     S
C326   H328    1.107   .     S
C332   H337    1.112   .     S
C332   C333    1.503   .     S
C332   H338    1.111   .     S
C333   H335    1.108   .     S
C333   H336    1.111   .     S
C333   H334    1.107   .     S
O339   C340    1.418   .     S
C340   H341    1.108   .     S
C340   C343    1.532   .     S
C340   H342    1.118   .     S
C343   H345    1.111   .     S
C343   H344    1.112   .     S
C343   C346    1.525   .     S
C346   H347    1.111   .     S
C346   H348    1.111   .     S
C346   H529    1.110   1_455 S
H349   C436    1.110   .     S
O350   C351    1.415   .     S
C351   H352    1.112   .     S
C351   H353    1.118   .     S
C351   C354    1.529   .     S
C354   H355    1.110   .     S
C354   H356    1.112   .     S
C354   C447    1.526   .     S
C357   H359    1.111   .     S
C357   H360    1.111   .     S
C357   C534    1.526   1_455 S
C357   H538    1.111   1_455 S
H358   C447    1.111   .     S
C361   O410    1.292   .     A
C361   O407    1.291   .     A
C361   C370    1.451   .     S
C362   O408    1.291   .     A
C362   O409    1.291   .     A
C362   C369    1.451   .     S
C363   C388    1.400   .     A
C363   O429    1.385   .     S
C363   C1199   1.391   1_554 S
C364   C387    1.400   .     A
C364   O440    1.388   .     S
C364   C1200   1.395   .     S
C365   H397    1.083   .     S
C365   C370    1.401   .     A
C366   C369    1.401   .     A
C366   H398    1.083   .     S
C366   C458    1.383   .     S
C367   C369    1.401   .     A
C367   H399    1.083   .     S
C367   C455    1.383   .     S
C368   C370    1.401   .     A
C368   H400    1.083   .     S
C371   H401    1.082   .     S
C371   N406    1.367   .     A
C372   H402    1.082   .     S
C372   N405    1.367   .     A
C372   C643    1.416   .     S
C373   N406    1.367   .     A
C373   H403    1.082   .     S
C374   N405    1.367   .     A
C374   H404    1.082   .     S
C374   C641    1.416   .     S
C375   O411    1.296   .     A
C375   C380    1.467   .     S
C375   O414    1.296   .     A
C376   O413    1.296   .     A
C376   O412    1.296   .     A
C376   C379    1.467   .     S
C377   H393    1.086   .     S
C377   C387    1.391   .     A
C377   C379    1.390   .     A
C378   C388    1.390   .     A
C378   H394    1.085   .     S
C378   C380    1.390   .     A
C379   C381    1.435   .     A
C380   C382    1.435   .     A
C381   C415    1.533   .     S
C381   C383    1.428   .     A
C382   C422    1.531   .     S
C382   C384    1.428   .     A
C383   C389    1.416   .     A
C383   C385    1.417   .     A
C384   C386    1.417   .     A
C384   C390    1.417   .     A
C385   C387    1.409   .     A
C385   C1196   1.418   .     S
C386   C388    1.410   .     A
C386   C1195   1.418   1_554 S
C389   H395    1.080   .     S
C389   C1173   1.391   .     S
C390   H396    1.078   .     S
C390   C1174   1.395   1_554 S
Cu391  O407    1.964   .     S
Cu391  O409    1.964   .     S
Cu391  O411    1.975   .     S
Cu391  Cu392   2.675   .     S
Cu391  O413    1.974   .     S
Cu391  N405    2.010   .     S
Cu392  O412    1.975   .     S
Cu392  O408    1.964   .     S
Cu392  O414    1.974   .     S
Cu392  O410    1.964   .     S
Cu392  N406    2.010   .     S
C415   C416    1.504   .     S
C415   H420    1.112   .     S
C415   H421    1.111   .     S
C416   H417    1.107   .     S
C416   H419    1.110   .     S
C416   H418    1.107   .     S
C422   H427    1.112   .     S
C422   C423    1.503   .     S
C422   H428    1.111   .     S
C423   H425    1.108   .     S
C423   H426    1.111   .     S
C423   H424    1.107   .     S
O429   C430    1.418   .     S
C430   H431    1.108   .     S
C430   C433    1.532   .     S
C430   H432    1.118   .     S
C433   H435    1.111   .     S
C433   H434    1.112   .     S
C433   C436    1.525   .     S
C436   H437    1.111   .     S
C436   H438    1.111   .     S
H439   C526    1.110   .     S
O440   C441    1.415   .     S
C441   H442    1.112   .     S
C441   H443    1.118   .     S
C441   C444    1.529   .     S
C444   H445    1.110   .     S
C444   H446    1.112   .     S
C444   C537    1.526   .     S
C447   H449    1.111   .     S
C447   H450    1.111   .     S
H448   C537    1.111   .     S
C451   O500    1.292   .     A
C451   O497    1.291   .     A
C451   C460    1.451   .     S
C452   O498    1.291   .     A
C452   O499    1.291   .     A
C452   C459    1.451   .     S
C453   C478    1.400   .     A
C453   O519    1.385   .     S
C453   C1289   1.391   1_554 S
C454   C477    1.400   .     A
C454   O530    1.388   .     S
C454   C1290   1.395   .     S
C455   H487    1.083   .     S
C455   C460    1.401   .     A
C456   C459    1.401   .     A
C456   H488    1.083   .     S
C456   C278    1.383   1_655 S
C457   C459    1.401   .     A
C457   H489    1.083   .     S
C457   C275    1.383   1_655 S
C458   C460    1.401   .     A
C458   H490    1.083   .     S
C461   H491    1.082   .     S
C461   N496    1.367   .     A
C462   H492    1.082   .     S
C462   N495    1.367   .     A
C462   C733    1.416   .     S
C463   N496    1.367   .     A
C463   H493    1.082   .     S
C464   N495    1.367   .     A
C464   H494    1.082   .     S
C464   C731    1.416   .     S
C465   O501    1.296   .     A
C465   C470    1.467   .     S
C465   O504    1.296   .     A
C466   O503    1.296   .     A
C466   O502    1.296   .     A
C466   C469    1.467   .     S
C467   H483    1.086   .     S
C467   C477    1.391   .     A
C467   C469    1.390   .     A
C468   C478    1.390   .     A
C468   H484    1.085   .     S
C468   C470    1.390   .     A
C469   C471    1.435   .     A
C470   C472    1.435   .     A
C471   C505    1.533   .     S
C471   C473    1.428   .     A
C472   C512    1.531   .     S
C472   C474    1.428   .     A
C473   C479    1.416   .     A
C473   C475    1.417   .     A
C474   C476    1.417   .     A
C474   C480    1.417   .     A
C475   C477    1.409   .     A
C475   C1286   1.418   .     S
C476   C478    1.410   .     A
C476   C1285   1.418   1_554 S
C479   H485    1.080   .     S
C479   C1263   1.391   .     S
C480   H486    1.078   .     S
C480   C1264   1.395   1_554 S
Cu481  O497    1.964   .     S
Cu481  O499    1.964   .     S
Cu481  O501    1.975   .     S
Cu481  Cu482   2.675   .     S
Cu481  O503    1.974   .     S
Cu481  N495    2.010   .     S
Cu482  O502    1.975   .     S
Cu482  O498    1.964   .     S
Cu482  O504    1.974   .     S
Cu482  O500    1.964   .     S
Cu482  N496    2.010   .     S
C505   C506    1.504   .     S
C505   H510    1.112   .     S
C505   H511    1.111   .     S
C506   H507    1.107   .     S
C506   H509    1.110   .     S
C506   H508    1.107   .     S
C512   H517    1.112   .     S
C512   C513    1.503   .     S
C512   H518    1.111   .     S
C513   H515    1.108   .     S
C513   H516    1.111   .     S
C513   H514    1.107   .     S
O519   C520    1.418   .     S
C520   H521    1.108   .     S
C520   C523    1.532   .     S
C520   H522    1.118   .     S
C523   H525    1.111   .     S
C523   H524    1.112   .     S
C523   C526    1.525   .     S
C526   H527    1.111   .     S
C526   H528    1.111   .     S
H529   C346    1.110   1_655 S
O530   C531    1.415   .     S
C531   H532    1.112   .     S
C531   H533    1.118   .     S
C531   C534    1.529   .     S
C534   H535    1.110   .     S
C534   H536    1.112   .     S
C534   C357    1.526   1_655 S
C537   H539    1.111   .     S
C537   H540    1.111   .     S
H538   C357    1.111   1_655 S
C541   O590    1.292   .     A
C541   O587    1.291   .     A
C541   C550    1.451   .     S
C542   O588    1.291   .     A
C542   O589    1.291   .     A
C542   C549    1.451   .     S
C543   C568    1.400   .     A
C543   O609    1.385   .     S
C543   C1379   1.391   1_554 S
C544   C567    1.400   .     A
C544   O620    1.388   .     S
C544   C1380   1.395   .     S
C545   H577    1.083   .     S
C545   C550    1.401   .     A
C545   C727    1.383   1_455 S
C546   C549    1.401   .     A
C546   H578    1.083   .     S
C546   C638    1.383   .     S
C547   C549    1.401   .     A
C547   H579    1.083   .     S
C547   C635    1.383   .     S
C548   C550    1.401   .     A
C548   H580    1.083   .     S
C548   C726    1.383   1_455 S
C551   H581    1.082   .     S
C551   N586    1.367   .     A
C552   H582    1.082   .     S
C552   N585    1.367   .     A
C552   C13     1.416   1_565 S
C553   N586    1.367   .     A
C553   H583    1.082   .     S
C554   N585    1.367   .     A
C554   H584    1.082   .     S
C554   C11     1.416   1_565 S
C555   O591    1.296   .     A
C555   C560    1.467   .     S
C555   O594    1.296   .     A
C556   O593    1.296   .     A
C556   O592    1.296   .     A
C556   C559    1.467   .     S
C557   H573    1.086   .     S
C557   C567    1.391   .     A
C557   C559    1.390   .     A
C558   C568    1.390   .     A
C558   H574    1.085   .     S
C558   C560    1.390   .     A
C559   C561    1.435   .     A
C560   C562    1.435   .     A
C561   C595    1.533   .     S
C561   C563    1.428   .     A
C562   C602    1.531   .     S
C562   C564    1.428   .     A
C563   C569    1.416   .     A
C563   C565    1.417   .     A
C564   C566    1.417   .     A
C564   C570    1.417   .     A
C565   C567    1.409   .     A
C565   C1376   1.418   .     S
C566   C568    1.410   .     A
C566   C1375   1.418   1_554 S
C569   H575    1.080   .     S
C569   C1353   1.391   .     S
C570   H576    1.078   .     S
C570   C1354   1.395   1_554 S
Cu571  O587    1.964   .     S
Cu571  O589    1.964   .     S
Cu571  O591    1.975   .     S
Cu571  Cu572   2.675   .     S
Cu571  O593    1.974   .     S
Cu571  N585    2.010   .     S
Cu572  O592    1.975   .     S
Cu572  O588    1.964   .     S
Cu572  O594    1.974   .     S
Cu572  O590    1.964   .     S
Cu572  N586    2.010   .     S
C595   C596    1.504   .     S
C595   H600    1.112   .     S
C595   H601    1.111   .     S
C596   H597    1.107   .     S
C596   H599    1.110   .     S
C596   H598    1.107   .     S
C602   H607    1.112   .     S
C602   C603    1.503   .     S
C602   H608    1.111   .     S
C603   H605    1.108   .     S
C603   H606    1.111   .     S
C603   H604    1.107   .     S
O609   C610    1.418   .     S
C610   H611    1.108   .     S
C610   C613    1.532   .     S
C610   H612    1.118   .     S
C613   H615    1.111   .     S
C613   H614    1.112   .     S
C613   C616    1.525   .     S
C616   H617    1.111   .     S
C616   H618    1.111   .     S
C616   H799    1.110   1_455 S
H619   C706    1.110   .     S
O620   C621    1.415   .     S
C621   H622    1.112   .     S
C621   H623    1.118   .     S
C621   C624    1.529   .     S
C624   H625    1.110   .     S
C624   H626    1.112   .     S
C624   C717    1.526   .     S
C627   H629    1.111   .     S
C627   H630    1.111   .     S
C627   C804    1.526   1_455 S
C627   H808    1.111   1_455 S
H628   C717    1.111   .     S
C631   O680    1.292   .     A
C631   O677    1.291   .     A
C631   C640    1.451   .     S
C632   O678    1.291   .     A
C632   O679    1.291   .     A
C632   C639    1.451   .     S
C633   C658    1.400   .     A
C633   O699    1.385   .     S
C633   C1469   1.391   1_554 S
C634   C657    1.400   .     A
C634   O710    1.388   .     S
C634   C1470   1.395   .     S
C635   H667    1.083   .     S
C635   C640    1.401   .     A
C636   C639    1.401   .     A
C636   H668    1.083   .     S
C636   C728    1.383   .     S
C637   C639    1.401   .     A
C637   H669    1.083   .     S
C637   C725    1.383   .     S
C638   C640    1.401   .     A
C638   H670    1.083   .     S
C641   H671    1.082   .     S
C641   N676    1.367   .     A
C642   H672    1.082   .     S
C642   N675    1.367   .     A
C642   C103    1.416   1_565 S
C643   N676    1.367   .     A
C643   H673    1.082   .     S
C644   N675    1.367   .     A
C644   H674    1.082   .     S
C644   C101    1.416   1_565 S
C645   O681    1.296   .     A
C645   C650    1.467   .     S
C645   O684    1.296   .     A
C646   O683    1.296   .     A
C646   O682    1.296   .     A
C646   C649    1.467   .     S
C647   H663    1.086   .     S
C647   C657    1.391   .     A
C647   C649    1.390   .     A
C648   C658    1.390   .     A
C648   H664    1.085   .     S
C648   C650    1.390   .     A
C649   C651    1.435   .     A
C650   C652    1.435   .     A
C651   C685    1.533   .     S
C651   C653    1.428   .     A
C652   C692    1.531   .     S
C652   C654    1.428   .     A
C653   C659    1.416   .     A
C653   C655    1.417   .     A
C654   C656    1.417   .     A
C654   C660    1.417   .     A
C655   C657    1.409   .     A
C655   C1466   1.418   .     S
C656   C658    1.410   .     A
C656   C1465   1.418   1_554 S
C659   H665    1.080   .     S
C659   C1443   1.391   .     S
C660   H666    1.078   .     S
C660   C1444   1.395   1_554 S
Cu661  O677    1.964   .     S
Cu661  O679    1.964   .     S
Cu661  O681    1.975   .     S
Cu661  Cu662   2.675   .     S
Cu661  O683    1.974   .     S
Cu661  N675    2.010   .     S
Cu662  O682    1.975   .     S
Cu662  O678    1.964   .     S
Cu662  O684    1.974   .     S
Cu662  O680    1.964   .     S
Cu662  N676    2.010   .     S
C685   C686    1.504   .     S
C685   H690    1.112   .     S
C685   H691    1.111   .     S
C686   H687    1.107   .     S
C686   H689    1.110   .     S
C686   H688    1.107   .     S
C692   H697    1.112   .     S
C692   C693    1.503   .     S
C692   H698    1.111   .     S
C693   H695    1.108   .     S
C693   H696    1.111   .     S
C693   H694    1.107   .     S
O699   C700    1.418   .     S
C700   H701    1.108   .     S
C700   C703    1.532   .     S
C700   H702    1.118   .     S
C703   H705    1.111   .     S
C703   H704    1.112   .     S
C703   C706    1.525   .     S
C706   H707    1.111   .     S
C706   H708    1.111   .     S
H709   C796    1.110   .     S
O710   C711    1.415   .     S
C711   H712    1.112   .     S
C711   H713    1.118   .     S
C711   C714    1.529   .     S
C714   H715    1.110   .     S
C714   H716    1.112   .     S
C714   C807    1.526   .     S
C717   H719    1.111   .     S
C717   H720    1.111   .     S
H718   C807    1.111   .     S
C721   O770    1.292   .     A
C721   O767    1.291   .     A
C721   C730    1.451   .     S
C722   O768    1.291   .     A
C722   O769    1.291   .     A
C722   C729    1.451   .     S
C723   C748    1.400   .     A
C723   O789    1.385   .     S
C723   C1559   1.391   1_554 S
C724   C747    1.400   .     A
C724   O800    1.388   .     S
C724   C1560   1.395   .     S
C725   H757    1.083   .     S
C725   C730    1.401   .     A
C726   C729    1.401   .     A
C726   H758    1.083   .     S
C726   C548    1.383   1_655 S
C727   C729    1.401   .     A
C727   H759    1.083   .     S
C727   C545    1.383   1_655 S
C728   C730    1.401   .     A
C728   H760    1.083   .     S
C731   H761    1.082   .     S
C731   N766    1.367   .     A
C732   H762    1.082   .     S
C732   N765    1.367   .     A
C732   C193    1.416   1_565 S
C733   N766    1.367   .     A
C733   H763    1.082   .     S
C734   N765    1.367   .     A
C734   H764    1.082   .     S
C734   C191    1.416   1_565 S
C735   O771    1.296   .     A
C735   C740    1.467   .     S
C735   O774    1.296   .     A
C736   O773    1.296   .     A
C736   O772    1.296   .     A
C736   C739    1.467   .     S
C737   H753    1.086   .     S
C737   C747    1.391   .     A
C737   C739    1.390   .     A
C738   C748    1.390   .     A
C738   H754    1.085   .     S
C738   C740    1.390   .     A
C739   C741    1.435   .     A
C740   C742    1.435   .     A
C741   C775    1.533   .     S
C741   C743    1.428   .     A
C742   C782    1.531   .     S
C742   C744    1.428   .     A
C743   C749    1.416   .     A
C743   C745    1.417   .     A
C744   C746    1.417   .     A
C744   C750    1.417   .     A
C745   C747    1.409   .     A
C745   C1556   1.418   .     S
C746   C748    1.410   .     A
C746   C1555   1.418   1_554 S
C749   H755    1.080   .     S
C749   C1533   1.391   .     S
C750   H756    1.078   .     S
C750   C1534   1.395   1_554 S
Cu751  O767    1.964   .     S
Cu751  O769    1.964   .     S
Cu751  O771    1.975   .     S
Cu751  Cu752   2.675   .     S
Cu751  O773    1.974   .     S
Cu751  N765    2.010   .     S
Cu752  O772    1.975   .     S
Cu752  O768    1.964   .     S
Cu752  O774    1.974   .     S
Cu752  O770    1.964   .     S
Cu752  N766    2.010   .     S
C775   C776    1.504   .     S
C775   H780    1.112   .     S
C775   H781    1.111   .     S
C776   H777    1.107   .     S
C776   H779    1.110   .     S
C776   H778    1.107   .     S
C782   H787    1.112   .     S
C782   C783    1.503   .     S
C782   H788    1.111   .     S
C783   H785    1.108   .     S
C783   H786    1.111   .     S
C783   H784    1.107   .     S
O789   C790    1.418   .     S
C790   H791    1.108   .     S
C790   C793    1.532   .     S
C790   H792    1.118   .     S
C793   H795    1.111   .     S
C793   H794    1.112   .     S
C793   C796    1.525   .     S
C796   H797    1.111   .     S
C796   H798    1.111   .     S
H799   C616    1.110   1_655 S
O800   C801    1.415   .     S
C801   H802    1.112   .     S
C801   H803    1.118   .     S
C801   C804    1.529   .     S
C804   H805    1.110   .     S
C804   H806    1.112   .     S
C804   C627    1.526   1_655 S
C807   H809    1.111   .     S
C807   H810    1.111   .     S
H808   C627    1.111   1_655 S
C811   O860    1.292   .     A
C811   O857    1.291   .     A
C811   C820    1.451   .     S
C812   O858    1.291   .     A
C812   O859    1.291   .     A
C812   C819    1.451   .     S
C813   C838    1.400   .     A
C813   O879    1.385   .     S
C814   C837    1.400   .     A
C814   O890    1.388   .     S
C814   C30     1.395   1_556 S
C815   H847    1.083   .     S
C815   C820    1.401   .     A
C815   C997    1.383   1_455 S
C816   C819    1.401   .     A
C816   H848    1.083   .     S
C816   C908    1.383   .     S
C817   C819    1.401   .     A
C817   H849    1.083   .     S
C817   C905    1.383   .     S
C818   C820    1.401   .     A
C818   H850    1.083   .     S
C818   C996    1.383   1_455 S
C821   H851    1.082   .     S
C821   N856    1.367   .     A
C821   C1364   1.416   1_545 S
C822   H852    1.082   .     S
C822   N855    1.367   .     A
C822   C1093   1.416   .     S
C823   N856    1.367   .     A
C823   H853    1.082   .     S
C823   C1362   1.416   1_545 S
C824   N855    1.367   .     A
C824   H854    1.082   .     S
C824   C1091   1.416   .     S
C825   O861    1.296   .     A
C825   C830    1.467   .     S
C825   O864    1.296   .     A
C826   O863    1.296   .     A
C826   O862    1.296   .     A
C826   C829    1.467   .     S
C827   H843    1.086   .     S
C827   C837    1.391   .     A
C827   C829    1.390   .     A
C828   C838    1.390   .     A
C828   H844    1.085   .     S
C828   C830    1.390   .     A
C829   C831    1.435   .     A
C830   C832    1.435   .     A
C831   C865    1.533   .     S
C831   C833    1.428   .     A
C832   C872    1.531   .     S
C832   C834    1.428   .     A
C833   C839    1.416   .     A
C833   C835    1.417   .     A
C834   C836    1.417   .     A
C834   C840    1.417   .     A
C835   C837    1.409   .     A
C835   C26     1.418   1_556 S
C836   C838    1.410   .     A
C839   H845    1.080   .     S
C839   C3      1.391   1_556 S
C840   H846    1.078   .     S
Cu841  O857    1.964   .     S
Cu841  O859    1.964   .     S
Cu841  O861    1.975   .     S
Cu841  Cu842   2.675   .     S
Cu841  O863    1.974   .     S
Cu841  N855    2.010   .     S
Cu842  O862    1.975   .     S
Cu842  O858    1.964   .     S
Cu842  O864    1.974   .     S
Cu842  O860    1.964   .     S
Cu842  N856    2.010   .     S
C865   C866    1.504   .     S
C865   H870    1.112   .     S
C865   H871    1.111   .     S
C866   H867    1.107   .     S
C866   H869    1.110   .     S
C866   H868    1.107   .     S
C872   H877    1.112   .     S
C872   C873    1.503   .     S
C872   H878    1.111   .     S
C873   H875    1.108   .     S
C873   H876    1.111   .     S
C873   H874    1.107   .     S
O879   C880    1.418   .     S
C880   H881    1.108   .     S
C880   C883    1.532   .     S
C880   H882    1.118   .     S
C883   H885    1.111   .     S
C883   H884    1.112   .     S
C883   C886    1.525   .     S
C886   H887    1.111   .     S
C886   H888    1.111   .     S
C886   H1069   1.110   1_455 S
H889   C976    1.110   .     S
O890   C891    1.415   .     S
C891   H892    1.112   .     S
C891   H893    1.118   .     S
C891   C894    1.529   .     S
C894   H895    1.110   .     S
C894   H896    1.112   .     S
C894   C987    1.526   .     S
C897   H899    1.111   .     S
C897   H900    1.111   .     S
C897   C1074   1.526   1_455 S
C897   H1078   1.111   1_455 S
H898   C987    1.111   .     S
C901   O950    1.292   .     A
C901   O947    1.291   .     A
C901   C910    1.451   .     S
C902   O948    1.291   .     A
C902   O949    1.291   .     A
C902   C909    1.451   .     S
C903   C928    1.400   .     A
C903   O969    1.385   .     S
C904   C927    1.400   .     A
C904   O980    1.388   .     S
C904   C120    1.395   1_556 S
C905   H937    1.083   .     S
C905   C910    1.401   .     A
C906   C909    1.401   .     A
C906   H938    1.083   .     S
C906   C998    1.383   .     S
C907   C909    1.401   .     A
C907   H939    1.083   .     S
C907   C995    1.383   .     S
C908   C910    1.401   .     A
C908   H940    1.083   .     S
C911   H941    1.082   .     S
C911   N946    1.367   .     A
C911   C1454   1.416   1_545 S
C912   H942    1.082   .     S
C912   N945    1.367   .     A
C912   C1183   1.416   .     S
C913   N946    1.367   .     A
C913   H943    1.082   .     S
C913   C1452   1.416   1_545 S
C914   N945    1.367   .     A
C914   H944    1.082   .     S
C914   C1181   1.416   .     S
C915   O951    1.296   .     A
C915   C920    1.467   .     S
C915   O954    1.296   .     A
C916   O953    1.296   .     A
C916   O952    1.296   .     A
C916   C919    1.467   .     S
C917   H933    1.086   .     S
C917   C927    1.391   .     A
C917   C919    1.390   .     A
C918   C928    1.390   .     A
C918   H934    1.085   .     S
C918   C920    1.390   .     A
C919   C921    1.435   .     A
C920   C922    1.435   .     A
C921   C955    1.533   .     S
C921   C923    1.428   .     A
C922   C962    1.531   .     S
C922   C924    1.428   .     A
C923   C929    1.416   .     A
C923   C925    1.417   .     A
C924   C926    1.417   .     A
C924   C930    1.417   .     A
C925   C927    1.409   .     A
C925   C116    1.418   1_556 S
C926   C928    1.410   .     A
C929   H935    1.080   .     S
C929   C93     1.391   1_556 S
C930   H936    1.078   .     S
Cu931  O947    1.964   .     S
Cu931  O949    1.964   .     S
Cu931  O951    1.975   .     S
Cu931  Cu932   2.675   .     S
Cu931  O953    1.974   .     S
Cu931  N945    2.010   .     S
Cu932  O952    1.975   .     S
Cu932  O948    1.964   .     S
Cu932  O954    1.974   .     S
Cu932  O950    1.964   .     S
Cu932  N946    2.010   .     S
C955   C956    1.504   .     S
C955   H960    1.112   .     S
C955   H961    1.111   .     S
C956   H957    1.107   .     S
C956   H959    1.110   .     S
C956   H958    1.107   .     S
C962   H967    1.112   .     S
C962   C963    1.503   .     S
C962   H968    1.111   .     S
C963   H965    1.108   .     S
C963   H966    1.111   .     S
C963   H964    1.107   .     S
O969   C970    1.418   .     S
C970   H971    1.108   .     S
C970   C973    1.532   .     S
C970   H972    1.118   .     S
C973   H975    1.111   .     S
C973   H974    1.112   .     S
C973   C976    1.525   .     S
C976   H977    1.111   .     S
C976   H978    1.111   .     S
H979   C1066   1.110   .     S
O980   C981    1.415   .     S
C981   H982    1.112   .     S
C981   H983    1.118   .     S
C981   C984    1.529   .     S
C984   H985    1.110   .     S
C984   H986    1.112   .     S
C984   C1077   1.526   .     S
C987   H989    1.111   .     S
C987   H990    1.111   .     S
H988   C1077   1.111   .     S
C991   O1040   1.292   .     A
C991   O1037   1.291   .     A
C991   C1000   1.451   .     S
C992   O1038   1.291   .     A
C992   O1039   1.291   .     A
C992   C999    1.451   .     S
C993   C1018   1.400   .     A
C993   O1059   1.385   .     S
C994   C1017   1.400   .     A
C994   O1070   1.388   .     S
C994   C210    1.395   1_556 S
C995   H1027   1.083   .     S
C995   C1000   1.401   .     A
C996   C999    1.401   .     A
C996   H1028   1.083   .     S
C996   C818    1.383   1_655 S
C997   C999    1.401   .     A
C997   H1029   1.083   .     S
C997   C815    1.383   1_655 S
C998   C1000   1.401   .     A
C998   H1030   1.083   .     S
C1001  H1031   1.082   .     S
C1001  N1036   1.367   .     A
C1001  C1544   1.416   1_545 S
C1002  H1032   1.082   .     S
C1002  N1035   1.367   .     A
C1002  C1273   1.416   .     S
C1003  N1036   1.367   .     A
C1003  H1033   1.082   .     S
C1003  C1542   1.416   1_545 S
C1004  N1035   1.367   .     A
C1004  H1034   1.082   .     S
C1004  C1271   1.416   .     S
C1005  O1041   1.296   .     A
C1005  C1010   1.467   .     S
C1005  O1044   1.296   .     A
C1006  O1043   1.296   .     A
C1006  O1042   1.296   .     A
C1006  C1009   1.467   .     S
C1007  H1023   1.086   .     S
C1007  C1017   1.391   .     A
C1007  C1009   1.390   .     A
C1008  C1018   1.390   .     A
C1008  H1024   1.085   .     S
C1008  C1010   1.390   .     A
C1009  C1011   1.435   .     A
C1010  C1012   1.435   .     A
C1011  C1045   1.533   .     S
C1011  C1013   1.428   .     A
C1012  C1052   1.531   .     S
C1012  C1014   1.428   .     A
C1013  C1019   1.416   .     A
C1013  C1015   1.417   .     A
C1014  C1016   1.417   .     A
C1014  C1020   1.417   .     A
C1015  C1017   1.409   .     A
C1015  C206    1.418   1_556 S
C1016  C1018   1.410   .     A
C1019  H1025   1.080   .     S
C1019  C183    1.391   1_556 S
C1020  H1026   1.078   .     S
Cu1021 O1037   1.964   .     S
Cu1021 O1039   1.964   .     S
Cu1021 O1041   1.975   .     S
Cu1021 Cu1022  2.675   .     S
Cu1021 O1043   1.974   .     S
Cu1021 N1035   2.010   .     S
Cu1022 O1042   1.975   .     S
Cu1022 O1038   1.964   .     S
Cu1022 O1044   1.974   .     S
Cu1022 O1040   1.964   .     S
Cu1022 N1036   2.010   .     S
C1045  C1046   1.504   .     S
C1045  H1050   1.112   .     S
C1045  H1051   1.111   .     S
C1046  H1047   1.107   .     S
C1046  H1049   1.110   .     S
C1046  H1048   1.107   .     S
C1052  H1057   1.112   .     S
C1052  C1053   1.503   .     S
C1052  H1058   1.111   .     S
C1053  H1055   1.108   .     S
C1053  H1056   1.111   .     S
C1053  H1054   1.107   .     S
O1059  C1060   1.418   .     S
C1060  H1061   1.108   .     S
C1060  C1063   1.532   .     S
C1060  H1062   1.118   .     S
C1063  H1065   1.111   .     S
C1063  H1064   1.112   .     S
C1063  C1066   1.525   .     S
C1066  H1067   1.111   .     S
C1066  H1068   1.111   .     S
H1069  C886    1.110   1_655 S
O1070  C1071   1.415   .     S
C1071  H1072   1.112   .     S
C1071  H1073   1.118   .     S
C1071  C1074   1.529   .     S
C1074  H1075   1.110   .     S
C1074  H1076   1.112   .     S
C1074  C897    1.526   1_655 S
C1077  H1079   1.111   .     S
C1077  H1080   1.111   .     S
H1078  C897    1.111   1_655 S
C1081  O1130   1.292   .     A
C1081  O1127   1.291   .     A
C1081  C1090   1.451   .     S
C1082  O1128   1.291   .     A
C1082  O1129   1.291   .     A
C1082  C1089   1.451   .     S
C1083  C1108   1.400   .     A
C1083  O1149   1.385   .     S
C1084  C1107   1.400   .     A
C1084  O1160   1.388   .     S
C1084  C300    1.395   1_556 S
C1085  H1117   1.083   .     S
C1085  C1090   1.401   .     A
C1085  C1267   1.383   1_455 S
C1086  C1089   1.401   .     A
C1086  H1118   1.083   .     S
C1086  C1178   1.383   .     S
C1087  C1089   1.401   .     A
C1087  H1119   1.083   .     S
C1087  C1175   1.383   .     S
C1088  C1090   1.401   .     A
C1088  H1120   1.083   .     S
C1088  C1266   1.383   1_455 S
C1091  H1121   1.082   .     S
C1091  N1126   1.367   .     A
C1092  H1122   1.082   .     S
C1092  N1125   1.367   .     A
C1092  C1363   1.416   .     S
C1093  N1126   1.367   .     A
C1093  H1123   1.082   .     S
C1094  N1125   1.367   .     A
C1094  H1124   1.082   .     S
C1094  C1361   1.416   .     S
C1095  O1131   1.296   .     A
C1095  C1100   1.467   .     S
C1095  O1134   1.296   .     A
C1096  O1133   1.296   .     A
C1096  O1132   1.296   .     A
C1096  C1099   1.467   .     S
C1097  H1113   1.086   .     S
C1097  C1107   1.391   .     A
C1097  C1099   1.390   .     A
C1098  C1108   1.390   .     A
C1098  H1114   1.085   .     S
C1098  C1100   1.390   .     A
C1099  C1101   1.435   .     A
C1100  C1102   1.435   .     A
C1101  C1135   1.533   .     S
C1101  C1103   1.428   .     A
C1102  C1142   1.531   .     S
C1102  C1104   1.428   .     A
C1103  C1109   1.416   .     A
C1103  C1105   1.417   .     A
C1104  C1106   1.417   .     A
C1104  C1110   1.417   .     A
C1105  C1107   1.409   .     A
C1105  C296    1.418   1_556 S
C1106  C1108   1.410   .     A
C1109  H1115   1.080   .     S
C1109  C273    1.391   1_556 S
C1110  H1116   1.078   .     S
Cu1111 O1127   1.964   .     S
Cu1111 O1129   1.964   .     S
Cu1111 O1131   1.975   .     S
Cu1111 Cu1112  2.675   .     S
Cu1111 O1133   1.974   .     S
Cu1111 N1125   2.010   .     S
Cu1112 O1132   1.975   .     S
Cu1112 O1128   1.964   .     S
Cu1112 O1134   1.974   .     S
Cu1112 O1130   1.964   .     S
Cu1112 N1126   2.010   .     S
C1135  C1136   1.504   .     S
C1135  H1140   1.112   .     S
C1135  H1141   1.111   .     S
C1136  H1137   1.107   .     S
C1136  H1139   1.110   .     S
C1136  H1138   1.107   .     S
C1142  H1147   1.112   .     S
C1142  C1143   1.503   .     S
C1142  H1148   1.111   .     S
C1143  H1145   1.108   .     S
C1143  H1146   1.111   .     S
C1143  H1144   1.107   .     S
O1149  C1150   1.418   .     S
C1150  H1151   1.108   .     S
C1150  C1153   1.532   .     S
C1150  H1152   1.118   .     S
C1153  H1155   1.111   .     S
C1153  H1154   1.112   .     S
C1153  C1156   1.525   .     S
C1156  H1157   1.111   .     S
C1156  H1158   1.111   .     S
C1156  H1339   1.110   1_455 S
H1159  C1246   1.110   .     S
O1160  C1161   1.415   .     S
C1161  H1162   1.112   .     S
C1161  H1163   1.118   .     S
C1161  C1164   1.529   .     S
C1164  H1165   1.110   .     S
C1164  H1166   1.112   .     S
C1164  C1257   1.526   .     S
C1167  H1169   1.111   .     S
C1167  H1170   1.111   .     S
C1167  C1344   1.526   1_455 S
C1167  H1348   1.111   1_455 S
H1168  C1257   1.111   .     S
C1171  O1220   1.292   .     A
C1171  O1217   1.291   .     A
C1171  C1180   1.451   .     S
C1172  O1218   1.291   .     A
C1172  O1219   1.291   .     A
C1172  C1179   1.451   .     S
C1173  C1198   1.400   .     A
C1173  O1239   1.385   .     S
C1174  C1197   1.400   .     A
C1174  O1250   1.388   .     S
C1174  C390    1.395   1_556 S
C1175  H1207   1.083   .     S
C1175  C1180   1.401   .     A
C1176  C1179   1.401   .     A
C1176  H1208   1.083   .     S
C1176  C1268   1.383   .     S
C1177  C1179   1.401   .     A
C1177  H1209   1.083   .     S
C1177  C1265   1.383   .     S
C1178  C1180   1.401   .     A
C1178  H1210   1.083   .     S
C1181  H1211   1.082   .     S
C1181  N1216   1.367   .     A
C1182  H1212   1.082   .     S
C1182  N1215   1.367   .     A
C1182  C1453   1.416   .     S
C1183  N1216   1.367   .     A
C1183  H1213   1.082   .     S
C1184  N1215   1.367   .     A
C1184  H1214   1.082   .     S
C1184  C1451   1.416   .     S
C1185  O1221   1.296   .     A
C1185  C1190   1.467   .     S
C1185  O1224   1.296   .     A
C1186  O1223   1.296   .     A
C1186  O1222   1.296   .     A
C1186  C1189   1.467   .     S
C1187  H1203   1.086   .     S
C1187  C1197   1.391   .     A
C1187  C1189   1.390   .     A
C1188  C1198   1.390   .     A
C1188  H1204   1.085   .     S
C1188  C1190   1.390   .     A
C1189  C1191   1.435   .     A
C1190  C1192   1.435   .     A
C1191  C1225   1.533   .     S
C1191  C1193   1.428   .     A
C1192  C1232   1.531   .     S
C1192  C1194   1.428   .     A
C1193  C1199   1.416   .     A
C1193  C1195   1.417   .     A
C1194  C1196   1.417   .     A
C1194  C1200   1.417   .     A
C1195  C1197   1.409   .     A
C1195  C386    1.418   1_556 S
C1196  C1198   1.410   .     A
C1199  H1205   1.080   .     S
C1199  C363    1.391   1_556 S
C1200  H1206   1.078   .     S
Cu1201 O1217   1.964   .     S
Cu1201 O1219   1.964   .     S
Cu1201 O1221   1.975   .     S
Cu1201 Cu1202  2.675   .     S
Cu1201 O1223   1.974   .     S
Cu1201 N1215   2.010   .     S
Cu1202 O1222   1.975   .     S
Cu1202 O1218   1.964   .     S
Cu1202 O1224   1.974   .     S
Cu1202 O1220   1.964   .     S
Cu1202 N1216   2.010   .     S
C1225  C1226   1.504   .     S
C1225  H1230   1.112   .     S
C1225  H1231   1.111   .     S
C1226  H1227   1.107   .     S
C1226  H1229   1.110   .     S
C1226  H1228   1.107   .     S
C1232  H1237   1.112   .     S
C1232  C1233   1.503   .     S
C1232  H1238   1.111   .     S
C1233  H1235   1.108   .     S
C1233  H1236   1.111   .     S
C1233  H1234   1.107   .     S
O1239  C1240   1.418   .     S
C1240  H1241   1.108   .     S
C1240  C1243   1.532   .     S
C1240  H1242   1.118   .     S
C1243  H1245   1.111   .     S
C1243  H1244   1.112   .     S
C1243  C1246   1.525   .     S
C1246  H1247   1.111   .     S
C1246  H1248   1.111   .     S
H1249  C1336   1.110   .     S
O1250  C1251   1.415   .     S
C1251  H1252   1.112   .     S
C1251  H1253   1.118   .     S
C1251  C1254   1.529   .     S
C1254  H1255   1.110   .     S
C1254  H1256   1.112   .     S
C1254  C1347   1.526   .     S
C1257  H1259   1.111   .     S
C1257  H1260   1.111   .     S
H1258  C1347   1.111   .     S
C1261  O1310   1.292   .     A
C1261  O1307   1.291   .     A
C1261  C1270   1.451   .     S
C1262  O1308   1.291   .     A
C1262  O1309   1.291   .     A
C1262  C1269   1.451   .     S
C1263  C1288   1.400   .     A
C1263  O1329   1.385   .     S
C1264  C1287   1.400   .     A
C1264  O1340   1.388   .     S
C1264  C480    1.395   1_556 S
C1265  H1297   1.083   .     S
C1265  C1270   1.401   .     A
C1266  C1269   1.401   .     A
C1266  H1298   1.083   .     S
C1266  C1088   1.383   1_655 S
C1267  C1269   1.401   .     A
C1267  H1299   1.083   .     S
C1267  C1085   1.383   1_655 S
C1268  C1270   1.401   .     A
C1268  H1300   1.083   .     S
C1271  H1301   1.082   .     S
C1271  N1306   1.367   .     A
C1272  H1302   1.082   .     S
C1272  N1305   1.367   .     A
C1272  C1543   1.416   .     S
C1273  N1306   1.367   .     A
C1273  H1303   1.082   .     S
C1274  N1305   1.367   .     A
C1274  H1304   1.082   .     S
C1274  C1541   1.416   .     S
C1275  O1311   1.296   .     A
C1275  C1280   1.467   .     S
C1275  O1314   1.296   .     A
C1276  O1313   1.296   .     A
C1276  O1312   1.296   .     A
C1276  C1279   1.467   .     S
C1277  H1293   1.086   .     S
C1277  C1287   1.391   .     A
C1277  C1279   1.390   .     A
C1278  C1288   1.390   .     A
C1278  H1294   1.085   .     S
C1278  C1280   1.390   .     A
C1279  C1281   1.435   .     A
C1280  C1282   1.435   .     A
C1281  C1315   1.533   .     S
C1281  C1283   1.428   .     A
C1282  C1322   1.531   .     S
C1282  C1284   1.428   .     A
C1283  C1289   1.416   .     A
C1283  C1285   1.417   .     A
C1284  C1286   1.417   .     A
C1284  C1290   1.417   .     A
C1285  C1287   1.409   .     A
C1285  C476    1.418   1_556 S
C1286  C1288   1.410   .     A
C1289  H1295   1.080   .     S
C1289  C453    1.391   1_556 S
C1290  H1296   1.078   .     S
Cu1291 O1307   1.964   .     S
Cu1291 O1309   1.964   .     S
Cu1291 O1311   1.975   .     S
Cu1291 Cu1292  2.675   .     S
Cu1291 O1313   1.974   .     S
Cu1291 N1305   2.010   .     S
Cu1292 O1312   1.975   .     S
Cu1292 O1308   1.964   .     S
Cu1292 O1314   1.974   .     S
Cu1292 O1310   1.964   .     S
Cu1292 N1306   2.010   .     S
C1315  C1316   1.504   .     S
C1315  H1320   1.112   .     S
C1315  H1321   1.111   .     S
C1316  H1317   1.107   .     S
C1316  H1319   1.110   .     S
C1316  H1318   1.107   .     S
C1322  H1327   1.112   .     S
C1322  C1323   1.503   .     S
C1322  H1328   1.111   .     S
C1323  H1325   1.108   .     S
C1323  H1326   1.111   .     S
C1323  H1324   1.107   .     S
O1329  C1330   1.418   .     S
C1330  H1331   1.108   .     S
C1330  C1333   1.532   .     S
C1330  H1332   1.118   .     S
C1333  H1335   1.111   .     S
C1333  H1334   1.112   .     S
C1333  C1336   1.525   .     S
C1336  H1337   1.111   .     S
C1336  H1338   1.111   .     S
H1339  C1156   1.110   1_655 S
O1340  C1341   1.415   .     S
C1341  H1342   1.112   .     S
C1341  H1343   1.118   .     S
C1341  C1344   1.529   .     S
C1344  H1345   1.110   .     S
C1344  H1346   1.112   .     S
C1344  C1167   1.526   1_655 S
C1347  H1349   1.111   .     S
C1347  H1350   1.111   .     S
H1348  C1167   1.111   1_655 S
C1351  O1400   1.292   .     A
C1351  O1397   1.291   .     A
C1351  C1360   1.451   .     S
C1352  O1398   1.291   .     A
C1352  O1399   1.291   .     A
C1352  C1359   1.451   .     S
C1353  C1378   1.400   .     A
C1353  O1419   1.385   .     S
C1354  C1377   1.400   .     A
C1354  O1430   1.388   .     S
C1354  C570    1.395   1_556 S
C1355  H1387   1.083   .     S
C1355  C1360   1.401   .     A
C1355  C1537   1.383   1_455 S
C1356  C1359   1.401   .     A
C1356  H1388   1.083   .     S
C1356  C1448   1.383   .     S
C1357  C1359   1.401   .     A
C1357  H1389   1.083   .     S
C1357  C1445   1.383   .     S
C1358  C1360   1.401   .     A
C1358  H1390   1.083   .     S
C1358  C1536   1.383   1_455 S
C1361  H1391   1.082   .     S
C1361  N1396   1.367   .     A
C1362  H1392   1.082   .     S
C1362  N1395   1.367   .     A
C1362  C823    1.416   1_565 S
C1363  N1396   1.367   .     A
C1363  H1393   1.082   .     S
C1364  N1395   1.367   .     A
C1364  H1394   1.082   .     S
C1364  C821    1.416   1_565 S
C1365  O1401   1.296   .     A
C1365  C1370   1.467   .     S
C1365  O1404   1.296   .     A
C1366  O1403   1.296   .     A
C1366  O1402   1.296   .     A
C1366  C1369   1.467   .     S
C1367  H1383   1.086   .     S
C1367  C1377   1.391   .     A
C1367  C1369   1.390   .     A
C1368  C1378   1.390   .     A
C1368  H1384   1.085   .     S
C1368  C1370   1.390   .     A
C1369  C1371   1.435   .     A
C1370  C1372   1.435   .     A
C1371  C1405   1.533   .     S
C1371  C1373   1.428   .     A
C1372  C1412   1.531   .     S
C1372  C1374   1.428   .     A
C1373  C1379   1.416   .     A
C1373  C1375   1.417   .     A
C1374  C1376   1.417   .     A
C1374  C1380   1.417   .     A
C1375  C1377   1.409   .     A
C1375  C566    1.418   1_556 S
C1376  C1378   1.410   .     A
C1379  H1385   1.080   .     S
C1379  C543    1.391   1_556 S
C1380  H1386   1.078   .     S
Cu1381 O1397   1.964   .     S
Cu1381 O1399   1.964   .     S
Cu1381 O1401   1.975   .     S
Cu1381 Cu1382  2.675   .     S
Cu1381 O1403   1.974   .     S
Cu1381 N1395   2.010   .     S
Cu1382 O1402   1.975   .     S
Cu1382 O1398   1.964   .     S
Cu1382 O1404   1.974   .     S
Cu1382 O1400   1.964   .     S
Cu1382 N1396   2.010   .     S
C1405  C1406   1.504   .     S
C1405  H1410   1.112   .     S
C1405  H1411   1.111   .     S
C1406  H1407   1.107   .     S
C1406  H1409   1.110   .     S
C1406  H1408   1.107   .     S
C1412  H1417   1.112   .     S
C1412  C1413   1.503   .     S
C1412  H1418   1.111   .     S
C1413  H1415   1.108   .     S
C1413  H1416   1.111   .     S
C1413  H1414   1.107   .     S
O1419  C1420   1.418   .     S
C1420  H1421   1.108   .     S
C1420  C1423   1.532   .     S
C1420  H1422   1.118   .     S
C1423  H1425   1.111   .     S
C1423  H1424   1.112   .     S
C1423  C1426   1.525   .     S
C1426  H1427   1.111   .     S
C1426  H1428   1.111   .     S
C1426  H1609   1.110   1_455 S
H1429  C1516   1.110   .     S
O1430  C1431   1.415   .     S
C1431  H1432   1.112   .     S
C1431  H1433   1.118   .     S
C1431  C1434   1.529   .     S
C1434  H1435   1.110   .     S
C1434  H1436   1.112   .     S
C1434  C1527   1.526   .     S
C1437  H1439   1.111   .     S
C1437  H1440   1.111   .     S
C1437  C1614   1.526   1_455 S
C1437  H1618   1.111   1_455 S
H1438  C1527   1.111   .     S
C1441  O1490   1.292   .     A
C1441  O1487   1.291   .     A
C1441  C1450   1.451   .     S
C1442  O1488   1.291   .     A
C1442  O1489   1.291   .     A
C1442  C1449   1.451   .     S
C1443  C1468   1.400   .     A
C1443  O1509   1.385   .     S
C1444  C1467   1.400   .     A
C1444  O1520   1.388   .     S
C1444  C660    1.395   1_556 S
C1445  H1477   1.083   .     S
C1445  C1450   1.401   .     A
C1446  C1449   1.401   .     A
C1446  H1478   1.083   .     S
C1446  C1538   1.383   .     S
C1447  C1449   1.401   .     A
C1447  H1479   1.083   .     S
C1447  C1535   1.383   .     S
C1448  C1450   1.401   .     A
C1448  H1480   1.083   .     S
C1451  H1481   1.082   .     S
C1451  N1486   1.367   .     A
C1452  H1482   1.082   .     S
C1452  N1485   1.367   .     A
C1452  C913    1.416   1_565 S
C1453  N1486   1.367   .     A
C1453  H1483   1.082   .     S
C1454  N1485   1.367   .     A
C1454  H1484   1.082   .     S
C1454  C911    1.416   1_565 S
C1455  O1491   1.296   .     A
C1455  C1460   1.467   .     S
C1455  O1494   1.296   .     A
C1456  O1493   1.296   .     A
C1456  O1492   1.296   .     A
C1456  C1459   1.467   .     S
C1457  H1473   1.086   .     S
C1457  C1467   1.391   .     A
C1457  C1459   1.390   .     A
C1458  C1468   1.390   .     A
C1458  H1474   1.085   .     S
C1458  C1460   1.390   .     A
C1459  C1461   1.435   .     A
C1460  C1462   1.435   .     A
C1461  C1495   1.533   .     S
C1461  C1463   1.428   .     A
C1462  C1502   1.531   .     S
C1462  C1464   1.428   .     A
C1463  C1469   1.416   .     A
C1463  C1465   1.417   .     A
C1464  C1466   1.417   .     A
C1464  C1470   1.417   .     A
C1465  C1467   1.409   .     A
C1465  C656    1.418   1_556 S
C1466  C1468   1.410   .     A
C1469  H1475   1.080   .     S
C1469  C633    1.391   1_556 S
C1470  H1476   1.078   .     S
Cu1471 O1487   1.964   .     S
Cu1471 O1489   1.964   .     S
Cu1471 O1491   1.975   .     S
Cu1471 Cu1472  2.675   .     S
Cu1471 O1493   1.974   .     S
Cu1471 N1485   2.010   .     S
Cu1472 O1492   1.975   .     S
Cu1472 O1488   1.964   .     S
Cu1472 O1494   1.974   .     S
Cu1472 O1490   1.964   .     S
Cu1472 N1486   2.010   .     S
C1495  C1496   1.504   .     S
C1495  H1500   1.112   .     S
C1495  H1501   1.111   .     S
C1496  H1497   1.107   .     S
C1496  H1499   1.110   .     S
C1496  H1498   1.107   .     S
C1502  H1507   1.112   .     S
C1502  C1503   1.503   .     S
C1502  H1508   1.111   .     S
C1503  H1505   1.108   .     S
C1503  H1506   1.111   .     S
C1503  H1504   1.107   .     S
O1509  C1510   1.418   .     S
C1510  H1511   1.108   .     S
C1510  C1513   1.532   .     S
C1510  H1512   1.118   .     S
C1513  H1515   1.111   .     S
C1513  H1514   1.112   .     S
C1513  C1516   1.525   .     S
C1516  H1517   1.111   .     S
C1516  H1518   1.111   .     S
H1519  C1606   1.110   .     S
O1520  C1521   1.415   .     S
C1521  H1522   1.112   .     S
C1521  H1523   1.118   .     S
C1521  C1524   1.529   .     S
C1524  H1525   1.110   .     S
C1524  H1526   1.112   .     S
C1524  C1617   1.526   .     S
C1527  H1529   1.111   .     S
C1527  H1530   1.111   .     S
H1528  C1617   1.111   .     S
C1531  O1580   1.292   .     A
C1531  O1577   1.291   .     A
C1531  C1540   1.451   .     S
C1532  O1578   1.291   .     A
C1532  O1579   1.291   .     A
C1532  C1539   1.451   .     S
C1533  C1558   1.400   .     A
C1533  O1599   1.385   .     S
C1534  C1557   1.400   .     A
C1534  O1610   1.388   .     S
C1534  C750    1.395   1_556 S
C1535  H1567   1.083   .     S
C1535  C1540   1.401   .     A
C1536  C1539   1.401   .     A
C1536  H1568   1.083   .     S
C1536  C1358   1.383   1_655 S
C1537  C1539   1.401   .     A
C1537  H1569   1.083   .     S
C1537  C1355   1.383   1_655 S
C1538  C1540   1.401   .     A
C1538  H1570   1.083   .     S
C1541  H1571   1.082   .     S
C1541  N1576   1.367   .     A
C1542  H1572   1.082   .     S
C1542  N1575   1.367   .     A
C1542  C1003   1.416   1_565 S
C1543  N1576   1.367   .     A
C1543  H1573   1.082   .     S
C1544  N1575   1.367   .     A
C1544  H1574   1.082   .     S
C1544  C1001   1.416   1_565 S
C1545  O1581   1.296   .     A
C1545  C1550   1.467   .     S
C1545  O1584   1.296   .     A
C1546  O1583   1.296   .     A
C1546  O1582   1.296   .     A
C1546  C1549   1.467   .     S
C1547  H1563   1.086   .     S
C1547  C1557   1.391   .     A
C1547  C1549   1.390   .     A
C1548  C1558   1.390   .     A
C1548  H1564   1.085   .     S
C1548  C1550   1.390   .     A
C1549  C1551   1.435   .     A
C1550  C1552   1.435   .     A
C1551  C1585   1.533   .     S
C1551  C1553   1.428   .     A
C1552  C1592   1.531   .     S
C1552  C1554   1.428   .     A
C1553  C1559   1.416   .     A
C1553  C1555   1.417   .     A
C1554  C1556   1.417   .     A
C1554  C1560   1.417   .     A
C1555  C1557   1.409   .     A
C1555  C746    1.418   1_556 S
C1556  C1558   1.410   .     A
C1559  H1565   1.080   .     S
C1559  C723    1.391   1_556 S
C1560  H1566   1.078   .     S
Cu1561 O1577   1.964   .     S
Cu1561 O1579   1.964   .     S
Cu1561 O1581   1.975   .     S
Cu1561 Cu1562  2.675   .     S
Cu1561 O1583   1.974   .     S
Cu1561 N1575   2.010   .     S
Cu1562 O1582   1.975   .     S
Cu1562 O1578   1.964   .     S
Cu1562 O1584   1.974   .     S
Cu1562 O1580   1.964   .     S
Cu1562 N1576   2.010   .     S
C1585  C1586   1.504   .     S
C1585  H1590   1.112   .     S
C1585  H1591   1.111   .     S
C1586  H1587   1.107   .     S
C1586  H1589   1.110   .     S
C1586  H1588   1.107   .     S
C1592  H1597   1.112   .     S
C1592  C1593   1.503   .     S
C1592  H1598   1.111   .     S
C1593  H1595   1.108   .     S
C1593  H1596   1.111   .     S
C1593  H1594   1.107   .     S
O1599  C1600   1.418   .     S
C1600  H1601   1.108   .     S
C1600  C1603   1.532   .     S
C1600  H1602   1.118   .     S
C1603  H1605   1.111   .     S
C1603  H1604   1.112   .     S
C1603  C1606   1.525   .     S
C1606  H1607   1.111   .     S
C1606  H1608   1.111   .     S
H1609  C1426   1.110   1_655 S
O1610  C1611   1.415   .     S
C1611  H1612   1.112   .     S
C1611  H1613   1.118   .     S
C1611  C1614   1.529   .     S
C1614  H1615   1.110   .     S
C1614  H1616   1.112   .     S
C1614  C1437   1.526   1_655 S
C1617  H1619   1.111   .     S
C1617  H1620   1.111   .     S
H1618  C1437   1.111   1_655 S
