data_str_m2_o2_o10_pcu_sym.133
_audit_creation_date              2020-01-03
_audit_creation_method            'Materials Studio'
_symmetry_space_group_name_H-M    'P1'
_symmetry_Int_Tables_number       1
_symmetry_cell_setting            triclinic
loop_
_symmetry_equiv_pos_as_xyz
  x,y,z
_cell_length_a                    26.3576
_cell_length_b                    30.1815
_cell_length_c                    27.9736
_cell_angle_alpha                 90.0819
_cell_angle_beta                  97.6781
_cell_angle_gamma                 92.2660
loop_
_atom_site_label
_atom_site_type_symbol
_atom_site_fract_x
_atom_site_fract_y
_atom_site_fract_z
_atom_site_U_iso_or_equiv
_atom_site_adp_type
_atom_site_occupancy
C1     C     0.16683   0.16509   0.24992   0.00000  Uiso   1.00
C2     C     0.16665   0.33485   0.25004   0.00000  Uiso   1.00
C3     C     0.21007   0.26656   0.05912   0.00000  Uiso   1.00
C4     C     0.14735   0.21263   0.44395   0.00000  Uiso   1.00
C5     C     0.20753   0.26904   0.10938   0.00000  Uiso   1.00
C6     C     0.14450   0.21478   0.39303   0.00000  Uiso   1.00
C7     C     0.12643   0.23098   0.09847   0.00000  Uiso   1.00
C8     C     0.18873   0.28482   0.39922   0.00000  Uiso   1.00
C9     C     0.12523   0.23336   0.04814   0.00000  Uiso   1.00
C10    C     0.18621   0.28585   0.44912   0.00000  Uiso   1.00
C11    C     0.16766   0.24975   0.02730   0.00000  Uiso   1.00
C12    C     0.16708   0.24923   0.47290   0.00000  Uiso   1.00
C13    C     0.06810   0.24872   0.23781   0.00000  Uiso   1.00
C14    C     0.26522   0.25125   0.26221   0.00000  Uiso   1.00
C15    C     0.01276   0.24334   0.23202   0.00000  Uiso   1.00
C16    C     0.32056   0.25656   0.26810   0.00000  Uiso   1.00
C17    C     0.13430   0.04528   0.27123   0.00000  Uiso   1.00
C18    C     0.13064   0.45219   0.22253   0.00000  Uiso   1.00
C19    C     0.13257   0.09147   0.27192   0.00000  Uiso   1.00
C20    C     0.12774   0.40618   0.22266   0.00000  Uiso   1.00
C21    C     0.16837   0.11678   0.24952   0.00000  Uiso   1.00
C22    C     0.16714   0.38318   0.25030   0.00000  Uiso   1.00
C23    C     0.20524   0.09630   0.22578   0.00000  Uiso   1.00
C24    C     0.20827   0.40646   0.27808   0.00000  Uiso   1.00
C25    C     0.20632   0.04959   0.22447   0.00000  Uiso   1.00
C26    C     0.20995   0.45324   0.27888   0.00000  Uiso   1.00
C27    C     0.17077   0.02435   0.24818   0.00000  Uiso   1.00
C28    C     0.17090   0.47583   0.25012   0.00000  Uiso   1.00
Cu29   Cu    0.16667   0.25000   0.29822   0.00000  Uiso   1.00
Cu30   Cu    0.16667   0.25001   0.20179   0.00000  Uiso   1.00
H31    H     0.10711   0.02539   0.28878   0.00000  Uiso   1.00
H32    H     0.10072   0.46984   0.20098   0.00000  Uiso   1.00
H33    H     0.09123   0.22074   0.02546   0.00000  Uiso   1.00
H34    H     0.20100   0.31522   0.46939   0.00000  Uiso   1.00
N35    N     0.16667   0.25001   0.12935   0.00000  Uiso   1.00
N36    N     0.16667   0.24999   0.37066   0.00000  Uiso   1.00
O37    O     0.16667   0.18573   0.29072   0.00000  Uiso   1.00
O38    O     0.16666   0.31428   0.20928   0.00000  Uiso   1.00
O39    O     0.16667   0.18573   0.20928   0.00000  Uiso   1.00
O40    O     0.16666   0.31427   0.29072   0.00000  Uiso   1.00
O41    O     0.09161   0.25000   0.28132   0.00000  Uiso   1.00
O42    O     0.24172   0.25001   0.21868   0.00000  Uiso   1.00
O43    O     0.09161   0.25000   0.19988   0.00000  Uiso   1.00
O44    O     0.24172   0.25000   0.30012   0.00000  Uiso   1.00
O45    O     0.32028   0.22221   0.19125   0.00000  Uiso   1.00
H46    H     0.01195   0.21115   0.17112   0.00000  Uiso   1.00
O47    O     0.01299   0.27743   0.30906   0.00000  Uiso   1.00
H48    H     0.32128   0.28811   0.32943   0.00000  Uiso   1.00
O49    O     0.09553   0.11251   0.29305   0.00000  Uiso   1.00
H50    H     0.07337   0.08995   0.30687   0.00000  Uiso   1.00
O51    O     0.08557   0.38546   0.19580   0.00000  Uiso   1.00
H52    H     0.08293   0.35389   0.20487   0.00000  Uiso   1.00
O53    O     0.23988   0.12306   0.20476   0.00000  Uiso   1.00
H54    H     0.26407   0.10469   0.19012   0.00000  Uiso   1.00
O55    O     0.24650   0.38229   0.30339   0.00000  Uiso   1.00
H56    H     0.27343   0.40244   0.32057   0.00000  Uiso   1.00
O57    O     0.24218   0.03017   0.20009   0.00000  Uiso   1.00
H58    H     0.23531   0.49778   0.19736   0.00000  Uiso   1.00
O59    O     0.24986   0.47531   0.30773   0.00000  Uiso   1.00
H60    H     0.24361   0.00732   0.30925   0.00000  Uiso   1.00
N61    N     0.25612   0.28114   0.04075   0.00000  Uiso   1.00
H62    H     0.28627   0.26284   0.05757   0.00000  Uiso   1.00
H63    H     0.26379   0.31451   0.05014   0.00000  Uiso   1.00
N64    N     0.13008   0.17292   0.46595   0.00000  Uiso   1.00
H65    H     0.15096   0.14665   0.45553   0.00000  Uiso   1.00
H66    H     0.09148   0.16656   0.45270   0.00000  Uiso   1.00
O67    O     0.24752   0.29113   0.13722   0.00000  Uiso   1.00
H68    H     0.23274   0.30842   0.16147   0.00000  Uiso   1.00
O69    O     0.11869   0.18036   0.36703   0.00000  Uiso   1.00
H70    H     0.09872   0.19337   0.33857   0.00000  Uiso   1.00
O71    O     0.08616   0.20840   0.11503   0.00000  Uiso   1.00
H72    H     0.10022   0.19239   0.14420   0.00000  Uiso   1.00
O73    O     0.21458   0.31974   0.38076   0.00000  Uiso   1.00
H74    H     0.23324   0.30749   0.35583   0.00000  Uiso   1.00
C75    C     0.50016   0.16509   0.24992   0.00000  Uiso   1.00
C76    C     0.49999   0.33485   0.25004   0.00000  Uiso   1.00
C77    C     0.54340   0.26656   0.05912   0.00000  Uiso   1.00
C78    C     0.48068   0.21263   0.44395   0.00000  Uiso   1.00
C79    C     0.54086   0.26904   0.10938   0.00000  Uiso   1.00
C80    C     0.47784   0.21478   0.39303   0.00000  Uiso   1.00
C81    C     0.45977   0.23098   0.09847   0.00000  Uiso   1.00
C82    C     0.52207   0.28482   0.39922   0.00000  Uiso   1.00
C83    C     0.45856   0.23336   0.04814   0.00000  Uiso   1.00
C84    C     0.51954   0.28585   0.44912   0.00000  Uiso   1.00
C85    C     0.50099   0.24975   0.02730   0.00000  Uiso   1.00
C86    C     0.50042   0.24923   0.47290   0.00000  Uiso   1.00
C87    C     0.40143   0.24872   0.23781   0.00000  Uiso   1.00
C88    C     0.59856   0.25125   0.26221   0.00000  Uiso   1.00
C89    C     0.34609   0.24334   0.23202   0.00000  Uiso   1.00
C90    C     0.65389   0.25656   0.26810   0.00000  Uiso   1.00
C91    C     0.46764   0.04528   0.27123   0.00000  Uiso   1.00
C92    C     0.46397   0.45219   0.22253   0.00000  Uiso   1.00
C93    C     0.46591   0.09147   0.27192   0.00000  Uiso   1.00
C94    C     0.46108   0.40618   0.22266   0.00000  Uiso   1.00
C95    C     0.50170   0.11678   0.24952   0.00000  Uiso   1.00
C96    C     0.50048   0.38318   0.25030   0.00000  Uiso   1.00
C97    C     0.53857   0.09630   0.22578   0.00000  Uiso   1.00
C98    C     0.54160   0.40646   0.27808   0.00000  Uiso   1.00
C99    C     0.53965   0.04959   0.22447   0.00000  Uiso   1.00
C100   C     0.54329   0.45324   0.27888   0.00000  Uiso   1.00
C101   C     0.50410   0.02435   0.24818   0.00000  Uiso   1.00
C102   C     0.50424   0.47583   0.25012   0.00000  Uiso   1.00
Cu103  Cu    0.50000   0.25000   0.29822   0.00000  Uiso   1.00
Cu104  Cu    0.50000   0.25001   0.20179   0.00000  Uiso   1.00
H105   H     0.44045   0.02539   0.28878   0.00000  Uiso   1.00
H106   H     0.43405   0.46984   0.20098   0.00000  Uiso   1.00
H107   H     0.42456   0.22074   0.02546   0.00000  Uiso   1.00
H108   H     0.53434   0.31522   0.46939   0.00000  Uiso   1.00
N109   N     0.50000   0.25001   0.12935   0.00000  Uiso   1.00
N110   N     0.50000   0.24999   0.37066   0.00000  Uiso   1.00
O111   O     0.50000   0.18573   0.29072   0.00000  Uiso   1.00
O112   O     0.50000   0.31428   0.20928   0.00000  Uiso   1.00
O113   O     0.50000   0.18573   0.20928   0.00000  Uiso   1.00
O114   O     0.50000   0.31427   0.29072   0.00000  Uiso   1.00
O115   O     0.42495   0.25000   0.28132   0.00000  Uiso   1.00
O116   O     0.57505   0.25001   0.21868   0.00000  Uiso   1.00
O117   O     0.42495   0.25000   0.19988   0.00000  Uiso   1.00
O118   O     0.57505   0.25000   0.30012   0.00000  Uiso   1.00
O119   O     0.65361   0.22221   0.19125   0.00000  Uiso   1.00
H120   H     0.34528   0.21115   0.17112   0.00000  Uiso   1.00
O121   O     0.34633   0.27743   0.30906   0.00000  Uiso   1.00
H122   H     0.65462   0.28811   0.32943   0.00000  Uiso   1.00
O123   O     0.42886   0.11251   0.29305   0.00000  Uiso   1.00
H124   H     0.40671   0.08995   0.30687   0.00000  Uiso   1.00
O125   O     0.41891   0.38546   0.19580   0.00000  Uiso   1.00
H126   H     0.41626   0.35389   0.20487   0.00000  Uiso   1.00
O127   O     0.57321   0.12306   0.20476   0.00000  Uiso   1.00
H128   H     0.59741   0.10469   0.19012   0.00000  Uiso   1.00
O129   O     0.57983   0.38229   0.30339   0.00000  Uiso   1.00
H130   H     0.60676   0.40244   0.32057   0.00000  Uiso   1.00
O131   O     0.57552   0.03017   0.20009   0.00000  Uiso   1.00
H132   H     0.56864   0.49778   0.19736   0.00000  Uiso   1.00
O133   O     0.58319   0.47531   0.30773   0.00000  Uiso   1.00
H134   H     0.57694   0.00732   0.30925   0.00000  Uiso   1.00
N135   N     0.58945   0.28114   0.04075   0.00000  Uiso   1.00
H136   H     0.61960   0.26284   0.05757   0.00000  Uiso   1.00
H137   H     0.59713   0.31451   0.05014   0.00000  Uiso   1.00
N138   N     0.46342   0.17292   0.46595   0.00000  Uiso   1.00
H139   H     0.48430   0.14665   0.45553   0.00000  Uiso   1.00
H140   H     0.42481   0.16656   0.45270   0.00000  Uiso   1.00
O141   O     0.58085   0.29113   0.13722   0.00000  Uiso   1.00
H142   H     0.56607   0.30842   0.16147   0.00000  Uiso   1.00
O143   O     0.45202   0.18036   0.36703   0.00000  Uiso   1.00
H144   H     0.43206   0.19337   0.33857   0.00000  Uiso   1.00
O145   O     0.41950   0.20840   0.11503   0.00000  Uiso   1.00
H146   H     0.43355   0.19239   0.14420   0.00000  Uiso   1.00
O147   O     0.54791   0.31974   0.38076   0.00000  Uiso   1.00
H148   H     0.56657   0.30749   0.35583   0.00000  Uiso   1.00
C149   C     0.83349   0.16509   0.24992   0.00000  Uiso   1.00
C150   C     0.83332   0.33485   0.25004   0.00000  Uiso   1.00
C151   C     0.87673   0.26656   0.05912   0.00000  Uiso   1.00
C152   C     0.81401   0.21263   0.44395   0.00000  Uiso   1.00
C153   C     0.87420   0.26904   0.10938   0.00000  Uiso   1.00
C154   C     0.81117   0.21478   0.39303   0.00000  Uiso   1.00
C155   C     0.79310   0.23098   0.09847   0.00000  Uiso   1.00
C156   C     0.85540   0.28482   0.39922   0.00000  Uiso   1.00
C157   C     0.79190   0.23336   0.04814   0.00000  Uiso   1.00
C158   C     0.85288   0.28585   0.44912   0.00000  Uiso   1.00
C159   C     0.83433   0.24975   0.02730   0.00000  Uiso   1.00
C160   C     0.83375   0.24923   0.47290   0.00000  Uiso   1.00
C161   C     0.73477   0.24872   0.23781   0.00000  Uiso   1.00
C162   C     0.93189   0.25125   0.26221   0.00000  Uiso   1.00
C163   C     0.67943   0.24334   0.23202   0.00000  Uiso   1.00
C164   C     0.98722   0.25656   0.26810   0.00000  Uiso   1.00
C165   C     0.80097   0.04528   0.27123   0.00000  Uiso   1.00
C166   C     0.79731   0.45219   0.22253   0.00000  Uiso   1.00
C167   C     0.79924   0.09147   0.27192   0.00000  Uiso   1.00
C168   C     0.79441   0.40618   0.22266   0.00000  Uiso   1.00
C169   C     0.83503   0.11678   0.24952   0.00000  Uiso   1.00
C170   C     0.83381   0.38318   0.25030   0.00000  Uiso   1.00
C171   C     0.87191   0.09630   0.22578   0.00000  Uiso   1.00
C172   C     0.87494   0.40646   0.27808   0.00000  Uiso   1.00
C173   C     0.87298   0.04959   0.22447   0.00000  Uiso   1.00
C174   C     0.87662   0.45324   0.27888   0.00000  Uiso   1.00
C175   C     0.83744   0.02435   0.24818   0.00000  Uiso   1.00
C176   C     0.83757   0.47583   0.25012   0.00000  Uiso   1.00
Cu177  Cu    0.83333   0.25000   0.29822   0.00000  Uiso   1.00
Cu178  Cu    0.83333   0.25001   0.20179   0.00000  Uiso   1.00
H179   H     0.77378   0.02539   0.28878   0.00000  Uiso   1.00
H180   H     0.76739   0.46984   0.20098   0.00000  Uiso   1.00
H181   H     0.75789   0.22074   0.02546   0.00000  Uiso   1.00
H182   H     0.86767   0.31522   0.46939   0.00000  Uiso   1.00
N183   N     0.83333   0.25001   0.12935   0.00000  Uiso   1.00
N184   N     0.83333   0.24999   0.37066   0.00000  Uiso   1.00
O185   O     0.83334   0.18573   0.29072   0.00000  Uiso   1.00
O186   O     0.83333   0.31428   0.20928   0.00000  Uiso   1.00
O187   O     0.83334   0.18573   0.20928   0.00000  Uiso   1.00
O188   O     0.83333   0.31427   0.29072   0.00000  Uiso   1.00
O189   O     0.75828   0.25000   0.28132   0.00000  Uiso   1.00
O190   O     0.90839   0.25001   0.21868   0.00000  Uiso   1.00
O191   O     0.75828   0.25000   0.19988   0.00000  Uiso   1.00
O192   O     0.90839   0.25000   0.30012   0.00000  Uiso   1.00
O193   O     0.98694   0.22221   0.19125   0.00000  Uiso   1.00
H194   H     0.67861   0.21115   0.17112   0.00000  Uiso   1.00
O195   O     0.67966   0.27743   0.30906   0.00000  Uiso   1.00
H196   H     0.98795   0.28811   0.32943   0.00000  Uiso   1.00
O197   O     0.76220   0.11251   0.29305   0.00000  Uiso   1.00
H198   H     0.74004   0.08995   0.30687   0.00000  Uiso   1.00
O199   O     0.75224   0.38546   0.19580   0.00000  Uiso   1.00
H200   H     0.74959   0.35389   0.20487   0.00000  Uiso   1.00
O201   O     0.90655   0.12306   0.20476   0.00000  Uiso   1.00
H202   H     0.93074   0.10469   0.19012   0.00000  Uiso   1.00
O203   O     0.91317   0.38229   0.30339   0.00000  Uiso   1.00
H204   H     0.94009   0.40244   0.32057   0.00000  Uiso   1.00
O205   O     0.90885   0.03017   0.20009   0.00000  Uiso   1.00
H206   H     0.90197   0.49778   0.19736   0.00000  Uiso   1.00
O207   O     0.91652   0.47531   0.30773   0.00000  Uiso   1.00
H208   H     0.91027   0.00732   0.30925   0.00000  Uiso   1.00
N209   N     0.92279   0.28114   0.04075   0.00000  Uiso   1.00
H210   H     0.95293   0.26284   0.05757   0.00000  Uiso   1.00
H211   H     0.93046   0.31451   0.05014   0.00000  Uiso   1.00
N212   N     0.79675   0.17292   0.46595   0.00000  Uiso   1.00
H213   H     0.81763   0.14665   0.45553   0.00000  Uiso   1.00
H214   H     0.75814   0.16656   0.45270   0.00000  Uiso   1.00
O215   O     0.91419   0.29113   0.13722   0.00000  Uiso   1.00
H216   H     0.89941   0.30842   0.16147   0.00000  Uiso   1.00
O217   O     0.78535   0.18036   0.36703   0.00000  Uiso   1.00
H218   H     0.76539   0.19337   0.33857   0.00000  Uiso   1.00
O219   O     0.75283   0.20840   0.11503   0.00000  Uiso   1.00
H220   H     0.76688   0.19239   0.14420   0.00000  Uiso   1.00
O221   O     0.88125   0.31974   0.38076   0.00000  Uiso   1.00
H222   H     0.89991   0.30749   0.35583   0.00000  Uiso   1.00
C223   C     0.16683   0.66509   0.24992   0.00000  Uiso   1.00
C224   C     0.16665   0.83485   0.25004   0.00000  Uiso   1.00
C225   C     0.21007   0.76656   0.05912   0.00000  Uiso   1.00
C226   C     0.14735   0.71263   0.44395   0.00000  Uiso   1.00
C227   C     0.20753   0.76904   0.10938   0.00000  Uiso   1.00
C228   C     0.14450   0.71478   0.39303   0.00000  Uiso   1.00
C229   C     0.12643   0.73098   0.09847   0.00000  Uiso   1.00
C230   C     0.18873   0.78482   0.39922   0.00000  Uiso   1.00
C231   C     0.12523   0.73336   0.04814   0.00000  Uiso   1.00
C232   C     0.18621   0.78585   0.44912   0.00000  Uiso   1.00
C233   C     0.16766   0.74975   0.02730   0.00000  Uiso   1.00
C234   C     0.16708   0.74923   0.47290   0.00000  Uiso   1.00
C235   C     0.06810   0.74872   0.23781   0.00000  Uiso   1.00
C236   C     0.26522   0.75125   0.26221   0.00000  Uiso   1.00
C237   C     0.01276   0.74334   0.23202   0.00000  Uiso   1.00
C238   C     0.32056   0.75656   0.26810   0.00000  Uiso   1.00
C239   C     0.13430   0.54528   0.27123   0.00000  Uiso   1.00
C240   C     0.13064   0.95219   0.22253   0.00000  Uiso   1.00
C241   C     0.13257   0.59147   0.27192   0.00000  Uiso   1.00
C242   C     0.12774   0.90618   0.22266   0.00000  Uiso   1.00
C243   C     0.16837   0.61678   0.24952   0.00000  Uiso   1.00
C244   C     0.16714   0.88318   0.25030   0.00000  Uiso   1.00
C245   C     0.20524   0.59630   0.22578   0.00000  Uiso   1.00
C246   C     0.20827   0.90646   0.27808   0.00000  Uiso   1.00
C247   C     0.20632   0.54959   0.22447   0.00000  Uiso   1.00
C248   C     0.20995   0.95324   0.27888   0.00000  Uiso   1.00
C249   C     0.17077   0.52435   0.24818   0.00000  Uiso   1.00
C250   C     0.17090   0.97583   0.25012   0.00000  Uiso   1.00
Cu251  Cu    0.16667   0.75000   0.29822   0.00000  Uiso   1.00
Cu252  Cu    0.16667   0.75001   0.20179   0.00000  Uiso   1.00
H253   H     0.10711   0.52539   0.28878   0.00000  Uiso   1.00
H254   H     0.10072   0.96984   0.20098   0.00000  Uiso   1.00
H255   H     0.09123   0.72074   0.02546   0.00000  Uiso   1.00
H256   H     0.20100   0.81522   0.46939   0.00000  Uiso   1.00
N257   N     0.16667   0.75001   0.12935   0.00000  Uiso   1.00
N258   N     0.16667   0.74999   0.37066   0.00000  Uiso   1.00
O259   O     0.16667   0.68573   0.29072   0.00000  Uiso   1.00
O260   O     0.16666   0.81428   0.20928   0.00000  Uiso   1.00
O261   O     0.16667   0.68573   0.20928   0.00000  Uiso   1.00
O262   O     0.16666   0.81427   0.29072   0.00000  Uiso   1.00
O263   O     0.09161   0.75000   0.28132   0.00000  Uiso   1.00
O264   O     0.24172   0.75001   0.21868   0.00000  Uiso   1.00
O265   O     0.09161   0.75000   0.19988   0.00000  Uiso   1.00
O266   O     0.24172   0.75000   0.30012   0.00000  Uiso   1.00
O267   O     0.32028   0.72221   0.19125   0.00000  Uiso   1.00
H268   H     0.01195   0.71115   0.17112   0.00000  Uiso   1.00
O269   O     0.01299   0.77743   0.30906   0.00000  Uiso   1.00
H270   H     0.32128   0.78811   0.32943   0.00000  Uiso   1.00
O271   O     0.09553   0.61251   0.29305   0.00000  Uiso   1.00
H272   H     0.07337   0.58995   0.30687   0.00000  Uiso   1.00
O273   O     0.08557   0.88546   0.19580   0.00000  Uiso   1.00
H274   H     0.08293   0.85389   0.20487   0.00000  Uiso   1.00
O275   O     0.23988   0.62306   0.20476   0.00000  Uiso   1.00
H276   H     0.26407   0.60469   0.19012   0.00000  Uiso   1.00
O277   O     0.24650   0.88229   0.30339   0.00000  Uiso   1.00
H278   H     0.27343   0.90244   0.32057   0.00000  Uiso   1.00
O279   O     0.24218   0.53017   0.20009   0.00000  Uiso   1.00
H280   H     0.23531   0.99778   0.19736   0.00000  Uiso   1.00
O281   O     0.24986   0.97531   0.30773   0.00000  Uiso   1.00
H282   H     0.24361   0.50732   0.30925   0.00000  Uiso   1.00
N283   N     0.25612   0.78114   0.04075   0.00000  Uiso   1.00
H284   H     0.28627   0.76284   0.05757   0.00000  Uiso   1.00
H285   H     0.26379   0.81451   0.05014   0.00000  Uiso   1.00
N286   N     0.13008   0.67292   0.46595   0.00000  Uiso   1.00
H287   H     0.15096   0.64665   0.45553   0.00000  Uiso   1.00
H288   H     0.09148   0.66656   0.45270   0.00000  Uiso   1.00
O289   O     0.24752   0.79113   0.13722   0.00000  Uiso   1.00
H290   H     0.23274   0.80842   0.16147   0.00000  Uiso   1.00
O291   O     0.11869   0.68036   0.36703   0.00000  Uiso   1.00
H292   H     0.09872   0.69337   0.33857   0.00000  Uiso   1.00
O293   O     0.08616   0.70840   0.11503   0.00000  Uiso   1.00
H294   H     0.10022   0.69239   0.14420   0.00000  Uiso   1.00
O295   O     0.21458   0.81974   0.38076   0.00000  Uiso   1.00
H296   H     0.23324   0.80749   0.35583   0.00000  Uiso   1.00
C297   C     0.50016   0.66509   0.24992   0.00000  Uiso   1.00
C298   C     0.49999   0.83485   0.25004   0.00000  Uiso   1.00
C299   C     0.54340   0.76656   0.05912   0.00000  Uiso   1.00
C300   C     0.48068   0.71263   0.44395   0.00000  Uiso   1.00
C301   C     0.54086   0.76904   0.10938   0.00000  Uiso   1.00
C302   C     0.47784   0.71478   0.39303   0.00000  Uiso   1.00
C303   C     0.45977   0.73098   0.09847   0.00000  Uiso   1.00
C304   C     0.52207   0.78482   0.39922   0.00000  Uiso   1.00
C305   C     0.45856   0.73336   0.04814   0.00000  Uiso   1.00
C306   C     0.51954   0.78585   0.44912   0.00000  Uiso   1.00
C307   C     0.50099   0.74975   0.02730   0.00000  Uiso   1.00
C308   C     0.50042   0.74923   0.47290   0.00000  Uiso   1.00
C309   C     0.40143   0.74872   0.23781   0.00000  Uiso   1.00
C310   C     0.59856   0.75125   0.26221   0.00000  Uiso   1.00
C311   C     0.34609   0.74334   0.23202   0.00000  Uiso   1.00
C312   C     0.65389   0.75656   0.26810   0.00000  Uiso   1.00
C313   C     0.46764   0.54528   0.27123   0.00000  Uiso   1.00
C314   C     0.46397   0.95219   0.22253   0.00000  Uiso   1.00
C315   C     0.46591   0.59147   0.27192   0.00000  Uiso   1.00
C316   C     0.46108   0.90618   0.22266   0.00000  Uiso   1.00
C317   C     0.50170   0.61678   0.24952   0.00000  Uiso   1.00
C318   C     0.50048   0.88318   0.25030   0.00000  Uiso   1.00
C319   C     0.53857   0.59630   0.22578   0.00000  Uiso   1.00
C320   C     0.54160   0.90646   0.27808   0.00000  Uiso   1.00
C321   C     0.53965   0.54959   0.22447   0.00000  Uiso   1.00
C322   C     0.54329   0.95324   0.27888   0.00000  Uiso   1.00
C323   C     0.50410   0.52435   0.24818   0.00000  Uiso   1.00
C324   C     0.50424   0.97583   0.25012   0.00000  Uiso   1.00
Cu325  Cu    0.50000   0.75000   0.29822   0.00000  Uiso   1.00
Cu326  Cu    0.50000   0.75001   0.20179   0.00000  Uiso   1.00
H327   H     0.44045   0.52539   0.28878   0.00000  Uiso   1.00
H328   H     0.43405   0.96984   0.20098   0.00000  Uiso   1.00
H329   H     0.42456   0.72074   0.02546   0.00000  Uiso   1.00
H330   H     0.53434   0.81522   0.46939   0.00000  Uiso   1.00
N331   N     0.50000   0.75001   0.12935   0.00000  Uiso   1.00
N332   N     0.50000   0.74999   0.37066   0.00000  Uiso   1.00
O333   O     0.50000   0.68573   0.29072   0.00000  Uiso   1.00
O334   O     0.50000   0.81428   0.20928   0.00000  Uiso   1.00
O335   O     0.50000   0.68573   0.20928   0.00000  Uiso   1.00
O336   O     0.50000   0.81427   0.29072   0.00000  Uiso   1.00
O337   O     0.42495   0.75000   0.28132   0.00000  Uiso   1.00
O338   O     0.57505   0.75001   0.21868   0.00000  Uiso   1.00
O339   O     0.42495   0.75000   0.19988   0.00000  Uiso   1.00
O340   O     0.57505   0.75000   0.30012   0.00000  Uiso   1.00
O341   O     0.65361   0.72221   0.19125   0.00000  Uiso   1.00
H342   H     0.34528   0.71115   0.17112   0.00000  Uiso   1.00
O343   O     0.34633   0.77743   0.30906   0.00000  Uiso   1.00
H344   H     0.65462   0.78811   0.32943   0.00000  Uiso   1.00
O345   O     0.42886   0.61251   0.29305   0.00000  Uiso   1.00
H346   H     0.40671   0.58995   0.30687   0.00000  Uiso   1.00
O347   O     0.41891   0.88546   0.19580   0.00000  Uiso   1.00
H348   H     0.41626   0.85389   0.20487   0.00000  Uiso   1.00
O349   O     0.57321   0.62306   0.20476   0.00000  Uiso   1.00
H350   H     0.59741   0.60469   0.19012   0.00000  Uiso   1.00
O351   O     0.57983   0.88229   0.30339   0.00000  Uiso   1.00
H352   H     0.60676   0.90244   0.32057   0.00000  Uiso   1.00
O353   O     0.57552   0.53017   0.20009   0.00000  Uiso   1.00
H354   H     0.56864   0.99778   0.19736   0.00000  Uiso   1.00
O355   O     0.58319   0.97531   0.30773   0.00000  Uiso   1.00
H356   H     0.57694   0.50732   0.30925   0.00000  Uiso   1.00
N357   N     0.58945   0.78114   0.04075   0.00000  Uiso   1.00
H358   H     0.61960   0.76284   0.05757   0.00000  Uiso   1.00
H359   H     0.59713   0.81451   0.05014   0.00000  Uiso   1.00
N360   N     0.46342   0.67292   0.46595   0.00000  Uiso   1.00
H361   H     0.48430   0.64665   0.45553   0.00000  Uiso   1.00
H362   H     0.42481   0.66656   0.45270   0.00000  Uiso   1.00
O363   O     0.58085   0.79113   0.13722   0.00000  Uiso   1.00
H364   H     0.56607   0.80842   0.16147   0.00000  Uiso   1.00
O365   O     0.45202   0.68036   0.36703   0.00000  Uiso   1.00
H366   H     0.43206   0.69337   0.33857   0.00000  Uiso   1.00
O367   O     0.41950   0.70840   0.11503   0.00000  Uiso   1.00
H368   H     0.43355   0.69239   0.14420   0.00000  Uiso   1.00
O369   O     0.54791   0.81974   0.38076   0.00000  Uiso   1.00
H370   H     0.56657   0.80749   0.35583   0.00000  Uiso   1.00
C371   C     0.83349   0.66509   0.24992   0.00000  Uiso   1.00
C372   C     0.83332   0.83485   0.25004   0.00000  Uiso   1.00
C373   C     0.87673   0.76656   0.05912   0.00000  Uiso   1.00
C374   C     0.81401   0.71263   0.44395   0.00000  Uiso   1.00
C375   C     0.87420   0.76904   0.10938   0.00000  Uiso   1.00
C376   C     0.81117   0.71478   0.39303   0.00000  Uiso   1.00
C377   C     0.79310   0.73098   0.09847   0.00000  Uiso   1.00
C378   C     0.85540   0.78482   0.39922   0.00000  Uiso   1.00
C379   C     0.79190   0.73336   0.04814   0.00000  Uiso   1.00
C380   C     0.85288   0.78585   0.44912   0.00000  Uiso   1.00
C381   C     0.83433   0.74975   0.02730   0.00000  Uiso   1.00
C382   C     0.83375   0.74923   0.47290   0.00000  Uiso   1.00
C383   C     0.73477   0.74872   0.23781   0.00000  Uiso   1.00
C384   C     0.93189   0.75125   0.26221   0.00000  Uiso   1.00
C385   C     0.67943   0.74334   0.23202   0.00000  Uiso   1.00
C386   C     0.98722   0.75656   0.26810   0.00000  Uiso   1.00
C387   C     0.80097   0.54528   0.27123   0.00000  Uiso   1.00
C388   C     0.79731   0.95219   0.22253   0.00000  Uiso   1.00
C389   C     0.79924   0.59147   0.27192   0.00000  Uiso   1.00
C390   C     0.79441   0.90618   0.22266   0.00000  Uiso   1.00
C391   C     0.83503   0.61678   0.24952   0.00000  Uiso   1.00
C392   C     0.83381   0.88318   0.25030   0.00000  Uiso   1.00
C393   C     0.87191   0.59630   0.22578   0.00000  Uiso   1.00
C394   C     0.87494   0.90646   0.27808   0.00000  Uiso   1.00
C395   C     0.87298   0.54959   0.22447   0.00000  Uiso   1.00
C396   C     0.87662   0.95324   0.27888   0.00000  Uiso   1.00
C397   C     0.83744   0.52435   0.24818   0.00000  Uiso   1.00
C398   C     0.83757   0.97583   0.25012   0.00000  Uiso   1.00
Cu399  Cu    0.83333   0.75000   0.29822   0.00000  Uiso   1.00
Cu400  Cu    0.83333   0.75001   0.20179   0.00000  Uiso   1.00
H401   H     0.77378   0.52539   0.28878   0.00000  Uiso   1.00
H402   H     0.76739   0.96984   0.20098   0.00000  Uiso   1.00
H403   H     0.75789   0.72074   0.02546   0.00000  Uiso   1.00
H404   H     0.86767   0.81522   0.46939   0.00000  Uiso   1.00
N405   N     0.83333   0.75001   0.12935   0.00000  Uiso   1.00
N406   N     0.83333   0.74999   0.37066   0.00000  Uiso   1.00
O407   O     0.83334   0.68573   0.29072   0.00000  Uiso   1.00
O408   O     0.83333   0.81428   0.20928   0.00000  Uiso   1.00
O409   O     0.83334   0.68573   0.20928   0.00000  Uiso   1.00
O410   O     0.83333   0.81427   0.29072   0.00000  Uiso   1.00
O411   O     0.75828   0.75000   0.28132   0.00000  Uiso   1.00
O412   O     0.90839   0.75001   0.21868   0.00000  Uiso   1.00
O413   O     0.75828   0.75000   0.19988   0.00000  Uiso   1.00
O414   O     0.90839   0.75000   0.30012   0.00000  Uiso   1.00
O415   O     0.98694   0.72221   0.19125   0.00000  Uiso   1.00
H416   H     0.67861   0.71115   0.17112   0.00000  Uiso   1.00
O417   O     0.67966   0.77743   0.30906   0.00000  Uiso   1.00
H418   H     0.98795   0.78811   0.32943   0.00000  Uiso   1.00
O419   O     0.76220   0.61251   0.29305   0.00000  Uiso   1.00
H420   H     0.74004   0.58995   0.30687   0.00000  Uiso   1.00
O421   O     0.75224   0.88546   0.19580   0.00000  Uiso   1.00
H422   H     0.74959   0.85389   0.20487   0.00000  Uiso   1.00
O423   O     0.90655   0.62306   0.20476   0.00000  Uiso   1.00
H424   H     0.93074   0.60469   0.19012   0.00000  Uiso   1.00
O425   O     0.91317   0.88229   0.30339   0.00000  Uiso   1.00
H426   H     0.94009   0.90244   0.32057   0.00000  Uiso   1.00
O427   O     0.90885   0.53017   0.20009   0.00000  Uiso   1.00
H428   H     0.90197   0.99778   0.19736   0.00000  Uiso   1.00
O429   O     0.91652   0.97531   0.30773   0.00000  Uiso   1.00
H430   H     0.91027   0.50732   0.30925   0.00000  Uiso   1.00
N431   N     0.92279   0.78114   0.04075   0.00000  Uiso   1.00
H432   H     0.95293   0.76284   0.05757   0.00000  Uiso   1.00
H433   H     0.93046   0.81451   0.05014   0.00000  Uiso   1.00
N434   N     0.79675   0.67292   0.46595   0.00000  Uiso   1.00
H435   H     0.81763   0.64665   0.45553   0.00000  Uiso   1.00
H436   H     0.75814   0.66656   0.45270   0.00000  Uiso   1.00
O437   O     0.91419   0.79113   0.13722   0.00000  Uiso   1.00
H438   H     0.89941   0.80842   0.16147   0.00000  Uiso   1.00
O439   O     0.78535   0.68036   0.36703   0.00000  Uiso   1.00
H440   H     0.76539   0.69337   0.33857   0.00000  Uiso   1.00
O441   O     0.75283   0.70840   0.11503   0.00000  Uiso   1.00
H442   H     0.76688   0.69239   0.14420   0.00000  Uiso   1.00
O443   O     0.88125   0.81974   0.38076   0.00000  Uiso   1.00
H444   H     0.89991   0.80749   0.35583   0.00000  Uiso   1.00
C445   C     0.16683   0.16509   0.74992   0.00000  Uiso   1.00
C446   C     0.16665   0.33485   0.75004   0.00000  Uiso   1.00
C447   C     0.21007   0.26656   0.55912   0.00000  Uiso   1.00
C448   C     0.14735   0.21263   0.94395   0.00000  Uiso   1.00
C449   C     0.20753   0.26904   0.60938   0.00000  Uiso   1.00
C450   C     0.14450   0.21478   0.89303   0.00000  Uiso   1.00
C451   C     0.12643   0.23098   0.59847   0.00000  Uiso   1.00
C452   C     0.18873   0.28482   0.89922   0.00000  Uiso   1.00
C453   C     0.12523   0.23336   0.54814   0.00000  Uiso   1.00
C454   C     0.18621   0.28585   0.94912   0.00000  Uiso   1.00
C455   C     0.16766   0.24975   0.52730   0.00000  Uiso   1.00
C456   C     0.16708   0.24923   0.97290   0.00000  Uiso   1.00
C457   C     0.06810   0.24872   0.73781   0.00000  Uiso   1.00
C458   C     0.26522   0.25125   0.76221   0.00000  Uiso   1.00
C459   C     0.01276   0.24334   0.73202   0.00000  Uiso   1.00
C460   C     0.32056   0.25656   0.76810   0.00000  Uiso   1.00
C461   C     0.13430   0.04528   0.77123   0.00000  Uiso   1.00
C462   C     0.13064   0.45219   0.72253   0.00000  Uiso   1.00
C463   C     0.13257   0.09147   0.77192   0.00000  Uiso   1.00
C464   C     0.12774   0.40618   0.72266   0.00000  Uiso   1.00
C465   C     0.16837   0.11678   0.74952   0.00000  Uiso   1.00
C466   C     0.16714   0.38318   0.75030   0.00000  Uiso   1.00
C467   C     0.20524   0.09630   0.72578   0.00000  Uiso   1.00
C468   C     0.20827   0.40646   0.77808   0.00000  Uiso   1.00
C469   C     0.20632   0.04959   0.72447   0.00000  Uiso   1.00
C470   C     0.20995   0.45324   0.77888   0.00000  Uiso   1.00
C471   C     0.17077   0.02435   0.74818   0.00000  Uiso   1.00
C472   C     0.17090   0.47583   0.75012   0.00000  Uiso   1.00
Cu473  Cu    0.16667   0.25000   0.79822   0.00000  Uiso   1.00
Cu474  Cu    0.16667   0.25001   0.70179   0.00000  Uiso   1.00
H475   H     0.10711   0.02539   0.78878   0.00000  Uiso   1.00
H476   H     0.10072   0.46984   0.70098   0.00000  Uiso   1.00
H477   H     0.09123   0.22074   0.52546   0.00000  Uiso   1.00
H478   H     0.20100   0.31522   0.96939   0.00000  Uiso   1.00
N479   N     0.16667   0.25001   0.62935   0.00000  Uiso   1.00
N480   N     0.16667   0.24999   0.87066   0.00000  Uiso   1.00
O481   O     0.16667   0.18573   0.79072   0.00000  Uiso   1.00
O482   O     0.16666   0.31428   0.70928   0.00000  Uiso   1.00
O483   O     0.16667   0.18573   0.70928   0.00000  Uiso   1.00
O484   O     0.16666   0.31427   0.79072   0.00000  Uiso   1.00
O485   O     0.09161   0.25000   0.78132   0.00000  Uiso   1.00
O486   O     0.24172   0.25001   0.71868   0.00000  Uiso   1.00
O487   O     0.09161   0.25000   0.69988   0.00000  Uiso   1.00
O488   O     0.24172   0.25000   0.80012   0.00000  Uiso   1.00
O489   O     0.32028   0.22221   0.69125   0.00000  Uiso   1.00
H490   H     0.01195   0.21115   0.67112   0.00000  Uiso   1.00
O491   O     0.01299   0.27743   0.80906   0.00000  Uiso   1.00
H492   H     0.32128   0.28811   0.82943   0.00000  Uiso   1.00
O493   O     0.09553   0.11251   0.79305   0.00000  Uiso   1.00
H494   H     0.07337   0.08995   0.80687   0.00000  Uiso   1.00
O495   O     0.08557   0.38546   0.69580   0.00000  Uiso   1.00
H496   H     0.08293   0.35389   0.70487   0.00000  Uiso   1.00
O497   O     0.23988   0.12306   0.70476   0.00000  Uiso   1.00
H498   H     0.26407   0.10469   0.69012   0.00000  Uiso   1.00
O499   O     0.24650   0.38229   0.80339   0.00000  Uiso   1.00
H500   H     0.27343   0.40244   0.82057   0.00000  Uiso   1.00
O501   O     0.24218   0.03017   0.70009   0.00000  Uiso   1.00
H502   H     0.23531   0.49778   0.69736   0.00000  Uiso   1.00
O503   O     0.24986   0.47531   0.80773   0.00000  Uiso   1.00
H504   H     0.24361   0.00732   0.80925   0.00000  Uiso   1.00
N505   N     0.25612   0.28114   0.54075   0.00000  Uiso   1.00
H506   H     0.28627   0.26284   0.55757   0.00000  Uiso   1.00
H507   H     0.26379   0.31451   0.55014   0.00000  Uiso   1.00
N508   N     0.13008   0.17292   0.96595   0.00000  Uiso   1.00
H509   H     0.15096   0.14665   0.95553   0.00000  Uiso   1.00
H510   H     0.09148   0.16656   0.95270   0.00000  Uiso   1.00
O511   O     0.24752   0.29113   0.63722   0.00000  Uiso   1.00
H512   H     0.23274   0.30842   0.66147   0.00000  Uiso   1.00
O513   O     0.11869   0.18036   0.86703   0.00000  Uiso   1.00
H514   H     0.09872   0.19337   0.83857   0.00000  Uiso   1.00
O515   O     0.08616   0.20840   0.61503   0.00000  Uiso   1.00
H516   H     0.10022   0.19239   0.64420   0.00000  Uiso   1.00
O517   O     0.21458   0.31974   0.88076   0.00000  Uiso   1.00
H518   H     0.23324   0.30749   0.85583   0.00000  Uiso   1.00
C519   C     0.50016   0.16509   0.74992   0.00000  Uiso   1.00
C520   C     0.49999   0.33485   0.75004   0.00000  Uiso   1.00
C521   C     0.54340   0.26656   0.55912   0.00000  Uiso   1.00
C522   C     0.48068   0.21263   0.94395   0.00000  Uiso   1.00
C523   C     0.54086   0.26904   0.60938   0.00000  Uiso   1.00
C524   C     0.47784   0.21478   0.89303   0.00000  Uiso   1.00
C525   C     0.45977   0.23098   0.59847   0.00000  Uiso   1.00
C526   C     0.52207   0.28482   0.89922   0.00000  Uiso   1.00
C527   C     0.45856   0.23336   0.54814   0.00000  Uiso   1.00
C528   C     0.51954   0.28585   0.94912   0.00000  Uiso   1.00
C529   C     0.50099   0.24975   0.52730   0.00000  Uiso   1.00
C530   C     0.50042   0.24923   0.97290   0.00000  Uiso   1.00
C531   C     0.40143   0.24872   0.73781   0.00000  Uiso   1.00
C532   C     0.59856   0.25125   0.76221   0.00000  Uiso   1.00
C533   C     0.34609   0.24334   0.73202   0.00000  Uiso   1.00
C534   C     0.65389   0.25656   0.76810   0.00000  Uiso   1.00
C535   C     0.46764   0.04528   0.77123   0.00000  Uiso   1.00
C536   C     0.46397   0.45219   0.72253   0.00000  Uiso   1.00
C537   C     0.46591   0.09147   0.77192   0.00000  Uiso   1.00
C538   C     0.46108   0.40618   0.72266   0.00000  Uiso   1.00
C539   C     0.50170   0.11678   0.74952   0.00000  Uiso   1.00
C540   C     0.50048   0.38318   0.75030   0.00000  Uiso   1.00
C541   C     0.53857   0.09630   0.72578   0.00000  Uiso   1.00
C542   C     0.54160   0.40646   0.77808   0.00000  Uiso   1.00
C543   C     0.53965   0.04959   0.72447   0.00000  Uiso   1.00
C544   C     0.54329   0.45324   0.77888   0.00000  Uiso   1.00
C545   C     0.50410   0.02435   0.74818   0.00000  Uiso   1.00
C546   C     0.50424   0.47583   0.75012   0.00000  Uiso   1.00
Cu547  Cu    0.50000   0.25000   0.79822   0.00000  Uiso   1.00
Cu548  Cu    0.50000   0.25001   0.70179   0.00000  Uiso   1.00
H549   H     0.44045   0.02539   0.78878   0.00000  Uiso   1.00
H550   H     0.43405   0.46984   0.70098   0.00000  Uiso   1.00
H551   H     0.42456   0.22074   0.52546   0.00000  Uiso   1.00
H552   H     0.53434   0.31522   0.96939   0.00000  Uiso   1.00
N553   N     0.50000   0.25001   0.62935   0.00000  Uiso   1.00
N554   N     0.50000   0.24999   0.87066   0.00000  Uiso   1.00
O555   O     0.50000   0.18573   0.79072   0.00000  Uiso   1.00
O556   O     0.50000   0.31428   0.70928   0.00000  Uiso   1.00
O557   O     0.50000   0.18573   0.70928   0.00000  Uiso   1.00
O558   O     0.50000   0.31427   0.79072   0.00000  Uiso   1.00
O559   O     0.42495   0.25000   0.78132   0.00000  Uiso   1.00
O560   O     0.57505   0.25001   0.71868   0.00000  Uiso   1.00
O561   O     0.42495   0.25000   0.69988   0.00000  Uiso   1.00
O562   O     0.57505   0.25000   0.80012   0.00000  Uiso   1.00
O563   O     0.65361   0.22221   0.69125   0.00000  Uiso   1.00
H564   H     0.34528   0.21115   0.67112   0.00000  Uiso   1.00
O565   O     0.34633   0.27743   0.80906   0.00000  Uiso   1.00
H566   H     0.65462   0.28811   0.82943   0.00000  Uiso   1.00
O567   O     0.42886   0.11251   0.79305   0.00000  Uiso   1.00
H568   H     0.40671   0.08995   0.80687   0.00000  Uiso   1.00
O569   O     0.41891   0.38546   0.69580   0.00000  Uiso   1.00
H570   H     0.41626   0.35389   0.70487   0.00000  Uiso   1.00
O571   O     0.57321   0.12306   0.70476   0.00000  Uiso   1.00
H572   H     0.59741   0.10469   0.69012   0.00000  Uiso   1.00
O573   O     0.57983   0.38229   0.80339   0.00000  Uiso   1.00
H574   H     0.60676   0.40244   0.82057   0.00000  Uiso   1.00
O575   O     0.57552   0.03017   0.70009   0.00000  Uiso   1.00
H576   H     0.56864   0.49778   0.69736   0.00000  Uiso   1.00
O577   O     0.58319   0.47531   0.80773   0.00000  Uiso   1.00
H578   H     0.57694   0.00732   0.80925   0.00000  Uiso   1.00
N579   N     0.58945   0.28114   0.54075   0.00000  Uiso   1.00
H580   H     0.61960   0.26284   0.55757   0.00000  Uiso   1.00
H581   H     0.59713   0.31451   0.55014   0.00000  Uiso   1.00
N582   N     0.46342   0.17292   0.96595   0.00000  Uiso   1.00
H583   H     0.48430   0.14665   0.95553   0.00000  Uiso   1.00
H584   H     0.42481   0.16656   0.95270   0.00000  Uiso   1.00
O585   O     0.58085   0.29113   0.63722   0.00000  Uiso   1.00
H586   H     0.56607   0.30842   0.66147   0.00000  Uiso   1.00
O587   O     0.45202   0.18036   0.86703   0.00000  Uiso   1.00
H588   H     0.43206   0.19337   0.83857   0.00000  Uiso   1.00
O589   O     0.41950   0.20840   0.61503   0.00000  Uiso   1.00
H590   H     0.43355   0.19239   0.64420   0.00000  Uiso   1.00
O591   O     0.54791   0.31974   0.88076   0.00000  Uiso   1.00
H592   H     0.56657   0.30749   0.85583   0.00000  Uiso   1.00
C593   C     0.83349   0.16509   0.74992   0.00000  Uiso   1.00
C594   C     0.83332   0.33485   0.75004   0.00000  Uiso   1.00
C595   C     0.87673   0.26656   0.55912   0.00000  Uiso   1.00
C596   C     0.81401   0.21263   0.94395   0.00000  Uiso   1.00
C597   C     0.87420   0.26904   0.60938   0.00000  Uiso   1.00
C598   C     0.81117   0.21478   0.89303   0.00000  Uiso   1.00
C599   C     0.79310   0.23098   0.59847   0.00000  Uiso   1.00
C600   C     0.85540   0.28482   0.89922   0.00000  Uiso   1.00
C601   C     0.79190   0.23336   0.54814   0.00000  Uiso   1.00
C602   C     0.85288   0.28585   0.94912   0.00000  Uiso   1.00
C603   C     0.83433   0.24975   0.52730   0.00000  Uiso   1.00
C604   C     0.83375   0.24923   0.97290   0.00000  Uiso   1.00
C605   C     0.73477   0.24872   0.73781   0.00000  Uiso   1.00
C606   C     0.93189   0.25125   0.76221   0.00000  Uiso   1.00
C607   C     0.67943   0.24334   0.73202   0.00000  Uiso   1.00
C608   C     0.98722   0.25656   0.76810   0.00000  Uiso   1.00
C609   C     0.80097   0.04528   0.77123   0.00000  Uiso   1.00
C610   C     0.79731   0.45219   0.72253   0.00000  Uiso   1.00
C611   C     0.79924   0.09147   0.77192   0.00000  Uiso   1.00
C612   C     0.79441   0.40618   0.72266   0.00000  Uiso   1.00
C613   C     0.83503   0.11678   0.74952   0.00000  Uiso   1.00
C614   C     0.83381   0.38318   0.75030   0.00000  Uiso   1.00
C615   C     0.87191   0.09630   0.72578   0.00000  Uiso   1.00
C616   C     0.87494   0.40646   0.77808   0.00000  Uiso   1.00
C617   C     0.87298   0.04959   0.72447   0.00000  Uiso   1.00
C618   C     0.87662   0.45324   0.77888   0.00000  Uiso   1.00
C619   C     0.83744   0.02435   0.74818   0.00000  Uiso   1.00
C620   C     0.83757   0.47583   0.75012   0.00000  Uiso   1.00
Cu621  Cu    0.83333   0.25000   0.79822   0.00000  Uiso   1.00
Cu622  Cu    0.83333   0.25001   0.70179   0.00000  Uiso   1.00
H623   H     0.77378   0.02539   0.78878   0.00000  Uiso   1.00
H624   H     0.76739   0.46984   0.70098   0.00000  Uiso   1.00
H625   H     0.75789   0.22074   0.52546   0.00000  Uiso   1.00
H626   H     0.86767   0.31522   0.96939   0.00000  Uiso   1.00
N627   N     0.83333   0.25001   0.62935   0.00000  Uiso   1.00
N628   N     0.83333   0.24999   0.87066   0.00000  Uiso   1.00
O629   O     0.83334   0.18573   0.79072   0.00000  Uiso   1.00
O630   O     0.83333   0.31428   0.70928   0.00000  Uiso   1.00
O631   O     0.83334   0.18573   0.70928   0.00000  Uiso   1.00
O632   O     0.83333   0.31427   0.79072   0.00000  Uiso   1.00
O633   O     0.75828   0.25000   0.78132   0.00000  Uiso   1.00
O634   O     0.90839   0.25001   0.71868   0.00000  Uiso   1.00
O635   O     0.75828   0.25000   0.69988   0.00000  Uiso   1.00
O636   O     0.90839   0.25000   0.80012   0.00000  Uiso   1.00
O637   O     0.98694   0.22221   0.69125   0.00000  Uiso   1.00
H638   H     0.67861   0.21115   0.67112   0.00000  Uiso   1.00
O639   O     0.67966   0.27743   0.80906   0.00000  Uiso   1.00
H640   H     0.98795   0.28811   0.82943   0.00000  Uiso   1.00
O641   O     0.76220   0.11251   0.79305   0.00000  Uiso   1.00
H642   H     0.74004   0.08995   0.80687   0.00000  Uiso   1.00
O643   O     0.75224   0.38546   0.69580   0.00000  Uiso   1.00
H644   H     0.74959   0.35389   0.70487   0.00000  Uiso   1.00
O645   O     0.90655   0.12306   0.70476   0.00000  Uiso   1.00
H646   H     0.93074   0.10469   0.69012   0.00000  Uiso   1.00
O647   O     0.91317   0.38229   0.80339   0.00000  Uiso   1.00
H648   H     0.94009   0.40244   0.82057   0.00000  Uiso   1.00
O649   O     0.90885   0.03017   0.70009   0.00000  Uiso   1.00
H650   H     0.90197   0.49778   0.69736   0.00000  Uiso   1.00
O651   O     0.91652   0.47531   0.80773   0.00000  Uiso   1.00
H652   H     0.91027   0.00732   0.80925   0.00000  Uiso   1.00
N653   N     0.92279   0.28114   0.54075   0.00000  Uiso   1.00
H654   H     0.95293   0.26284   0.55757   0.00000  Uiso   1.00
H655   H     0.93046   0.31451   0.55014   0.00000  Uiso   1.00
N656   N     0.79675   0.17292   0.96595   0.00000  Uiso   1.00
H657   H     0.81763   0.14665   0.95553   0.00000  Uiso   1.00
H658   H     0.75814   0.16656   0.95270   0.00000  Uiso   1.00
O659   O     0.91419   0.29113   0.63722   0.00000  Uiso   1.00
H660   H     0.89941   0.30842   0.66147   0.00000  Uiso   1.00
O661   O     0.78535   0.18036   0.86703   0.00000  Uiso   1.00
H662   H     0.76539   0.19337   0.83857   0.00000  Uiso   1.00
O663   O     0.75283   0.20840   0.61503   0.00000  Uiso   1.00
H664   H     0.76688   0.19239   0.64420   0.00000  Uiso   1.00
O665   O     0.88125   0.31974   0.88076   0.00000  Uiso   1.00
H666   H     0.89991   0.30749   0.85583   0.00000  Uiso   1.00
C667   C     0.16683   0.66509   0.74992   0.00000  Uiso   1.00
C668   C     0.16665   0.83485   0.75004   0.00000  Uiso   1.00
C669   C     0.21007   0.76656   0.55912   0.00000  Uiso   1.00
C670   C     0.14735   0.71263   0.94395   0.00000  Uiso   1.00
C671   C     0.20753   0.76904   0.60938   0.00000  Uiso   1.00
C672   C     0.14450   0.71478   0.89303   0.00000  Uiso   1.00
C673   C     0.12643   0.73098   0.59847   0.00000  Uiso   1.00
C674   C     0.18873   0.78482   0.89922   0.00000  Uiso   1.00
C675   C     0.12523   0.73336   0.54814   0.00000  Uiso   1.00
C676   C     0.18621   0.78585   0.94912   0.00000  Uiso   1.00
C677   C     0.16766   0.74975   0.52730   0.00000  Uiso   1.00
C678   C     0.16708   0.74923   0.97290   0.00000  Uiso   1.00
C679   C     0.06810   0.74872   0.73781   0.00000  Uiso   1.00
C680   C     0.26522   0.75125   0.76221   0.00000  Uiso   1.00
C681   C     0.01276   0.74334   0.73202   0.00000  Uiso   1.00
C682   C     0.32056   0.75656   0.76810   0.00000  Uiso   1.00
C683   C     0.13430   0.54528   0.77123   0.00000  Uiso   1.00
C684   C     0.13064   0.95219   0.72253   0.00000  Uiso   1.00
C685   C     0.13257   0.59147   0.77192   0.00000  Uiso   1.00
C686   C     0.12774   0.90618   0.72266   0.00000  Uiso   1.00
C687   C     0.16837   0.61678   0.74952   0.00000  Uiso   1.00
C688   C     0.16714   0.88318   0.75030   0.00000  Uiso   1.00
C689   C     0.20524   0.59630   0.72578   0.00000  Uiso   1.00
C690   C     0.20827   0.90646   0.77808   0.00000  Uiso   1.00
C691   C     0.20632   0.54959   0.72447   0.00000  Uiso   1.00
C692   C     0.20995   0.95324   0.77888   0.00000  Uiso   1.00
C693   C     0.17077   0.52435   0.74818   0.00000  Uiso   1.00
C694   C     0.17090   0.97583   0.75012   0.00000  Uiso   1.00
Cu695  Cu    0.16667   0.75000   0.79822   0.00000  Uiso   1.00
Cu696  Cu    0.16667   0.75001   0.70179   0.00000  Uiso   1.00
H697   H     0.10711   0.52539   0.78878   0.00000  Uiso   1.00
H698   H     0.10072   0.96984   0.70098   0.00000  Uiso   1.00
H699   H     0.09123   0.72074   0.52546   0.00000  Uiso   1.00
H700   H     0.20100   0.81522   0.96939   0.00000  Uiso   1.00
N701   N     0.16667   0.75001   0.62935   0.00000  Uiso   1.00
N702   N     0.16667   0.74999   0.87066   0.00000  Uiso   1.00
O703   O     0.16667   0.68573   0.79072   0.00000  Uiso   1.00
O704   O     0.16666   0.81428   0.70928   0.00000  Uiso   1.00
O705   O     0.16667   0.68573   0.70928   0.00000  Uiso   1.00
O706   O     0.16666   0.81427   0.79072   0.00000  Uiso   1.00
O707   O     0.09161   0.75000   0.78132   0.00000  Uiso   1.00
O708   O     0.24172   0.75001   0.71868   0.00000  Uiso   1.00
O709   O     0.09161   0.75000   0.69988   0.00000  Uiso   1.00
O710   O     0.24172   0.75000   0.80012   0.00000  Uiso   1.00
O711   O     0.32028   0.72221   0.69125   0.00000  Uiso   1.00
H712   H     0.01195   0.71115   0.67112   0.00000  Uiso   1.00
O713   O     0.01299   0.77743   0.80906   0.00000  Uiso   1.00
H714   H     0.32128   0.78811   0.82943   0.00000  Uiso   1.00
O715   O     0.09553   0.61251   0.79305   0.00000  Uiso   1.00
H716   H     0.07337   0.58995   0.80687   0.00000  Uiso   1.00
O717   O     0.08557   0.88546   0.69580   0.00000  Uiso   1.00
H718   H     0.08293   0.85389   0.70487   0.00000  Uiso   1.00
O719   O     0.23988   0.62306   0.70476   0.00000  Uiso   1.00
H720   H     0.26407   0.60469   0.69012   0.00000  Uiso   1.00
O721   O     0.24650   0.88229   0.80339   0.00000  Uiso   1.00
H722   H     0.27343   0.90244   0.82057   0.00000  Uiso   1.00
O723   O     0.24218   0.53017   0.70009   0.00000  Uiso   1.00
H724   H     0.23531   0.99778   0.69736   0.00000  Uiso   1.00
O725   O     0.24986   0.97531   0.80773   0.00000  Uiso   1.00
H726   H     0.24361   0.50732   0.80925   0.00000  Uiso   1.00
N727   N     0.25612   0.78114   0.54075   0.00000  Uiso   1.00
H728   H     0.28627   0.76284   0.55757   0.00000  Uiso   1.00
H729   H     0.26379   0.81451   0.55014   0.00000  Uiso   1.00
N730   N     0.13008   0.67292   0.96595   0.00000  Uiso   1.00
H731   H     0.15096   0.64665   0.95553   0.00000  Uiso   1.00
H732   H     0.09148   0.66656   0.95270   0.00000  Uiso   1.00
O733   O     0.24752   0.79113   0.63722   0.00000  Uiso   1.00
H734   H     0.23274   0.80842   0.66147   0.00000  Uiso   1.00
O735   O     0.11869   0.68036   0.86703   0.00000  Uiso   1.00
H736   H     0.09872   0.69337   0.83857   0.00000  Uiso   1.00
O737   O     0.08616   0.70840   0.61503   0.00000  Uiso   1.00
H738   H     0.10022   0.69239   0.64420   0.00000  Uiso   1.00
O739   O     0.21458   0.81974   0.88076   0.00000  Uiso   1.00
H740   H     0.23324   0.80749   0.85583   0.00000  Uiso   1.00
C741   C     0.50016   0.66509   0.74992   0.00000  Uiso   1.00
C742   C     0.49999   0.83485   0.75004   0.00000  Uiso   1.00
C743   C     0.54340   0.76656   0.55912   0.00000  Uiso   1.00
C744   C     0.48068   0.71263   0.94395   0.00000  Uiso   1.00
C745   C     0.54086   0.76904   0.60938   0.00000  Uiso   1.00
C746   C     0.47784   0.71478   0.89303   0.00000  Uiso   1.00
C747   C     0.45977   0.73098   0.59847   0.00000  Uiso   1.00
C748   C     0.52207   0.78482   0.89922   0.00000  Uiso   1.00
C749   C     0.45856   0.73336   0.54814   0.00000  Uiso   1.00
C750   C     0.51954   0.78585   0.94912   0.00000  Uiso   1.00
C751   C     0.50099   0.74975   0.52730   0.00000  Uiso   1.00
C752   C     0.50042   0.74923   0.97290   0.00000  Uiso   1.00
C753   C     0.40143   0.74872   0.73781   0.00000  Uiso   1.00
C754   C     0.59856   0.75125   0.76221   0.00000  Uiso   1.00
C755   C     0.34609   0.74334   0.73202   0.00000  Uiso   1.00
C756   C     0.65389   0.75656   0.76810   0.00000  Uiso   1.00
C757   C     0.46764   0.54528   0.77123   0.00000  Uiso   1.00
C758   C     0.46397   0.95219   0.72253   0.00000  Uiso   1.00
C759   C     0.46591   0.59147   0.77192   0.00000  Uiso   1.00
C760   C     0.46108   0.90618   0.72266   0.00000  Uiso   1.00
C761   C     0.50170   0.61678   0.74952   0.00000  Uiso   1.00
C762   C     0.50048   0.88318   0.75030   0.00000  Uiso   1.00
C763   C     0.53857   0.59630   0.72578   0.00000  Uiso   1.00
C764   C     0.54160   0.90646   0.77808   0.00000  Uiso   1.00
C765   C     0.53965   0.54959   0.72447   0.00000  Uiso   1.00
C766   C     0.54329   0.95324   0.77888   0.00000  Uiso   1.00
C767   C     0.50410   0.52435   0.74818   0.00000  Uiso   1.00
C768   C     0.50424   0.97583   0.75012   0.00000  Uiso   1.00
Cu769  Cu    0.50000   0.75000   0.79822   0.00000  Uiso   1.00
Cu770  Cu    0.50000   0.75001   0.70179   0.00000  Uiso   1.00
H771   H     0.44045   0.52539   0.78878   0.00000  Uiso   1.00
H772   H     0.43405   0.96984   0.70098   0.00000  Uiso   1.00
H773   H     0.42456   0.72074   0.52546   0.00000  Uiso   1.00
H774   H     0.53434   0.81522   0.96939   0.00000  Uiso   1.00
N775   N     0.50000   0.75001   0.62935   0.00000  Uiso   1.00
N776   N     0.50000   0.74999   0.87066   0.00000  Uiso   1.00
O777   O     0.50000   0.68573   0.79072   0.00000  Uiso   1.00
O778   O     0.50000   0.81428   0.70928   0.00000  Uiso   1.00
O779   O     0.50000   0.68573   0.70928   0.00000  Uiso   1.00
O780   O     0.50000   0.81427   0.79072   0.00000  Uiso   1.00
O781   O     0.42495   0.75000   0.78132   0.00000  Uiso   1.00
O782   O     0.57505   0.75001   0.71868   0.00000  Uiso   1.00
O783   O     0.42495   0.75000   0.69988   0.00000  Uiso   1.00
O784   O     0.57505   0.75000   0.80012   0.00000  Uiso   1.00
O785   O     0.65361   0.72221   0.69125   0.00000  Uiso   1.00
H786   H     0.34528   0.71115   0.67112   0.00000  Uiso   1.00
O787   O     0.34633   0.77743   0.80906   0.00000  Uiso   1.00
H788   H     0.65462   0.78811   0.82943   0.00000  Uiso   1.00
O789   O     0.42886   0.61251   0.79305   0.00000  Uiso   1.00
H790   H     0.40671   0.58995   0.80687   0.00000  Uiso   1.00
O791   O     0.41891   0.88546   0.69580   0.00000  Uiso   1.00
H792   H     0.41626   0.85389   0.70487   0.00000  Uiso   1.00
O793   O     0.57321   0.62306   0.70476   0.00000  Uiso   1.00
H794   H     0.59741   0.60469   0.69012   0.00000  Uiso   1.00
O795   O     0.57983   0.88229   0.80339   0.00000  Uiso   1.00
H796   H     0.60676   0.90244   0.82057   0.00000  Uiso   1.00
O797   O     0.57552   0.53017   0.70009   0.00000  Uiso   1.00
H798   H     0.56864   0.99778   0.69736   0.00000  Uiso   1.00
O799   O     0.58319   0.97531   0.80773   0.00000  Uiso   1.00
H800   H     0.57694   0.50732   0.80925   0.00000  Uiso   1.00
N801   N     0.58945   0.78114   0.54075   0.00000  Uiso   1.00
H802   H     0.61960   0.76284   0.55757   0.00000  Uiso   1.00
H803   H     0.59713   0.81451   0.55014   0.00000  Uiso   1.00
N804   N     0.46342   0.67292   0.96595   0.00000  Uiso   1.00
H805   H     0.48430   0.64665   0.95553   0.00000  Uiso   1.00
H806   H     0.42481   0.66656   0.95270   0.00000  Uiso   1.00
O807   O     0.58085   0.79113   0.63722   0.00000  Uiso   1.00
H808   H     0.56607   0.80842   0.66147   0.00000  Uiso   1.00
O809   O     0.45202   0.68036   0.86703   0.00000  Uiso   1.00
H810   H     0.43206   0.69337   0.83857   0.00000  Uiso   1.00
O811   O     0.41950   0.70840   0.61503   0.00000  Uiso   1.00
H812   H     0.43355   0.69239   0.64420   0.00000  Uiso   1.00
O813   O     0.54791   0.81974   0.88076   0.00000  Uiso   1.00
H814   H     0.56657   0.80749   0.85583   0.00000  Uiso   1.00
C815   C     0.83349   0.66509   0.74992   0.00000  Uiso   1.00
C816   C     0.83332   0.83485   0.75004   0.00000  Uiso   1.00
C817   C     0.87673   0.76656   0.55912   0.00000  Uiso   1.00
C818   C     0.81401   0.71263   0.94395   0.00000  Uiso   1.00
C819   C     0.87420   0.76904   0.60938   0.00000  Uiso   1.00
C820   C     0.81117   0.71478   0.89303   0.00000  Uiso   1.00
C821   C     0.79310   0.73098   0.59847   0.00000  Uiso   1.00
C822   C     0.85540   0.78482   0.89922   0.00000  Uiso   1.00
C823   C     0.79190   0.73336   0.54814   0.00000  Uiso   1.00
C824   C     0.85288   0.78585   0.94912   0.00000  Uiso   1.00
C825   C     0.83433   0.74975   0.52730   0.00000  Uiso   1.00
C826   C     0.83375   0.74923   0.97290   0.00000  Uiso   1.00
C827   C     0.73477   0.74872   0.73781   0.00000  Uiso   1.00
C828   C     0.93189   0.75125   0.76221   0.00000  Uiso   1.00
C829   C     0.67943   0.74334   0.73202   0.00000  Uiso   1.00
C830   C     0.98722   0.75656   0.76810   0.00000  Uiso   1.00
C831   C     0.80097   0.54528   0.77123   0.00000  Uiso   1.00
C832   C     0.79731   0.95219   0.72253   0.00000  Uiso   1.00
C833   C     0.79924   0.59147   0.77192   0.00000  Uiso   1.00
C834   C     0.79441   0.90618   0.72266   0.00000  Uiso   1.00
C835   C     0.83503   0.61678   0.74952   0.00000  Uiso   1.00
C836   C     0.83381   0.88318   0.75030   0.00000  Uiso   1.00
C837   C     0.87191   0.59630   0.72578   0.00000  Uiso   1.00
C838   C     0.87494   0.90646   0.77808   0.00000  Uiso   1.00
C839   C     0.87298   0.54959   0.72447   0.00000  Uiso   1.00
C840   C     0.87662   0.95324   0.77888   0.00000  Uiso   1.00
C841   C     0.83744   0.52435   0.74818   0.00000  Uiso   1.00
C842   C     0.83757   0.97583   0.75012   0.00000  Uiso   1.00
Cu843  Cu    0.83333   0.75000   0.79822   0.00000  Uiso   1.00
Cu844  Cu    0.83333   0.75001   0.70179   0.00000  Uiso   1.00
H845   H     0.77378   0.52539   0.78878   0.00000  Uiso   1.00
H846   H     0.76739   0.96984   0.70098   0.00000  Uiso   1.00
H847   H     0.75789   0.72074   0.52546   0.00000  Uiso   1.00
H848   H     0.86767   0.81522   0.96939   0.00000  Uiso   1.00
N849   N     0.83333   0.75001   0.62935   0.00000  Uiso   1.00
N850   N     0.83333   0.74999   0.87066   0.00000  Uiso   1.00
O851   O     0.83334   0.68573   0.79072   0.00000  Uiso   1.00
O852   O     0.83333   0.81428   0.70928   0.00000  Uiso   1.00
O853   O     0.83334   0.68573   0.70928   0.00000  Uiso   1.00
O854   O     0.83333   0.81427   0.79072   0.00000  Uiso   1.00
O855   O     0.75828   0.75000   0.78132   0.00000  Uiso   1.00
O856   O     0.90839   0.75001   0.71868   0.00000  Uiso   1.00
O857   O     0.75828   0.75000   0.69988   0.00000  Uiso   1.00
O858   O     0.90839   0.75000   0.80012   0.00000  Uiso   1.00
O859   O     0.98694   0.72221   0.69125   0.00000  Uiso   1.00
H860   H     0.67861   0.71115   0.67112   0.00000  Uiso   1.00
O861   O     0.67966   0.77743   0.80906   0.00000  Uiso   1.00
H862   H     0.98795   0.78811   0.82943   0.00000  Uiso   1.00
O863   O     0.76220   0.61251   0.79305   0.00000  Uiso   1.00
H864   H     0.74004   0.58995   0.80687   0.00000  Uiso   1.00
O865   O     0.75224   0.88546   0.69580   0.00000  Uiso   1.00
H866   H     0.74959   0.85389   0.70487   0.00000  Uiso   1.00
O867   O     0.90655   0.62306   0.70476   0.00000  Uiso   1.00
H868   H     0.93074   0.60469   0.69012   0.00000  Uiso   1.00
O869   O     0.91317   0.88229   0.80339   0.00000  Uiso   1.00
H870   H     0.94009   0.90244   0.82057   0.00000  Uiso   1.00
O871   O     0.90885   0.53017   0.70009   0.00000  Uiso   1.00
H872   H     0.90197   0.99778   0.69736   0.00000  Uiso   1.00
O873   O     0.91652   0.97531   0.80773   0.00000  Uiso   1.00
H874   H     0.91027   0.50732   0.80925   0.00000  Uiso   1.00
N875   N     0.92279   0.78114   0.54075   0.00000  Uiso   1.00
H876   H     0.95293   0.76284   0.55757   0.00000  Uiso   1.00
H877   H     0.93046   0.81451   0.55014   0.00000  Uiso   1.00
N878   N     0.79675   0.67292   0.96595   0.00000  Uiso   1.00
H879   H     0.81763   0.64665   0.95553   0.00000  Uiso   1.00
H880   H     0.75814   0.66656   0.95270   0.00000  Uiso   1.00
O881   O     0.91419   0.79113   0.63722   0.00000  Uiso   1.00
H882   H     0.89941   0.80842   0.66147   0.00000  Uiso   1.00
O883   O     0.78535   0.68036   0.86703   0.00000  Uiso   1.00
H884   H     0.76539   0.69337   0.83857   0.00000  Uiso   1.00
O885   O     0.75283   0.70840   0.61503   0.00000  Uiso   1.00
H886   H     0.76688   0.69239   0.64420   0.00000  Uiso   1.00
O887   O     0.88125   0.81974   0.88076   0.00000  Uiso   1.00
H888   H     0.89991   0.80749   0.85583   0.00000  Uiso   1.00
loop_
_geom_bond_atom_site_label_1
_geom_bond_atom_site_label_2
_geom_bond_distance
_geom_bond_site_symmetry_2
_ccdc_geom_bond_type
C1     C21     1.460   .     S
C1     O37     1.300   .     A
C1     O39     1.297   .     A
C2     C22     1.458   .     S
C2     O40     1.297   .     A
C2     O38     1.298   .     A
C3     C11     1.410   .     A
C3     C5      1.418   .     A
C3     N61     1.434   .     S
C4     C12     1.409   .     A
C4     N64     1.434   .     S
C4     C6      1.418   .     A
C5     N35     1.384   .     A
C5     O67     1.373   .     S
C6     O69     1.372   .     S
C6     N36     1.383   .     A
C7     N35     1.381   .     A
C7     O71     1.371   .     S
C7     C9      1.406   .     A
C8     C10     1.407   .     A
C8     O73     1.371   .     S
C8     N36     1.381   .     A
C9     H33     1.082   .     S
C9     C11     1.402   .     A
C10    H34     1.082   .     S
C10    C12     1.402   .     A
C11    C456    1.520   1_554 S
C12    C455    1.520   .     S
C13    O43     1.298   .     A
C13    O41     1.290   .     A
C13    C15     1.449   .     S
C14    O42     1.290   .     A
C14    C16     1.448   .     S
C14    O44     1.297   .     A
C15    C164    1.354   1_455 S
C15    O193    1.388   1_455 S
C16    C89     1.354   .     S
C16    O121    1.388   .     S
C17    H31     1.084   .     S
C17    C27     1.397   .     A
C17    C19     1.397   .     A
C18    H32     1.084   .     S
C18    C20     1.388   .     A
C18    C28     1.397   .     A
C19    C21     1.403   .     A
C19    O49     1.381   .     S
C20    C22     1.415   .     A
C20    O51     1.383   .     S
C21    C23     1.409   .     A
C22    C24     1.409   .     A
C23    O53     1.385   .     S
C23    C25     1.412   .     A
C24    O55     1.385   .     S
C24    C26     1.411   .     A
C25    C27     1.417   .     A
C25    O57     1.385   .     S
C26    C28     1.417   .     A
C26    O59     1.385   .     S
C27    C250    1.466   1_545 S
C28    C249    1.466   .     S
Cu29   Cu30    2.697   .     S
Cu29   O41     1.972   .     S
Cu29   N36     2.026   .     S
Cu29   O40     1.952   .     S
Cu29   O44     1.972   .     S
Cu29   O37     1.951   .     S
Cu30   N35     2.026   .     S
Cu30   O39     1.952   .     S
Cu30   O43     1.972   .     S
Cu30   O38     1.951   .     S
Cu30   O42     1.972   .     S
O45    C89     1.388   .     S
O45    H120    0.990   .     S
H46    O193    0.990   1_455 S
O47    C164    1.388   1_455 S
O47    H196    0.991   1_455 S
H48    O121    0.991   .     S
O49    H50     0.992   .     S
O51    H52     0.989   .     S
O53    H54     0.989   .     S
O55    H56     0.989   .     S
O57    H280    0.988   1_545 S
H58    O279    0.988   .     S
O59    H282    0.988   .     S
H60    O281    0.988   1_545 S
N61    H62     1.046   .     S
N61    H63     1.046   .     S
N64    H65     1.046   .     S
N64    H66     1.046   .     S
O67    H68     0.985   .     S
O69    H70     0.985   .     S
O71    H72     0.985   .     S
O73    H74     0.985   .     S
C75    C95     1.460   .     S
C75    O111    1.300   .     A
C75    O113    1.297   .     A
C76    C96     1.458   .     S
C76    O114    1.297   .     A
C76    O112    1.298   .     A
C77    C85     1.410   .     A
C77    C79     1.418   .     A
C77    N135    1.434   .     S
C78    C86     1.409   .     A
C78    N138    1.434   .     S
C78    C80     1.418   .     A
C79    N109    1.384   .     A
C79    O141    1.373   .     S
C80    O143    1.372   .     S
C80    N110    1.383   .     A
C81    N109    1.381   .     A
C81    O145    1.371   .     S
C81    C83     1.406   .     A
C82    C84     1.407   .     A
C82    O147    1.371   .     S
C82    N110    1.381   .     A
C83    H107    1.082   .     S
C83    C85     1.402   .     A
C84    H108    1.082   .     S
C84    C86     1.402   .     A
C85    C530    1.520   1_554 S
C86    C529    1.520   .     S
C87    O117    1.298   .     A
C87    O115    1.290   .     A
C87    C89     1.449   .     S
C88    O116    1.290   .     A
C88    C90     1.448   .     S
C88    O118    1.297   .     A
C90    C163    1.354   .     S
C90    O195    1.388   .     S
C91    H105    1.084   .     S
C91    C101    1.397   .     A
C91    C93     1.397   .     A
C92    H106    1.084   .     S
C92    C94     1.388   .     A
C92    C102    1.397   .     A
C93    C95     1.403   .     A
C93    O123    1.381   .     S
C94    C96     1.415   .     A
C94    O125    1.383   .     S
C95    C97     1.409   .     A
C96    C98     1.409   .     A
C97    O127    1.385   .     S
C97    C99     1.412   .     A
C98    O129    1.385   .     S
C98    C100    1.411   .     A
C99    C101    1.417   .     A
C99    O131    1.385   .     S
C100   C102    1.417   .     A
C100   O133    1.385   .     S
C101   C324    1.466   1_545 S
C102   C323    1.466   .     S
Cu103  Cu104   2.697   .     S
Cu103  O115    1.972   .     S
Cu103  N110    2.026   .     S
Cu103  O114    1.952   .     S
Cu103  O118    1.972   .     S
Cu103  O111    1.951   .     S
Cu104  N109    2.026   .     S
Cu104  O113    1.952   .     S
Cu104  O117    1.972   .     S
Cu104  O112    1.951   .     S
Cu104  O116    1.972   .     S
O119   C163    1.388   .     S
O119   H194    0.990   .     S
H122   O195    0.991   .     S
O123   H124    0.992   .     S
O125   H126    0.989   .     S
O127   H128    0.989   .     S
O129   H130    0.989   .     S
O131   H354    0.988   1_545 S
H132   O353    0.988   .     S
O133   H356    0.988   .     S
H134   O355    0.988   1_545 S
N135   H136    1.046   .     S
N135   H137    1.046   .     S
N138   H139    1.046   .     S
N138   H140    1.046   .     S
O141   H142    0.985   .     S
O143   H144    0.985   .     S
O145   H146    0.985   .     S
O147   H148    0.985   .     S
C149   C169    1.460   .     S
C149   O185    1.300   .     A
C149   O187    1.297   .     A
C150   C170    1.458   .     S
C150   O188    1.297   .     A
C150   O186    1.298   .     A
C151   C159    1.410   .     A
C151   C153    1.418   .     A
C151   N209    1.434   .     S
C152   C160    1.409   .     A
C152   N212    1.434   .     S
C152   C154    1.418   .     A
C153   N183    1.384   .     A
C153   O215    1.373   .     S
C154   O217    1.372   .     S
C154   N184    1.383   .     A
C155   N183    1.381   .     A
C155   O219    1.371   .     S
C155   C157    1.406   .     A
C156   C158    1.407   .     A
C156   O221    1.371   .     S
C156   N184    1.381   .     A
C157   H181    1.082   .     S
C157   C159    1.402   .     A
C158   H182    1.082   .     S
C158   C160    1.402   .     A
C159   C604    1.520   1_554 S
C160   C603    1.520   .     S
C161   O191    1.298   .     A
C161   O189    1.290   .     A
C161   C163    1.449   .     S
C162   O190    1.290   .     A
C162   C164    1.448   .     S
C162   O192    1.297   .     A
C164   C15     1.354   1_655 S
C164   O47     1.388   1_655 S
C165   H179    1.084   .     S
C165   C175    1.397   .     A
C165   C167    1.397   .     A
C166   H180    1.084   .     S
C166   C168    1.388   .     A
C166   C176    1.397   .     A
C167   C169    1.403   .     A
C167   O197    1.381   .     S
C168   C170    1.415   .     A
C168   O199    1.383   .     S
C169   C171    1.409   .     A
C170   C172    1.409   .     A
C171   O201    1.385   .     S
C171   C173    1.412   .     A
C172   O203    1.385   .     S
C172   C174    1.411   .     A
C173   C175    1.417   .     A
C173   O205    1.385   .     S
C174   C176    1.417   .     A
C174   O207    1.385   .     S
C175   C398    1.466   1_545 S
C176   C397    1.466   .     S
Cu177  Cu178   2.697   .     S
Cu177  O189    1.972   .     S
Cu177  N184    2.026   .     S
Cu177  O188    1.952   .     S
Cu177  O192    1.972   .     S
Cu177  O185    1.951   .     S
Cu178  N183    2.026   .     S
Cu178  O187    1.952   .     S
Cu178  O191    1.972   .     S
Cu178  O186    1.951   .     S
Cu178  O190    1.972   .     S
O193   C15     1.388   1_655 S
O193   H46     0.990   1_655 S
H196   O47     0.991   1_655 S
O197   H198    0.992   .     S
O199   H200    0.989   .     S
O201   H202    0.989   .     S
O203   H204    0.989   .     S
O205   H428    0.988   1_545 S
H206   O427    0.988   .     S
O207   H430    0.988   .     S
H208   O429    0.988   1_545 S
N209   H210    1.046   .     S
N209   H211    1.046   .     S
N212   H213    1.046   .     S
N212   H214    1.046   .     S
O215   H216    0.985   .     S
O217   H218    0.985   .     S
O219   H220    0.985   .     S
O221   H222    0.985   .     S
C223   C243    1.460   .     S
C223   O259    1.300   .     A
C223   O261    1.297   .     A
C224   C244    1.458   .     S
C224   O262    1.297   .     A
C224   O260    1.298   .     A
C225   C233    1.410   .     A
C225   C227    1.418   .     A
C225   N283    1.434   .     S
C226   C234    1.409   .     A
C226   N286    1.434   .     S
C226   C228    1.418   .     A
C227   N257    1.384   .     A
C227   O289    1.373   .     S
C228   O291    1.372   .     S
C228   N258    1.383   .     A
C229   N257    1.381   .     A
C229   O293    1.371   .     S
C229   C231    1.406   .     A
C230   C232    1.407   .     A
C230   O295    1.371   .     S
C230   N258    1.381   .     A
C231   H255    1.082   .     S
C231   C233    1.402   .     A
C232   H256    1.082   .     S
C232   C234    1.402   .     A
C233   C678    1.520   1_554 S
C234   C677    1.520   .     S
C235   O265    1.298   .     A
C235   O263    1.290   .     A
C235   C237    1.449   .     S
C236   O264    1.290   .     A
C236   C238    1.448   .     S
C236   O266    1.297   .     A
C237   C386    1.354   1_455 S
C237   O415    1.388   1_455 S
C238   C311    1.354   .     S
C238   O343    1.388   .     S
C239   H253    1.084   .     S
C239   C249    1.397   .     A
C239   C241    1.397   .     A
C240   H254    1.084   .     S
C240   C242    1.388   .     A
C240   C250    1.397   .     A
C241   C243    1.403   .     A
C241   O271    1.381   .     S
C242   C244    1.415   .     A
C242   O273    1.383   .     S
C243   C245    1.409   .     A
C244   C246    1.409   .     A
C245   O275    1.385   .     S
C245   C247    1.412   .     A
C246   O277    1.385   .     S
C246   C248    1.411   .     A
C247   C249    1.417   .     A
C247   O279    1.385   .     S
C248   C250    1.417   .     A
C248   O281    1.385   .     S
C250   C27     1.466   1_565 S
Cu251  Cu252   2.697   .     S
Cu251  O263    1.972   .     S
Cu251  N258    2.026   .     S
Cu251  O262    1.952   .     S
Cu251  O266    1.972   .     S
Cu251  O259    1.951   .     S
Cu252  N257    2.026   .     S
Cu252  O261    1.952   .     S
Cu252  O265    1.972   .     S
Cu252  O260    1.951   .     S
Cu252  O264    1.972   .     S
O267   C311    1.388   .     S
O267   H342    0.990   .     S
H268   O415    0.990   1_455 S
O269   C386    1.388   1_455 S
O269   H418    0.991   1_455 S
H270   O343    0.991   .     S
O271   H272    0.992   .     S
O273   H274    0.989   .     S
O275   H276    0.989   .     S
O277   H278    0.989   .     S
H280   O57     0.988   1_565 S
O281   H60     0.988   1_565 S
N283   H284    1.046   .     S
N283   H285    1.046   .     S
N286   H287    1.046   .     S
N286   H288    1.046   .     S
O289   H290    0.985   .     S
O291   H292    0.985   .     S
O293   H294    0.985   .     S
O295   H296    0.985   .     S
C297   C317    1.460   .     S
C297   O333    1.300   .     A
C297   O335    1.297   .     A
C298   C318    1.458   .     S
C298   O336    1.297   .     A
C298   O334    1.298   .     A
C299   C307    1.410   .     A
C299   C301    1.418   .     A
C299   N357    1.434   .     S
C300   C308    1.409   .     A
C300   N360    1.434   .     S
C300   C302    1.418   .     A
C301   N331    1.384   .     A
C301   O363    1.373   .     S
C302   O365    1.372   .     S
C302   N332    1.383   .     A
C303   N331    1.381   .     A
C303   O367    1.371   .     S
C303   C305    1.406   .     A
C304   C306    1.407   .     A
C304   O369    1.371   .     S
C304   N332    1.381   .     A
C305   H329    1.082   .     S
C305   C307    1.402   .     A
C306   H330    1.082   .     S
C306   C308    1.402   .     A
C307   C752    1.520   1_554 S
C308   C751    1.520   .     S
C309   O339    1.298   .     A
C309   O337    1.290   .     A
C309   C311    1.449   .     S
C310   O338    1.290   .     A
C310   C312    1.448   .     S
C310   O340    1.297   .     A
C312   C385    1.354   .     S
C312   O417    1.388   .     S
C313   H327    1.084   .     S
C313   C323    1.397   .     A
C313   C315    1.397   .     A
C314   H328    1.084   .     S
C314   C316    1.388   .     A
C314   C324    1.397   .     A
C315   C317    1.403   .     A
C315   O345    1.381   .     S
C316   C318    1.415   .     A
C316   O347    1.383   .     S
C317   C319    1.409   .     A
C318   C320    1.409   .     A
C319   O349    1.385   .     S
C319   C321    1.412   .     A
C320   O351    1.385   .     S
C320   C322    1.411   .     A
C321   C323    1.417   .     A
C321   O353    1.385   .     S
C322   C324    1.417   .     A
C322   O355    1.385   .     S
C324   C101    1.466   1_565 S
Cu325  Cu326   2.697   .     S
Cu325  O337    1.972   .     S
Cu325  N332    2.026   .     S
Cu325  O336    1.952   .     S
Cu325  O340    1.972   .     S
Cu325  O333    1.951   .     S
Cu326  N331    2.026   .     S
Cu326  O335    1.952   .     S
Cu326  O339    1.972   .     S
Cu326  O334    1.951   .     S
Cu326  O338    1.972   .     S
O341   C385    1.388   .     S
O341   H416    0.990   .     S
H344   O417    0.991   .     S
O345   H346    0.992   .     S
O347   H348    0.989   .     S
O349   H350    0.989   .     S
O351   H352    0.989   .     S
H354   O131    0.988   1_565 S
O355   H134    0.988   1_565 S
N357   H358    1.046   .     S
N357   H359    1.046   .     S
N360   H361    1.046   .     S
N360   H362    1.046   .     S
O363   H364    0.985   .     S
O365   H366    0.985   .     S
O367   H368    0.985   .     S
O369   H370    0.985   .     S
C371   C391    1.460   .     S
C371   O407    1.300   .     A
C371   O409    1.297   .     A
C372   C392    1.458   .     S
C372   O410    1.297   .     A
C372   O408    1.298   .     A
C373   C381    1.410   .     A
C373   C375    1.418   .     A
C373   N431    1.434   .     S
C374   C382    1.409   .     A
C374   N434    1.434   .     S
C374   C376    1.418   .     A
C375   N405    1.384   .     A
C375   O437    1.373   .     S
C376   O439    1.372   .     S
C376   N406    1.383   .     A
C377   N405    1.381   .     A
C377   O441    1.371   .     S
C377   C379    1.406   .     A
C378   C380    1.407   .     A
C378   O443    1.371   .     S
C378   N406    1.381   .     A
C379   H403    1.082   .     S
C379   C381    1.402   .     A
C380   H404    1.082   .     S
C380   C382    1.402   .     A
C381   C826    1.520   1_554 S
C382   C825    1.520   .     S
C383   O413    1.298   .     A
C383   O411    1.290   .     A
C383   C385    1.449   .     S
C384   O412    1.290   .     A
C384   C386    1.448   .     S
C384   O414    1.297   .     A
C386   C237    1.354   1_655 S
C386   O269    1.388   1_655 S
C387   H401    1.084   .     S
C387   C397    1.397   .     A
C387   C389    1.397   .     A
C388   H402    1.084   .     S
C388   C390    1.388   .     A
C388   C398    1.397   .     A
C389   C391    1.403   .     A
C389   O419    1.381   .     S
C390   C392    1.415   .     A
C390   O421    1.383   .     S
C391   C393    1.409   .     A
C392   C394    1.409   .     A
C393   O423    1.385   .     S
C393   C395    1.412   .     A
C394   O425    1.385   .     S
C394   C396    1.411   .     A
C395   C397    1.417   .     A
C395   O427    1.385   .     S
C396   C398    1.417   .     A
C396   O429    1.385   .     S
C398   C175    1.466   1_565 S
Cu399  Cu400   2.697   .     S
Cu399  O411    1.972   .     S
Cu399  N406    2.026   .     S
Cu399  O410    1.952   .     S
Cu399  O414    1.972   .     S
Cu399  O407    1.951   .     S
Cu400  N405    2.026   .     S
Cu400  O409    1.952   .     S
Cu400  O413    1.972   .     S
Cu400  O408    1.951   .     S
Cu400  O412    1.972   .     S
O415   C237    1.388   1_655 S
O415   H268    0.990   1_655 S
H418   O269    0.991   1_655 S
O419   H420    0.992   .     S
O421   H422    0.989   .     S
O423   H424    0.989   .     S
O425   H426    0.989   .     S
H428   O205    0.988   1_565 S
O429   H208    0.988   1_565 S
N431   H432    1.046   .     S
N431   H433    1.046   .     S
N434   H435    1.046   .     S
N434   H436    1.046   .     S
O437   H438    0.985   .     S
O439   H440    0.985   .     S
O441   H442    0.985   .     S
O443   H444    0.985   .     S
C445   C465    1.460   .     S
C445   O481    1.300   .     A
C445   O483    1.297   .     A
C446   C466    1.458   .     S
C446   O484    1.297   .     A
C446   O482    1.298   .     A
C447   C455    1.410   .     A
C447   C449    1.418   .     A
C447   N505    1.434   .     S
C448   C456    1.409   .     A
C448   N508    1.434   .     S
C448   C450    1.418   .     A
C449   N479    1.384   .     A
C449   O511    1.373   .     S
C450   O513    1.372   .     S
C450   N480    1.383   .     A
C451   N479    1.381   .     A
C451   O515    1.371   .     S
C451   C453    1.406   .     A
C452   C454    1.407   .     A
C452   O517    1.371   .     S
C452   N480    1.381   .     A
C453   H477    1.082   .     S
C453   C455    1.402   .     A
C454   H478    1.082   .     S
C454   C456    1.402   .     A
C456   C11     1.520   1_556 S
C457   O487    1.298   .     A
C457   O485    1.290   .     A
C457   C459    1.449   .     S
C458   O486    1.290   .     A
C458   C460    1.448   .     S
C458   O488    1.297   .     A
C459   C608    1.354   1_455 S
C459   O637    1.388   1_455 S
C460   C533    1.354   .     S
C460   O565    1.388   .     S
C461   H475    1.084   .     S
C461   C471    1.397   .     A
C461   C463    1.397   .     A
C462   H476    1.084   .     S
C462   C464    1.388   .     A
C462   C472    1.397   .     A
C463   C465    1.403   .     A
C463   O493    1.381   .     S
C464   C466    1.415   .     A
C464   O495    1.383   .     S
C465   C467    1.409   .     A
C466   C468    1.409   .     A
C467   O497    1.385   .     S
C467   C469    1.412   .     A
C468   O499    1.385   .     S
C468   C470    1.411   .     A
C469   C471    1.417   .     A
C469   O501    1.385   .     S
C470   C472    1.417   .     A
C470   O503    1.385   .     S
C471   C694    1.466   1_545 S
C472   C693    1.466   .     S
Cu473  Cu474   2.697   .     S
Cu473  O485    1.972   .     S
Cu473  N480    2.026   .     S
Cu473  O484    1.952   .     S
Cu473  O488    1.972   .     S
Cu473  O481    1.951   .     S
Cu474  N479    2.026   .     S
Cu474  O483    1.952   .     S
Cu474  O487    1.972   .     S
Cu474  O482    1.951   .     S
Cu474  O486    1.972   .     S
O489   C533    1.388   .     S
O489   H564    0.990   .     S
H490   O637    0.990   1_455 S
O491   C608    1.388   1_455 S
O491   H640    0.991   1_455 S
H492   O565    0.991   .     S
O493   H494    0.992   .     S
O495   H496    0.989   .     S
O497   H498    0.989   .     S
O499   H500    0.989   .     S
O501   H724    0.988   1_545 S
H502   O723    0.988   .     S
O503   H726    0.988   .     S
H504   O725    0.988   1_545 S
N505   H506    1.046   .     S
N505   H507    1.046   .     S
N508   H509    1.046   .     S
N508   H510    1.046   .     S
O511   H512    0.985   .     S
O513   H514    0.985   .     S
O515   H516    0.985   .     S
O517   H518    0.985   .     S
C519   C539    1.460   .     S
C519   O555    1.300   .     A
C519   O557    1.297   .     A
C520   C540    1.458   .     S
C520   O558    1.297   .     A
C520   O556    1.298   .     A
C521   C529    1.410   .     A
C521   C523    1.418   .     A
C521   N579    1.434   .     S
C522   C530    1.409   .     A
C522   N582    1.434   .     S
C522   C524    1.418   .     A
C523   N553    1.384   .     A
C523   O585    1.373   .     S
C524   O587    1.372   .     S
C524   N554    1.383   .     A
C525   N553    1.381   .     A
C525   O589    1.371   .     S
C525   C527    1.406   .     A
C526   C528    1.407   .     A
C526   O591    1.371   .     S
C526   N554    1.381   .     A
C527   H551    1.082   .     S
C527   C529    1.402   .     A
C528   H552    1.082   .     S
C528   C530    1.402   .     A
C530   C85     1.520   1_556 S
C531   O561    1.298   .     A
C531   O559    1.290   .     A
C531   C533    1.449   .     S
C532   O560    1.290   .     A
C532   C534    1.448   .     S
C532   O562    1.297   .     A
C534   C607    1.354   .     S
C534   O639    1.388   .     S
C535   H549    1.084   .     S
C535   C545    1.397   .     A
C535   C537    1.397   .     A
C536   H550    1.084   .     S
C536   C538    1.388   .     A
C536   C546    1.397   .     A
C537   C539    1.403   .     A
C537   O567    1.381   .     S
C538   C540    1.415   .     A
C538   O569    1.383   .     S
C539   C541    1.409   .     A
C540   C542    1.409   .     A
C541   O571    1.385   .     S
C541   C543    1.412   .     A
C542   O573    1.385   .     S
C542   C544    1.411   .     A
C543   C545    1.417   .     A
C543   O575    1.385   .     S
C544   C546    1.417   .     A
C544   O577    1.385   .     S
C545   C768    1.466   1_545 S
C546   C767    1.466   .     S
Cu547  Cu548   2.697   .     S
Cu547  O559    1.972   .     S
Cu547  N554    2.026   .     S
Cu547  O558    1.952   .     S
Cu547  O562    1.972   .     S
Cu547  O555    1.951   .     S
Cu548  N553    2.026   .     S
Cu548  O557    1.952   .     S
Cu548  O561    1.972   .     S
Cu548  O556    1.951   .     S
Cu548  O560    1.972   .     S
O563   C607    1.388   .     S
O563   H638    0.990   .     S
H566   O639    0.991   .     S
O567   H568    0.992   .     S
O569   H570    0.989   .     S
O571   H572    0.989   .     S
O573   H574    0.989   .     S
O575   H798    0.988   1_545 S
H576   O797    0.988   .     S
O577   H800    0.988   .     S
H578   O799    0.988   1_545 S
N579   H580    1.046   .     S
N579   H581    1.046   .     S
N582   H583    1.046   .     S
N582   H584    1.046   .     S
O585   H586    0.985   .     S
O587   H588    0.985   .     S
O589   H590    0.985   .     S
O591   H592    0.985   .     S
C593   C613    1.460   .     S
C593   O629    1.300   .     A
C593   O631    1.297   .     A
C594   C614    1.458   .     S
C594   O632    1.297   .     A
C594   O630    1.298   .     A
C595   C603    1.410   .     A
C595   C597    1.418   .     A
C595   N653    1.434   .     S
C596   C604    1.409   .     A
C596   N656    1.434   .     S
C596   C598    1.418   .     A
C597   N627    1.384   .     A
C597   O659    1.373   .     S
C598   O661    1.372   .     S
C598   N628    1.383   .     A
C599   N627    1.381   .     A
C599   O663    1.371   .     S
C599   C601    1.406   .     A
C600   C602    1.407   .     A
C600   O665    1.371   .     S
C600   N628    1.381   .     A
C601   H625    1.082   .     S
C601   C603    1.402   .     A
C602   H626    1.082   .     S
C602   C604    1.402   .     A
C604   C159    1.520   1_556 S
C605   O635    1.298   .     A
C605   O633    1.290   .     A
C605   C607    1.449   .     S
C606   O634    1.290   .     A
C606   C608    1.448   .     S
C606   O636    1.297   .     A
C608   C459    1.354   1_655 S
C608   O491    1.388   1_655 S
C609   H623    1.084   .     S
C609   C619    1.397   .     A
C609   C611    1.397   .     A
C610   H624    1.084   .     S
C610   C612    1.388   .     A
C610   C620    1.397   .     A
C611   C613    1.403   .     A
C611   O641    1.381   .     S
C612   C614    1.415   .     A
C612   O643    1.383   .     S
C613   C615    1.409   .     A
C614   C616    1.409   .     A
C615   O645    1.385   .     S
C615   C617    1.412   .     A
C616   O647    1.385   .     S
C616   C618    1.411   .     A
C617   C619    1.417   .     A
C617   O649    1.385   .     S
C618   C620    1.417   .     A
C618   O651    1.385   .     S
C619   C842    1.466   1_545 S
C620   C841    1.466   .     S
Cu621  Cu622   2.697   .     S
Cu621  O633    1.972   .     S
Cu621  N628    2.026   .     S
Cu621  O632    1.952   .     S
Cu621  O636    1.972   .     S
Cu621  O629    1.951   .     S
Cu622  N627    2.026   .     S
Cu622  O631    1.952   .     S
Cu622  O635    1.972   .     S
Cu622  O630    1.951   .     S
Cu622  O634    1.972   .     S
O637   C459    1.388   1_655 S
O637   H490    0.990   1_655 S
H640   O491    0.991   1_655 S
O641   H642    0.992   .     S
O643   H644    0.989   .     S
O645   H646    0.989   .     S
O647   H648    0.989   .     S
O649   H872    0.988   1_545 S
H650   O871    0.988   .     S
O651   H874    0.988   .     S
H652   O873    0.988   1_545 S
N653   H654    1.046   .     S
N653   H655    1.046   .     S
N656   H657    1.046   .     S
N656   H658    1.046   .     S
O659   H660    0.985   .     S
O661   H662    0.985   .     S
O663   H664    0.985   .     S
O665   H666    0.985   .     S
C667   C687    1.460   .     S
C667   O703    1.300   .     A
C667   O705    1.297   .     A
C668   C688    1.458   .     S
C668   O706    1.297   .     A
C668   O704    1.298   .     A
C669   C677    1.410   .     A
C669   C671    1.418   .     A
C669   N727    1.434   .     S
C670   C678    1.409   .     A
C670   N730    1.434   .     S
C670   C672    1.418   .     A
C671   N701    1.384   .     A
C671   O733    1.373   .     S
C672   O735    1.372   .     S
C672   N702    1.383   .     A
C673   N701    1.381   .     A
C673   O737    1.371   .     S
C673   C675    1.406   .     A
C674   C676    1.407   .     A
C674   O739    1.371   .     S
C674   N702    1.381   .     A
C675   H699    1.082   .     S
C675   C677    1.402   .     A
C676   H700    1.082   .     S
C676   C678    1.402   .     A
C678   C233    1.520   1_556 S
C679   O709    1.298   .     A
C679   O707    1.290   .     A
C679   C681    1.449   .     S
C680   O708    1.290   .     A
C680   C682    1.448   .     S
C680   O710    1.297   .     A
C681   C830    1.354   1_455 S
C681   O859    1.388   1_455 S
C682   C755    1.354   .     S
C682   O787    1.388   .     S
C683   H697    1.084   .     S
C683   C693    1.397   .     A
C683   C685    1.397   .     A
C684   H698    1.084   .     S
C684   C686    1.388   .     A
C684   C694    1.397   .     A
C685   C687    1.403   .     A
C685   O715    1.381   .     S
C686   C688    1.415   .     A
C686   O717    1.383   .     S
C687   C689    1.409   .     A
C688   C690    1.409   .     A
C689   O719    1.385   .     S
C689   C691    1.412   .     A
C690   O721    1.385   .     S
C690   C692    1.411   .     A
C691   C693    1.417   .     A
C691   O723    1.385   .     S
C692   C694    1.417   .     A
C692   O725    1.385   .     S
C694   C471    1.466   1_565 S
Cu695  Cu696   2.697   .     S
Cu695  O707    1.972   .     S
Cu695  N702    2.026   .     S
Cu695  O706    1.952   .     S
Cu695  O710    1.972   .     S
Cu695  O703    1.951   .     S
Cu696  N701    2.026   .     S
Cu696  O705    1.952   .     S
Cu696  O709    1.972   .     S
Cu696  O704    1.951   .     S
Cu696  O708    1.972   .     S
O711   C755    1.388   .     S
O711   H786    0.990   .     S
H712   O859    0.990   1_455 S
O713   C830    1.388   1_455 S
O713   H862    0.991   1_455 S
H714   O787    0.991   .     S
O715   H716    0.992   .     S
O717   H718    0.989   .     S
O719   H720    0.989   .     S
O721   H722    0.989   .     S
H724   O501    0.988   1_565 S
O725   H504    0.988   1_565 S
N727   H728    1.046   .     S
N727   H729    1.046   .     S
N730   H731    1.046   .     S
N730   H732    1.046   .     S
O733   H734    0.985   .     S
O735   H736    0.985   .     S
O737   H738    0.985   .     S
O739   H740    0.985   .     S
C741   C761    1.460   .     S
C741   O777    1.300   .     A
C741   O779    1.297   .     A
C742   C762    1.458   .     S
C742   O780    1.297   .     A
C742   O778    1.298   .     A
C743   C751    1.410   .     A
C743   C745    1.418   .     A
C743   N801    1.434   .     S
C744   C752    1.409   .     A
C744   N804    1.434   .     S
C744   C746    1.418   .     A
C745   N775    1.384   .     A
C745   O807    1.373   .     S
C746   O809    1.372   .     S
C746   N776    1.383   .     A
C747   N775    1.381   .     A
C747   O811    1.371   .     S
C747   C749    1.406   .     A
C748   C750    1.407   .     A
C748   O813    1.371   .     S
C748   N776    1.381   .     A
C749   H773    1.082   .     S
C749   C751    1.402   .     A
C750   H774    1.082   .     S
C750   C752    1.402   .     A
C752   C307    1.520   1_556 S
C753   O783    1.298   .     A
C753   O781    1.290   .     A
C753   C755    1.449   .     S
C754   O782    1.290   .     A
C754   C756    1.448   .     S
C754   O784    1.297   .     A
C756   C829    1.354   .     S
C756   O861    1.388   .     S
C757   H771    1.084   .     S
C757   C767    1.397   .     A
C757   C759    1.397   .     A
C758   H772    1.084   .     S
C758   C760    1.388   .     A
C758   C768    1.397   .     A
C759   C761    1.403   .     A
C759   O789    1.381   .     S
C760   C762    1.415   .     A
C760   O791    1.383   .     S
C761   C763    1.409   .     A
C762   C764    1.409   .     A
C763   O793    1.385   .     S
C763   C765    1.412   .     A
C764   O795    1.385   .     S
C764   C766    1.411   .     A
C765   C767    1.417   .     A
C765   O797    1.385   .     S
C766   C768    1.417   .     A
C766   O799    1.385   .     S
C768   C545    1.466   1_565 S
Cu769  Cu770   2.697   .     S
Cu769  O781    1.972   .     S
Cu769  N776    2.026   .     S
Cu769  O780    1.952   .     S
Cu769  O784    1.972   .     S
Cu769  O777    1.951   .     S
Cu770  N775    2.026   .     S
Cu770  O779    1.952   .     S
Cu770  O783    1.972   .     S
Cu770  O778    1.951   .     S
Cu770  O782    1.972   .     S
O785   C829    1.388   .     S
O785   H860    0.990   .     S
H788   O861    0.991   .     S
O789   H790    0.992   .     S
O791   H792    0.989   .     S
O793   H794    0.989   .     S
O795   H796    0.989   .     S
H798   O575    0.988   1_565 S
O799   H578    0.988   1_565 S
N801   H802    1.046   .     S
N801   H803    1.046   .     S
N804   H805    1.046   .     S
N804   H806    1.046   .     S
O807   H808    0.985   .     S
O809   H810    0.985   .     S
O811   H812    0.985   .     S
O813   H814    0.985   .     S
C815   C835    1.460   .     S
C815   O851    1.300   .     A
C815   O853    1.297   .     A
C816   C836    1.458   .     S
C816   O854    1.297   .     A
C816   O852    1.298   .     A
C817   C825    1.410   .     A
C817   C819    1.418   .     A
C817   N875    1.434   .     S
C818   C826    1.409   .     A
C818   N878    1.434   .     S
C818   C820    1.418   .     A
C819   N849    1.384   .     A
C819   O881    1.373   .     S
C820   O883    1.372   .     S
C820   N850    1.383   .     A
C821   N849    1.381   .     A
C821   O885    1.371   .     S
C821   C823    1.406   .     A
C822   C824    1.407   .     A
C822   O887    1.371   .     S
C822   N850    1.381   .     A
C823   H847    1.082   .     S
C823   C825    1.402   .     A
C824   H848    1.082   .     S
C824   C826    1.402   .     A
C826   C381    1.520   1_556 S
C827   O857    1.298   .     A
C827   O855    1.290   .     A
C827   C829    1.449   .     S
C828   O856    1.290   .     A
C828   C830    1.448   .     S
C828   O858    1.297   .     A
C830   C681    1.354   1_655 S
C830   O713    1.388   1_655 S
C831   H845    1.084   .     S
C831   C841    1.397   .     A
C831   C833    1.397   .     A
C832   H846    1.084   .     S
C832   C834    1.388   .     A
C832   C842    1.397   .     A
C833   C835    1.403   .     A
C833   O863    1.381   .     S
C834   C836    1.415   .     A
C834   O865    1.383   .     S
C835   C837    1.409   .     A
C836   C838    1.409   .     A
C837   O867    1.385   .     S
C837   C839    1.412   .     A
C838   O869    1.385   .     S
C838   C840    1.411   .     A
C839   C841    1.417   .     A
C839   O871    1.385   .     S
C840   C842    1.417   .     A
C840   O873    1.385   .     S
C842   C619    1.466   1_565 S
Cu843  Cu844   2.697   .     S
Cu843  O855    1.972   .     S
Cu843  N850    2.026   .     S
Cu843  O854    1.952   .     S
Cu843  O858    1.972   .     S
Cu843  O851    1.951   .     S
Cu844  N849    2.026   .     S
Cu844  O853    1.952   .     S
Cu844  O857    1.972   .     S
Cu844  O852    1.951   .     S
Cu844  O856    1.972   .     S
O859   C681    1.388   1_655 S
O859   H712    0.990   1_655 S
H862   O713    0.991   1_655 S
O863   H864    0.992   .     S
O865   H866    0.989   .     S
O867   H868    0.989   .     S
O869   H870    0.989   .     S
H872   O649    0.988   1_565 S
O873   H652    0.988   1_565 S
N875   H876    1.046   .     S
N875   H877    1.046   .     S
N878   H879    1.046   .     S
N878   H880    1.046   .     S
O881   H882    0.985   .     S
O883   H884    0.985   .     S
O885   H886    0.985   .     S
O887   H888    0.985   .     S
