data_str_m2_o1_o5_pcu_sym.9
_audit_creation_date              2020-01-03
_audit_creation_method            'Materials Studio'
_symmetry_space_group_name_H-M    'P1'
_symmetry_Int_Tables_number       1
_symmetry_cell_setting            triclinic
loop_
_symmetry_equiv_pos_as_xyz
  x,y,z
_cell_length_a                    32.2565
_cell_length_b                    29.3239
_cell_length_c                    27.1468
_cell_angle_alpha                 89.5124
_cell_angle_beta                  94.5853
_cell_angle_gamma                 89.7099
loop_
_atom_site_label
_atom_site_type_symbol
_atom_site_fract_x
_atom_site_fract_y
_atom_site_fract_z
_atom_site_U_iso_or_equiv
_atom_site_adp_type
_atom_site_occupancy
C1     C     0.08759   0.16667   0.16674   0.00000  Uiso   1.00
C2     C     0.01897   0.19959   0.14033   0.00000  Uiso   1.00
C3     C     0.29025   0.16597   0.16699   0.00000  Uiso   1.00
C4     C     0.04275   0.16626   0.16678   0.00000  Uiso   1.00
C5     C     0.14181   0.02472   0.13224   0.00000  Uiso   1.00
C6     C     0.19758   0.30927   0.19275   0.00000  Uiso   1.00
C7     C     0.19217   0.02391   0.19974   0.00000  Uiso   1.00
C8     C     0.13667   0.30979   0.13880   0.00000  Uiso   1.00
C9     C     0.12351   0.04498   0.08266   0.00000  Uiso   1.00
C10    C     0.08384   0.07446   0.08477   0.00000  Uiso   1.00
C11    C     0.05122   0.06698   0.04169   0.00000  Uiso   1.00
C12    C     0.24565   0.16648   0.16714   0.00000  Uiso   1.00
C13    C     0.24203   0.29199   0.20405   0.00000  Uiso   1.00
C14    C     0.24975   0.26613   0.25362   0.00000  Uiso   1.00
C15    C     0.29617   0.26220   0.26943   0.00000  Uiso   1.00
C16    C     0.21108   0.04462   0.24751   0.00000  Uiso   1.00
C17    C     0.18279   0.03966   0.29085   0.00000  Uiso   1.00
C18    C     0.13648   0.03180   0.27574   0.00000  Uiso   1.00
C19    C     0.09509   0.29052   0.11779   0.00000  Uiso   1.00
C20    C     0.09706   0.26222   0.07006   0.00000  Uiso   1.00
C21    C     0.06117   0.27201   0.03098   0.00000  Uiso   1.00
C22    C     0.16667   0.16678   0.07381   0.00000  Uiso   1.00
C23    C     0.16671   0.16656   0.25952   0.00000  Uiso   1.00
C24    C     0.16659   0.16686   0.02191   0.00000  Uiso   1.00
C25    C     0.16660   0.16658   0.31141   0.00000  Uiso   1.00
C26    C     0.02334   0.13179   0.19239   0.00000  Uiso   1.00
C27    C     0.30957   0.19970   0.14064   0.00000  Uiso   1.00
C28    C     0.31367   0.13158   0.19241   0.00000  Uiso   1.00
Cu29   Cu    0.16667   0.21355   0.16667   0.00000  Uiso   1.00
Cu30   Cu    0.16667   0.11978   0.16667   0.00000  Uiso   1.00
H31    H     0.04140   0.10550   0.21271   0.00000  Uiso   1.00
H32    H     0.14765   0.06129   0.06226   0.00000  Uiso   1.00
H33    H     0.11604   0.01691   0.05677   0.00000  Uiso   1.00
H34    H     0.31265   0.24442   0.24069   0.00000  Uiso   1.00
H35    H     0.30985   0.29658   0.27561   0.00000  Uiso   1.00
H36    H     0.30075   0.24235   0.30448   0.00000  Uiso   1.00
H37    H     0.23420   0.28389   0.28305   0.00000  Uiso   1.00
H38    H     0.23722   0.23129   0.25115   0.00000  Uiso   1.00
H39    H     0.25358   0.27466   0.17212   0.00000  Uiso   1.00
H40    H     0.26373   0.32132   0.20453   0.00000  Uiso   1.00
H41    H     0.12318   0.05920   0.25084   0.00000  Uiso   1.00
H42    H     0.29161   0.22551   0.11947   0.00000  Uiso   1.00
H43    H     0.13186   0.33166   0.25736   0.00000  Uiso   1.00
H44    H     0.11895   0.03113   0.30894   0.00000  Uiso   1.00
H45    H     0.19392   0.01041   0.31472   0.00000  Uiso   1.00
H46    H     0.18608   0.07044   0.31430   0.00000  Uiso   1.00
H47    H     0.24118   0.02887   0.26057   0.00000  Uiso   1.00
H48    H     0.22132   0.07976   0.24163   0.00000  Uiso   1.00
H49    H     0.03099   0.27430   0.04783   0.00000  Uiso   1.00
H50    H     0.06680   0.30405   0.01073   0.00000  Uiso   1.00
H51    H     0.05919   0.24410   0.00349   0.00000  Uiso   1.00
H52    H     0.12656   0.26886   0.05277   0.00000  Uiso   1.00
H53    H     0.29879   0.10515   0.21273   0.00000  Uiso   1.00
H54    H     0.09527   0.22552   0.07905   0.00000  Uiso   1.00
H55    H     0.07939   0.27397   0.14745   0.00000  Uiso   1.00
H56    H     0.07241   0.31861   0.10988   0.00000  Uiso   1.00
H57    H     0.03294   0.22477   0.11824   0.00000  Uiso   1.00
H58    H     0.06492   0.07155   0.00581   0.00000  Uiso   1.00
H59    H     0.03731   0.03269   0.04411   0.00000  Uiso   1.00
H60    H     0.02577   0.09242   0.04354   0.00000  Uiso   1.00
H61    H     0.06884   0.06739   0.11946   0.00000  Uiso   1.00
H62    H     0.09214   0.11090   0.08250   0.00000  Uiso   1.00
N63    N     0.16667   0.28402   0.16667   0.00000  Uiso   1.00
N64    N     0.16667   0.04931   0.16667   0.00000  Uiso   1.00
O65    O     0.10655   0.20625   0.16666   0.00000  Uiso   1.00
O66    O     0.22679   0.12709   0.16667   0.00000  Uiso   1.00
O67    O     0.22679   0.20625   0.16667   0.00000  Uiso   1.00
O68    O     0.10655   0.12709   0.16666   0.00000  Uiso   1.00
O69    O     0.16667   0.20625   0.09613   0.00000  Uiso   1.00
O70    O     0.16667   0.12708   0.23720   0.00000  Uiso   1.00
O71    O     0.16667   0.20625   0.23720   0.00000  Uiso   1.00
O72    O     0.16667   0.12708   0.09613   0.00000  Uiso   1.00
C73    C     0.42092   0.16667   0.16674   0.00000  Uiso   1.00
C74    C     0.35230   0.19959   0.14033   0.00000  Uiso   1.00
C75    C     0.62358   0.16597   0.16699   0.00000  Uiso   1.00
C76    C     0.37609   0.16626   0.16678   0.00000  Uiso   1.00
C77    C     0.47515   0.02472   0.13224   0.00000  Uiso   1.00
C78    C     0.53091   0.30927   0.19275   0.00000  Uiso   1.00
C79    C     0.52550   0.02391   0.19974   0.00000  Uiso   1.00
C80    C     0.47001   0.30979   0.13880   0.00000  Uiso   1.00
C81    C     0.45685   0.04498   0.08266   0.00000  Uiso   1.00
C82    C     0.41717   0.07446   0.08477   0.00000  Uiso   1.00
C83    C     0.38455   0.06698   0.04169   0.00000  Uiso   1.00
C84    C     0.57898   0.16648   0.16714   0.00000  Uiso   1.00
C85    C     0.57537   0.29199   0.20405   0.00000  Uiso   1.00
C86    C     0.58308   0.26613   0.25362   0.00000  Uiso   1.00
C87    C     0.62950   0.26220   0.26943   0.00000  Uiso   1.00
C88    C     0.54441   0.04462   0.24751   0.00000  Uiso   1.00
C89    C     0.51612   0.03966   0.29085   0.00000  Uiso   1.00
C90    C     0.46982   0.03180   0.27574   0.00000  Uiso   1.00
C91    C     0.42842   0.29052   0.11779   0.00000  Uiso   1.00
C92    C     0.43040   0.26222   0.07006   0.00000  Uiso   1.00
C93    C     0.39451   0.27201   0.03098   0.00000  Uiso   1.00
C94    C     0.50000   0.16678   0.07381   0.00000  Uiso   1.00
C95    C     0.50004   0.16656   0.25952   0.00000  Uiso   1.00
C96    C     0.49993   0.16686   0.02191   0.00000  Uiso   1.00
C97    C     0.49993   0.16658   0.31141   0.00000  Uiso   1.00
C98    C     0.35667   0.13179   0.19239   0.00000  Uiso   1.00
C99    C     0.64291   0.19970   0.14064   0.00000  Uiso   1.00
C100   C     0.64700   0.13158   0.19241   0.00000  Uiso   1.00
Cu101  Cu    0.50000   0.21355   0.16667   0.00000  Uiso   1.00
Cu102  Cu    0.50000   0.11978   0.16667   0.00000  Uiso   1.00
H103   H     0.37473   0.10550   0.21271   0.00000  Uiso   1.00
H104   H     0.48098   0.06129   0.06226   0.00000  Uiso   1.00
H105   H     0.44937   0.01691   0.05677   0.00000  Uiso   1.00
H106   H     0.64598   0.24442   0.24069   0.00000  Uiso   1.00
H107   H     0.64318   0.29658   0.27561   0.00000  Uiso   1.00
H108   H     0.63408   0.24235   0.30448   0.00000  Uiso   1.00
H109   H     0.56754   0.28389   0.28305   0.00000  Uiso   1.00
H110   H     0.57055   0.23129   0.25115   0.00000  Uiso   1.00
H111   H     0.58692   0.27466   0.17212   0.00000  Uiso   1.00
H112   H     0.59706   0.32132   0.20453   0.00000  Uiso   1.00
H113   H     0.45652   0.05920   0.25084   0.00000  Uiso   1.00
H114   H     0.62494   0.22551   0.11947   0.00000  Uiso   1.00
H115   H     0.46520   0.33166   0.25736   0.00000  Uiso   1.00
H116   H     0.45229   0.03113   0.30894   0.00000  Uiso   1.00
H117   H     0.52726   0.01041   0.31472   0.00000  Uiso   1.00
H118   H     0.51941   0.07044   0.31430   0.00000  Uiso   1.00
H119   H     0.57451   0.02887   0.26057   0.00000  Uiso   1.00
H120   H     0.55465   0.07976   0.24163   0.00000  Uiso   1.00
H121   H     0.36433   0.27430   0.04783   0.00000  Uiso   1.00
H122   H     0.40014   0.30405   0.01073   0.00000  Uiso   1.00
H123   H     0.39252   0.24410   0.00349   0.00000  Uiso   1.00
H124   H     0.45989   0.26886   0.05277   0.00000  Uiso   1.00
H125   H     0.63212   0.10515   0.21273   0.00000  Uiso   1.00
H126   H     0.42861   0.22552   0.07905   0.00000  Uiso   1.00
H127   H     0.41272   0.27397   0.14745   0.00000  Uiso   1.00
H128   H     0.40574   0.31861   0.10988   0.00000  Uiso   1.00
H129   H     0.36628   0.22477   0.11824   0.00000  Uiso   1.00
H130   H     0.39825   0.07155   0.00581   0.00000  Uiso   1.00
H131   H     0.37064   0.03269   0.04411   0.00000  Uiso   1.00
H132   H     0.35910   0.09242   0.04354   0.00000  Uiso   1.00
H133   H     0.40218   0.06739   0.11946   0.00000  Uiso   1.00
H134   H     0.42547   0.11090   0.08250   0.00000  Uiso   1.00
N135   N     0.50000   0.28402   0.16667   0.00000  Uiso   1.00
N136   N     0.50000   0.04931   0.16667   0.00000  Uiso   1.00
O137   O     0.43988   0.20625   0.16666   0.00000  Uiso   1.00
O138   O     0.56012   0.12709   0.16667   0.00000  Uiso   1.00
O139   O     0.56012   0.20625   0.16667   0.00000  Uiso   1.00
O140   O     0.43988   0.12709   0.16666   0.00000  Uiso   1.00
O141   O     0.50000   0.20625   0.09613   0.00000  Uiso   1.00
O142   O     0.50000   0.12708   0.23720   0.00000  Uiso   1.00
O143   O     0.50000   0.20625   0.23720   0.00000  Uiso   1.00
O144   O     0.50000   0.12708   0.09613   0.00000  Uiso   1.00
C145   C     0.75426   0.16667   0.16674   0.00000  Uiso   1.00
C146   C     0.68564   0.19959   0.14033   0.00000  Uiso   1.00
C147   C     0.95692   0.16597   0.16699   0.00000  Uiso   1.00
C148   C     0.70942   0.16626   0.16678   0.00000  Uiso   1.00
C149   C     0.80848   0.02472   0.13224   0.00000  Uiso   1.00
C150   C     0.86425   0.30927   0.19275   0.00000  Uiso   1.00
C151   C     0.85884   0.02391   0.19974   0.00000  Uiso   1.00
C152   C     0.80334   0.30979   0.13880   0.00000  Uiso   1.00
C153   C     0.79018   0.04498   0.08266   0.00000  Uiso   1.00
C154   C     0.75051   0.07446   0.08477   0.00000  Uiso   1.00
C155   C     0.71789   0.06698   0.04169   0.00000  Uiso   1.00
C156   C     0.91232   0.16648   0.16714   0.00000  Uiso   1.00
C157   C     0.90870   0.29199   0.20405   0.00000  Uiso   1.00
C158   C     0.91642   0.26613   0.25362   0.00000  Uiso   1.00
C159   C     0.96284   0.26220   0.26943   0.00000  Uiso   1.00
C160   C     0.87774   0.04462   0.24751   0.00000  Uiso   1.00
C161   C     0.84945   0.03966   0.29085   0.00000  Uiso   1.00
C162   C     0.80315   0.03180   0.27574   0.00000  Uiso   1.00
C163   C     0.76175   0.29052   0.11779   0.00000  Uiso   1.00
C164   C     0.76373   0.26222   0.07006   0.00000  Uiso   1.00
C165   C     0.72784   0.27201   0.03098   0.00000  Uiso   1.00
C166   C     0.83334   0.16678   0.07381   0.00000  Uiso   1.00
C167   C     0.83338   0.16656   0.25952   0.00000  Uiso   1.00
C168   C     0.83326   0.16686   0.02191   0.00000  Uiso   1.00
C169   C     0.83327   0.16658   0.31141   0.00000  Uiso   1.00
C170   C     0.69000   0.13179   0.19239   0.00000  Uiso   1.00
C171   C     0.97624   0.19970   0.14064   0.00000  Uiso   1.00
C172   C     0.98033   0.13158   0.19241   0.00000  Uiso   1.00
Cu173  Cu    0.83333   0.21355   0.16667   0.00000  Uiso   1.00
Cu174  Cu    0.83333   0.11978   0.16667   0.00000  Uiso   1.00
H175   H     0.70806   0.10550   0.21271   0.00000  Uiso   1.00
H176   H     0.81432   0.06129   0.06226   0.00000  Uiso   1.00
H177   H     0.78270   0.01691   0.05677   0.00000  Uiso   1.00
H178   H     0.97931   0.24442   0.24069   0.00000  Uiso   1.00
H179   H     0.97651   0.29658   0.27561   0.00000  Uiso   1.00
H180   H     0.96742   0.24235   0.30448   0.00000  Uiso   1.00
H181   H     0.90087   0.28389   0.28305   0.00000  Uiso   1.00
H182   H     0.90388   0.23129   0.25115   0.00000  Uiso   1.00
H183   H     0.92025   0.27466   0.17212   0.00000  Uiso   1.00
H184   H     0.93040   0.32132   0.20453   0.00000  Uiso   1.00
H185   H     0.78985   0.05920   0.25084   0.00000  Uiso   1.00
H186   H     0.95828   0.22551   0.11947   0.00000  Uiso   1.00
H187   H     0.79853   0.33166   0.25736   0.00000  Uiso   1.00
H188   H     0.78562   0.03113   0.30894   0.00000  Uiso   1.00
H189   H     0.86059   0.01041   0.31472   0.00000  Uiso   1.00
H190   H     0.85275   0.07044   0.31430   0.00000  Uiso   1.00
H191   H     0.90785   0.02887   0.26057   0.00000  Uiso   1.00
H192   H     0.88799   0.07976   0.24163   0.00000  Uiso   1.00
H193   H     0.69766   0.27430   0.04783   0.00000  Uiso   1.00
H194   H     0.73347   0.30405   0.01073   0.00000  Uiso   1.00
H195   H     0.72585   0.24410   0.00349   0.00000  Uiso   1.00
H196   H     0.79323   0.26886   0.05277   0.00000  Uiso   1.00
H197   H     0.96545   0.10515   0.21273   0.00000  Uiso   1.00
H198   H     0.76194   0.22552   0.07905   0.00000  Uiso   1.00
H199   H     0.74605   0.27397   0.14745   0.00000  Uiso   1.00
H200   H     0.73908   0.31861   0.10988   0.00000  Uiso   1.00
H201   H     0.69961   0.22477   0.11824   0.00000  Uiso   1.00
H202   H     0.73158   0.07155   0.00581   0.00000  Uiso   1.00
H203   H     0.70397   0.03269   0.04411   0.00000  Uiso   1.00
H204   H     0.69244   0.09242   0.04354   0.00000  Uiso   1.00
H205   H     0.73551   0.06739   0.11946   0.00000  Uiso   1.00
H206   H     0.75880   0.11090   0.08250   0.00000  Uiso   1.00
N207   N     0.83333   0.28402   0.16667   0.00000  Uiso   1.00
N208   N     0.83333   0.04931   0.16667   0.00000  Uiso   1.00
O209   O     0.77321   0.20625   0.16666   0.00000  Uiso   1.00
O210   O     0.89345   0.12709   0.16667   0.00000  Uiso   1.00
O211   O     0.89345   0.20625   0.16667   0.00000  Uiso   1.00
O212   O     0.77321   0.12709   0.16666   0.00000  Uiso   1.00
O213   O     0.83333   0.20625   0.09613   0.00000  Uiso   1.00
O214   O     0.83333   0.12708   0.23720   0.00000  Uiso   1.00
O215   O     0.83333   0.20625   0.23720   0.00000  Uiso   1.00
O216   O     0.83333   0.12708   0.09613   0.00000  Uiso   1.00
C217   C     0.08759   0.50000   0.16674   0.00000  Uiso   1.00
C218   C     0.01897   0.53292   0.14033   0.00000  Uiso   1.00
C219   C     0.29025   0.49931   0.16699   0.00000  Uiso   1.00
C220   C     0.04275   0.49960   0.16678   0.00000  Uiso   1.00
C221   C     0.14181   0.35805   0.13224   0.00000  Uiso   1.00
C222   C     0.19758   0.64260   0.19275   0.00000  Uiso   1.00
C223   C     0.19217   0.35724   0.19974   0.00000  Uiso   1.00
C224   C     0.13667   0.64312   0.13880   0.00000  Uiso   1.00
C225   C     0.12351   0.37831   0.08266   0.00000  Uiso   1.00
C226   C     0.08384   0.40780   0.08477   0.00000  Uiso   1.00
C227   C     0.05122   0.40031   0.04169   0.00000  Uiso   1.00
C228   C     0.24565   0.49981   0.16714   0.00000  Uiso   1.00
C229   C     0.24203   0.62532   0.20405   0.00000  Uiso   1.00
C230   C     0.24975   0.59946   0.25362   0.00000  Uiso   1.00
C231   C     0.29617   0.59554   0.26943   0.00000  Uiso   1.00
C232   C     0.21108   0.37795   0.24751   0.00000  Uiso   1.00
C233   C     0.18279   0.37299   0.29085   0.00000  Uiso   1.00
C234   C     0.13648   0.36514   0.27574   0.00000  Uiso   1.00
C235   C     0.09509   0.62385   0.11779   0.00000  Uiso   1.00
C236   C     0.09706   0.59556   0.07006   0.00000  Uiso   1.00
C237   C     0.06117   0.60534   0.03098   0.00000  Uiso   1.00
C238   C     0.16667   0.50012   0.07381   0.00000  Uiso   1.00
C239   C     0.16671   0.49990   0.25952   0.00000  Uiso   1.00
C240   C     0.16659   0.50020   0.02191   0.00000  Uiso   1.00
C241   C     0.16660   0.49991   0.31141   0.00000  Uiso   1.00
C242   C     0.02334   0.46512   0.19239   0.00000  Uiso   1.00
C243   C     0.30957   0.53303   0.14064   0.00000  Uiso   1.00
C244   C     0.31367   0.46491   0.19241   0.00000  Uiso   1.00
Cu245  Cu    0.16667   0.54689   0.16667   0.00000  Uiso   1.00
Cu246  Cu    0.16667   0.45311   0.16667   0.00000  Uiso   1.00
H247   H     0.04140   0.43884   0.21271   0.00000  Uiso   1.00
H248   H     0.14765   0.39462   0.06226   0.00000  Uiso   1.00
H249   H     0.11604   0.35025   0.05677   0.00000  Uiso   1.00
H250   H     0.31265   0.57776   0.24069   0.00000  Uiso   1.00
H251   H     0.30985   0.62991   0.27561   0.00000  Uiso   1.00
H252   H     0.30075   0.57568   0.30448   0.00000  Uiso   1.00
H253   H     0.23420   0.61723   0.28305   0.00000  Uiso   1.00
H254   H     0.23722   0.56463   0.25115   0.00000  Uiso   1.00
H255   H     0.25358   0.60800   0.17212   0.00000  Uiso   1.00
H256   H     0.26373   0.65465   0.20453   0.00000  Uiso   1.00
H257   H     0.12318   0.39253   0.25084   0.00000  Uiso   1.00
H258   H     0.29161   0.55884   0.11947   0.00000  Uiso   1.00
H259   H     0.13186   0.66499   0.25736   0.00000  Uiso   1.00
H260   H     0.11895   0.36446   0.30894   0.00000  Uiso   1.00
H261   H     0.19392   0.34374   0.31472   0.00000  Uiso   1.00
H262   H     0.18608   0.40377   0.31430   0.00000  Uiso   1.00
H263   H     0.24118   0.36220   0.26057   0.00000  Uiso   1.00
H264   H     0.22132   0.41310   0.24163   0.00000  Uiso   1.00
H265   H     0.03099   0.60763   0.04783   0.00000  Uiso   1.00
H266   H     0.06680   0.63738   0.01073   0.00000  Uiso   1.00
H267   H     0.05919   0.57743   0.00349   0.00000  Uiso   1.00
H268   H     0.12656   0.60220   0.05277   0.00000  Uiso   1.00
H269   H     0.29879   0.43848   0.21273   0.00000  Uiso   1.00
H270   H     0.09527   0.55885   0.07905   0.00000  Uiso   1.00
H271   H     0.07939   0.60731   0.14745   0.00000  Uiso   1.00
H272   H     0.07241   0.65194   0.10988   0.00000  Uiso   1.00
H273   H     0.03294   0.55811   0.11824   0.00000  Uiso   1.00
H274   H     0.06492   0.40489   0.00581   0.00000  Uiso   1.00
H275   H     0.03731   0.36602   0.04411   0.00000  Uiso   1.00
H276   H     0.02577   0.42575   0.04354   0.00000  Uiso   1.00
H277   H     0.06884   0.40072   0.11946   0.00000  Uiso   1.00
H278   H     0.09214   0.44423   0.08250   0.00000  Uiso   1.00
N279   N     0.16667   0.61736   0.16667   0.00000  Uiso   1.00
N280   N     0.16667   0.38264   0.16667   0.00000  Uiso   1.00
O281   O     0.10655   0.53958   0.16666   0.00000  Uiso   1.00
O282   O     0.22679   0.46042   0.16667   0.00000  Uiso   1.00
O283   O     0.22679   0.53958   0.16667   0.00000  Uiso   1.00
O284   O     0.10655   0.46042   0.16666   0.00000  Uiso   1.00
O285   O     0.16667   0.53959   0.09613   0.00000  Uiso   1.00
O286   O     0.16667   0.46041   0.23720   0.00000  Uiso   1.00
O287   O     0.16667   0.53959   0.23720   0.00000  Uiso   1.00
O288   O     0.16667   0.46041   0.09613   0.00000  Uiso   1.00
C289   C     0.42092   0.50000   0.16674   0.00000  Uiso   1.00
C290   C     0.35230   0.53292   0.14033   0.00000  Uiso   1.00
C291   C     0.62358   0.49931   0.16699   0.00000  Uiso   1.00
C292   C     0.37609   0.49960   0.16678   0.00000  Uiso   1.00
C293   C     0.47515   0.35805   0.13224   0.00000  Uiso   1.00
C294   C     0.53091   0.64260   0.19275   0.00000  Uiso   1.00
C295   C     0.52550   0.35724   0.19974   0.00000  Uiso   1.00
C296   C     0.47001   0.64312   0.13880   0.00000  Uiso   1.00
C297   C     0.45685   0.37831   0.08266   0.00000  Uiso   1.00
C298   C     0.41717   0.40780   0.08477   0.00000  Uiso   1.00
C299   C     0.38455   0.40031   0.04169   0.00000  Uiso   1.00
C300   C     0.57898   0.49981   0.16714   0.00000  Uiso   1.00
C301   C     0.57537   0.62532   0.20405   0.00000  Uiso   1.00
C302   C     0.58308   0.59946   0.25362   0.00000  Uiso   1.00
C303   C     0.62950   0.59554   0.26943   0.00000  Uiso   1.00
C304   C     0.54441   0.37795   0.24751   0.00000  Uiso   1.00
C305   C     0.51612   0.37299   0.29085   0.00000  Uiso   1.00
C306   C     0.46982   0.36514   0.27574   0.00000  Uiso   1.00
C307   C     0.42842   0.62385   0.11779   0.00000  Uiso   1.00
C308   C     0.43040   0.59556   0.07006   0.00000  Uiso   1.00
C309   C     0.39451   0.60534   0.03098   0.00000  Uiso   1.00
C310   C     0.50000   0.50012   0.07381   0.00000  Uiso   1.00
C311   C     0.50004   0.49990   0.25952   0.00000  Uiso   1.00
C312   C     0.49993   0.50020   0.02191   0.00000  Uiso   1.00
C313   C     0.49993   0.49991   0.31141   0.00000  Uiso   1.00
C314   C     0.35667   0.46512   0.19239   0.00000  Uiso   1.00
C315   C     0.64291   0.53303   0.14064   0.00000  Uiso   1.00
C316   C     0.64700   0.46491   0.19241   0.00000  Uiso   1.00
Cu317  Cu    0.50000   0.54689   0.16667   0.00000  Uiso   1.00
Cu318  Cu    0.50000   0.45311   0.16667   0.00000  Uiso   1.00
H319   H     0.37473   0.43884   0.21271   0.00000  Uiso   1.00
H320   H     0.48098   0.39462   0.06226   0.00000  Uiso   1.00
H321   H     0.44937   0.35025   0.05677   0.00000  Uiso   1.00
H322   H     0.64598   0.57776   0.24069   0.00000  Uiso   1.00
H323   H     0.64318   0.62991   0.27561   0.00000  Uiso   1.00
H324   H     0.63408   0.57568   0.30448   0.00000  Uiso   1.00
H325   H     0.56754   0.61723   0.28305   0.00000  Uiso   1.00
H326   H     0.57055   0.56463   0.25115   0.00000  Uiso   1.00
H327   H     0.58692   0.60800   0.17212   0.00000  Uiso   1.00
H328   H     0.59706   0.65465   0.20453   0.00000  Uiso   1.00
H329   H     0.45652   0.39253   0.25084   0.00000  Uiso   1.00
H330   H     0.62494   0.55884   0.11947   0.00000  Uiso   1.00
H331   H     0.46520   0.66499   0.25736   0.00000  Uiso   1.00
H332   H     0.45229   0.36446   0.30894   0.00000  Uiso   1.00
H333   H     0.52726   0.34374   0.31472   0.00000  Uiso   1.00
H334   H     0.51941   0.40377   0.31430   0.00000  Uiso   1.00
H335   H     0.57451   0.36220   0.26057   0.00000  Uiso   1.00
H336   H     0.55465   0.41310   0.24163   0.00000  Uiso   1.00
H337   H     0.36433   0.60763   0.04783   0.00000  Uiso   1.00
H338   H     0.40014   0.63738   0.01073   0.00000  Uiso   1.00
H339   H     0.39252   0.57743   0.00349   0.00000  Uiso   1.00
H340   H     0.45989   0.60220   0.05277   0.00000  Uiso   1.00
H341   H     0.63212   0.43848   0.21273   0.00000  Uiso   1.00
H342   H     0.42861   0.55885   0.07905   0.00000  Uiso   1.00
H343   H     0.41272   0.60731   0.14745   0.00000  Uiso   1.00
H344   H     0.40574   0.65194   0.10988   0.00000  Uiso   1.00
H345   H     0.36628   0.55811   0.11824   0.00000  Uiso   1.00
H346   H     0.39825   0.40489   0.00581   0.00000  Uiso   1.00
H347   H     0.37064   0.36602   0.04411   0.00000  Uiso   1.00
H348   H     0.35910   0.42575   0.04354   0.00000  Uiso   1.00
H349   H     0.40218   0.40072   0.11946   0.00000  Uiso   1.00
H350   H     0.42547   0.44423   0.08250   0.00000  Uiso   1.00
N351   N     0.50000   0.61736   0.16667   0.00000  Uiso   1.00
N352   N     0.50000   0.38264   0.16667   0.00000  Uiso   1.00
O353   O     0.43988   0.53958   0.16666   0.00000  Uiso   1.00
O354   O     0.56012   0.46042   0.16667   0.00000  Uiso   1.00
O355   O     0.56012   0.53958   0.16667   0.00000  Uiso   1.00
O356   O     0.43988   0.46042   0.16666   0.00000  Uiso   1.00
O357   O     0.50000   0.53959   0.09613   0.00000  Uiso   1.00
O358   O     0.50000   0.46041   0.23720   0.00000  Uiso   1.00
O359   O     0.50000   0.53959   0.23720   0.00000  Uiso   1.00
O360   O     0.50000   0.46041   0.09613   0.00000  Uiso   1.00
C361   C     0.75426   0.50000   0.16674   0.00000  Uiso   1.00
C362   C     0.68564   0.53292   0.14033   0.00000  Uiso   1.00
C363   C     0.95692   0.49931   0.16699   0.00000  Uiso   1.00
C364   C     0.70942   0.49960   0.16678   0.00000  Uiso   1.00
C365   C     0.80848   0.35805   0.13224   0.00000  Uiso   1.00
C366   C     0.86425   0.64260   0.19275   0.00000  Uiso   1.00
C367   C     0.85884   0.35724   0.19974   0.00000  Uiso   1.00
C368   C     0.80334   0.64312   0.13880   0.00000  Uiso   1.00
C369   C     0.79018   0.37831   0.08266   0.00000  Uiso   1.00
C370   C     0.75051   0.40780   0.08477   0.00000  Uiso   1.00
C371   C     0.71789   0.40031   0.04169   0.00000  Uiso   1.00
C372   C     0.91232   0.49981   0.16714   0.00000  Uiso   1.00
C373   C     0.90870   0.62532   0.20405   0.00000  Uiso   1.00
C374   C     0.91642   0.59946   0.25362   0.00000  Uiso   1.00
C375   C     0.96284   0.59554   0.26943   0.00000  Uiso   1.00
C376   C     0.87774   0.37795   0.24751   0.00000  Uiso   1.00
C377   C     0.84945   0.37299   0.29085   0.00000  Uiso   1.00
C378   C     0.80315   0.36514   0.27574   0.00000  Uiso   1.00
C379   C     0.76175   0.62385   0.11779   0.00000  Uiso   1.00
C380   C     0.76373   0.59556   0.07006   0.00000  Uiso   1.00
C381   C     0.72784   0.60534   0.03098   0.00000  Uiso   1.00
C382   C     0.83334   0.50012   0.07381   0.00000  Uiso   1.00
C383   C     0.83338   0.49990   0.25952   0.00000  Uiso   1.00
C384   C     0.83326   0.50020   0.02191   0.00000  Uiso   1.00
C385   C     0.83327   0.49991   0.31141   0.00000  Uiso   1.00
C386   C     0.69000   0.46512   0.19239   0.00000  Uiso   1.00
C387   C     0.97624   0.53303   0.14064   0.00000  Uiso   1.00
C388   C     0.98033   0.46491   0.19241   0.00000  Uiso   1.00
Cu389  Cu    0.83333   0.54689   0.16667   0.00000  Uiso   1.00
Cu390  Cu    0.83333   0.45311   0.16667   0.00000  Uiso   1.00
H391   H     0.70806   0.43884   0.21271   0.00000  Uiso   1.00
H392   H     0.81432   0.39462   0.06226   0.00000  Uiso   1.00
H393   H     0.78270   0.35025   0.05677   0.00000  Uiso   1.00
H394   H     0.97931   0.57776   0.24069   0.00000  Uiso   1.00
H395   H     0.97651   0.62991   0.27561   0.00000  Uiso   1.00
H396   H     0.96742   0.57568   0.30448   0.00000  Uiso   1.00
H397   H     0.90087   0.61723   0.28305   0.00000  Uiso   1.00
H398   H     0.90388   0.56463   0.25115   0.00000  Uiso   1.00
H399   H     0.92025   0.60800   0.17212   0.00000  Uiso   1.00
H400   H     0.93040   0.65465   0.20453   0.00000  Uiso   1.00
H401   H     0.78985   0.39253   0.25084   0.00000  Uiso   1.00
H402   H     0.95828   0.55884   0.11947   0.00000  Uiso   1.00
H403   H     0.79853   0.66499   0.25736   0.00000  Uiso   1.00
H404   H     0.78562   0.36446   0.30894   0.00000  Uiso   1.00
H405   H     0.86059   0.34374   0.31472   0.00000  Uiso   1.00
H406   H     0.85275   0.40377   0.31430   0.00000  Uiso   1.00
H407   H     0.90785   0.36220   0.26057   0.00000  Uiso   1.00
H408   H     0.88799   0.41310   0.24163   0.00000  Uiso   1.00
H409   H     0.69766   0.60763   0.04783   0.00000  Uiso   1.00
H410   H     0.73347   0.63738   0.01073   0.00000  Uiso   1.00
H411   H     0.72585   0.57743   0.00349   0.00000  Uiso   1.00
H412   H     0.79323   0.60220   0.05277   0.00000  Uiso   1.00
H413   H     0.96545   0.43848   0.21273   0.00000  Uiso   1.00
H414   H     0.76194   0.55885   0.07905   0.00000  Uiso   1.00
H415   H     0.74605   0.60731   0.14745   0.00000  Uiso   1.00
H416   H     0.73908   0.65194   0.10988   0.00000  Uiso   1.00
H417   H     0.69961   0.55811   0.11824   0.00000  Uiso   1.00
H418   H     0.73158   0.40489   0.00581   0.00000  Uiso   1.00
H419   H     0.70397   0.36602   0.04411   0.00000  Uiso   1.00
H420   H     0.69244   0.42575   0.04354   0.00000  Uiso   1.00
H421   H     0.73551   0.40072   0.11946   0.00000  Uiso   1.00
H422   H     0.75880   0.44423   0.08250   0.00000  Uiso   1.00
N423   N     0.83333   0.61736   0.16667   0.00000  Uiso   1.00
N424   N     0.83333   0.38264   0.16667   0.00000  Uiso   1.00
O425   O     0.77321   0.53958   0.16666   0.00000  Uiso   1.00
O426   O     0.89345   0.46042   0.16667   0.00000  Uiso   1.00
O427   O     0.89345   0.53958   0.16667   0.00000  Uiso   1.00
O428   O     0.77321   0.46042   0.16666   0.00000  Uiso   1.00
O429   O     0.83333   0.53959   0.09613   0.00000  Uiso   1.00
O430   O     0.83333   0.46041   0.23720   0.00000  Uiso   1.00
O431   O     0.83333   0.53959   0.23720   0.00000  Uiso   1.00
O432   O     0.83333   0.46041   0.09613   0.00000  Uiso   1.00
C433   C     0.08759   0.83334   0.16674   0.00000  Uiso   1.00
C434   C     0.01897   0.86626   0.14033   0.00000  Uiso   1.00
C435   C     0.29025   0.83264   0.16699   0.00000  Uiso   1.00
C436   C     0.04275   0.83293   0.16678   0.00000  Uiso   1.00
C437   C     0.14181   0.69139   0.13224   0.00000  Uiso   1.00
C438   C     0.19758   0.97594   0.19275   0.00000  Uiso   1.00
C439   C     0.19217   0.69058   0.19974   0.00000  Uiso   1.00
C440   C     0.13667   0.97645   0.13880   0.00000  Uiso   1.00
C441   C     0.12351   0.71165   0.08266   0.00000  Uiso   1.00
C442   C     0.08384   0.74113   0.08477   0.00000  Uiso   1.00
C443   C     0.05122   0.73364   0.04169   0.00000  Uiso   1.00
C444   C     0.24565   0.83314   0.16714   0.00000  Uiso   1.00
C445   C     0.24203   0.95866   0.20405   0.00000  Uiso   1.00
C446   C     0.24975   0.93280   0.25362   0.00000  Uiso   1.00
C447   C     0.29617   0.92887   0.26943   0.00000  Uiso   1.00
C448   C     0.21108   0.71129   0.24751   0.00000  Uiso   1.00
C449   C     0.18279   0.70632   0.29085   0.00000  Uiso   1.00
C450   C     0.13648   0.69847   0.27574   0.00000  Uiso   1.00
C451   C     0.09509   0.95718   0.11779   0.00000  Uiso   1.00
C452   C     0.09706   0.92889   0.07006   0.00000  Uiso   1.00
C453   C     0.06117   0.93868   0.03098   0.00000  Uiso   1.00
C454   C     0.16667   0.83345   0.07381   0.00000  Uiso   1.00
C455   C     0.16671   0.83323   0.25952   0.00000  Uiso   1.00
C456   C     0.16659   0.83353   0.02191   0.00000  Uiso   1.00
C457   C     0.16660   0.83324   0.31141   0.00000  Uiso   1.00
C458   C     0.02334   0.79845   0.19239   0.00000  Uiso   1.00
C459   C     0.30957   0.86637   0.14064   0.00000  Uiso   1.00
C460   C     0.31367   0.79824   0.19241   0.00000  Uiso   1.00
Cu461  Cu    0.16667   0.88022   0.16667   0.00000  Uiso   1.00
Cu462  Cu    0.16667   0.78645   0.16667   0.00000  Uiso   1.00
H463   H     0.04140   0.77217   0.21271   0.00000  Uiso   1.00
H464   H     0.14765   0.72795   0.06226   0.00000  Uiso   1.00
H465   H     0.11604   0.68358   0.05677   0.00000  Uiso   1.00
H466   H     0.31265   0.91109   0.24069   0.00000  Uiso   1.00
H467   H     0.30985   0.96324   0.27561   0.00000  Uiso   1.00
H468   H     0.30075   0.90902   0.30448   0.00000  Uiso   1.00
H469   H     0.23420   0.95056   0.28305   0.00000  Uiso   1.00
H470   H     0.23722   0.89796   0.25115   0.00000  Uiso   1.00
H471   H     0.25358   0.94133   0.17212   0.00000  Uiso   1.00
H472   H     0.26373   0.98798   0.20453   0.00000  Uiso   1.00
H473   H     0.12318   0.72586   0.25084   0.00000  Uiso   1.00
H474   H     0.29161   0.89217   0.11947   0.00000  Uiso   1.00
H475   H     0.13186   0.99832   0.25736   0.00000  Uiso   1.00
H476   H     0.11895   0.69780   0.30894   0.00000  Uiso   1.00
H477   H     0.19392   0.67707   0.31472   0.00000  Uiso   1.00
H478   H     0.18608   0.73711   0.31430   0.00000  Uiso   1.00
H479   H     0.24118   0.69553   0.26057   0.00000  Uiso   1.00
H480   H     0.22132   0.74643   0.24163   0.00000  Uiso   1.00
H481   H     0.03099   0.94097   0.04783   0.00000  Uiso   1.00
H482   H     0.06680   0.97072   0.01073   0.00000  Uiso   1.00
H483   H     0.05919   0.91077   0.00349   0.00000  Uiso   1.00
H484   H     0.12656   0.93553   0.05277   0.00000  Uiso   1.00
H485   H     0.29879   0.77181   0.21273   0.00000  Uiso   1.00
H486   H     0.09527   0.89218   0.07905   0.00000  Uiso   1.00
H487   H     0.07939   0.94064   0.14745   0.00000  Uiso   1.00
H488   H     0.07241   0.98528   0.10988   0.00000  Uiso   1.00
H489   H     0.03294   0.89144   0.11824   0.00000  Uiso   1.00
H490   H     0.06492   0.73822   0.00581   0.00000  Uiso   1.00
H491   H     0.03731   0.69936   0.04411   0.00000  Uiso   1.00
H492   H     0.02577   0.75909   0.04354   0.00000  Uiso   1.00
H493   H     0.06884   0.73406   0.11946   0.00000  Uiso   1.00
H494   H     0.09214   0.77756   0.08250   0.00000  Uiso   1.00
N495   N     0.16667   0.95069   0.16667   0.00000  Uiso   1.00
N496   N     0.16667   0.71598   0.16667   0.00000  Uiso   1.00
O497   O     0.10655   0.87291   0.16666   0.00000  Uiso   1.00
O498   O     0.22679   0.79375   0.16667   0.00000  Uiso   1.00
O499   O     0.22679   0.87291   0.16667   0.00000  Uiso   1.00
O500   O     0.10655   0.79375   0.16666   0.00000  Uiso   1.00
O501   O     0.16667   0.87292   0.09613   0.00000  Uiso   1.00
O502   O     0.16667   0.79375   0.23720   0.00000  Uiso   1.00
O503   O     0.16667   0.87292   0.23720   0.00000  Uiso   1.00
O504   O     0.16667   0.79375   0.09613   0.00000  Uiso   1.00
C505   C     0.42092   0.83334   0.16674   0.00000  Uiso   1.00
C506   C     0.35230   0.86626   0.14033   0.00000  Uiso   1.00
C507   C     0.62358   0.83264   0.16699   0.00000  Uiso   1.00
C508   C     0.37609   0.83293   0.16678   0.00000  Uiso   1.00
C509   C     0.47515   0.69139   0.13224   0.00000  Uiso   1.00
C510   C     0.53091   0.97594   0.19275   0.00000  Uiso   1.00
C511   C     0.52550   0.69058   0.19974   0.00000  Uiso   1.00
C512   C     0.47001   0.97645   0.13880   0.00000  Uiso   1.00
C513   C     0.45685   0.71165   0.08266   0.00000  Uiso   1.00
C514   C     0.41717   0.74113   0.08477   0.00000  Uiso   1.00
C515   C     0.38455   0.73364   0.04169   0.00000  Uiso   1.00
C516   C     0.57898   0.83314   0.16714   0.00000  Uiso   1.00
C517   C     0.57537   0.95866   0.20405   0.00000  Uiso   1.00
C518   C     0.58308   0.93280   0.25362   0.00000  Uiso   1.00
C519   C     0.62950   0.92887   0.26943   0.00000  Uiso   1.00
C520   C     0.54441   0.71129   0.24751   0.00000  Uiso   1.00
C521   C     0.51612   0.70632   0.29085   0.00000  Uiso   1.00
C522   C     0.46982   0.69847   0.27574   0.00000  Uiso   1.00
C523   C     0.42842   0.95718   0.11779   0.00000  Uiso   1.00
C524   C     0.43040   0.92889   0.07006   0.00000  Uiso   1.00
C525   C     0.39451   0.93868   0.03098   0.00000  Uiso   1.00
C526   C     0.50000   0.83345   0.07381   0.00000  Uiso   1.00
C527   C     0.50004   0.83323   0.25952   0.00000  Uiso   1.00
C528   C     0.49993   0.83353   0.02191   0.00000  Uiso   1.00
C529   C     0.49993   0.83324   0.31141   0.00000  Uiso   1.00
C530   C     0.35667   0.79845   0.19239   0.00000  Uiso   1.00
C531   C     0.64291   0.86637   0.14064   0.00000  Uiso   1.00
C532   C     0.64700   0.79824   0.19241   0.00000  Uiso   1.00
Cu533  Cu    0.50000   0.88022   0.16667   0.00000  Uiso   1.00
Cu534  Cu    0.50000   0.78645   0.16667   0.00000  Uiso   1.00
H535   H     0.37473   0.77217   0.21271   0.00000  Uiso   1.00
H536   H     0.48098   0.72795   0.06226   0.00000  Uiso   1.00
H537   H     0.44937   0.68358   0.05677   0.00000  Uiso   1.00
H538   H     0.64598   0.91109   0.24069   0.00000  Uiso   1.00
H539   H     0.64318   0.96324   0.27561   0.00000  Uiso   1.00
H540   H     0.63408   0.90902   0.30448   0.00000  Uiso   1.00
H541   H     0.56754   0.95056   0.28305   0.00000  Uiso   1.00
H542   H     0.57055   0.89796   0.25115   0.00000  Uiso   1.00
H543   H     0.58692   0.94133   0.17212   0.00000  Uiso   1.00
H544   H     0.59706   0.98798   0.20453   0.00000  Uiso   1.00
H545   H     0.45652   0.72586   0.25084   0.00000  Uiso   1.00
H546   H     0.62494   0.89217   0.11947   0.00000  Uiso   1.00
H547   H     0.46520   0.99832   0.25736   0.00000  Uiso   1.00
H548   H     0.45229   0.69780   0.30894   0.00000  Uiso   1.00
H549   H     0.52726   0.67707   0.31472   0.00000  Uiso   1.00
H550   H     0.51941   0.73711   0.31430   0.00000  Uiso   1.00
H551   H     0.57451   0.69553   0.26057   0.00000  Uiso   1.00
H552   H     0.55465   0.74643   0.24163   0.00000  Uiso   1.00
H553   H     0.36433   0.94097   0.04783   0.00000  Uiso   1.00
H554   H     0.40014   0.97072   0.01073   0.00000  Uiso   1.00
H555   H     0.39252   0.91077   0.00349   0.00000  Uiso   1.00
H556   H     0.45989   0.93553   0.05277   0.00000  Uiso   1.00
H557   H     0.63212   0.77181   0.21273   0.00000  Uiso   1.00
H558   H     0.42861   0.89218   0.07905   0.00000  Uiso   1.00
H559   H     0.41272   0.94064   0.14745   0.00000  Uiso   1.00
H560   H     0.40574   0.98528   0.10988   0.00000  Uiso   1.00
H561   H     0.36628   0.89144   0.11824   0.00000  Uiso   1.00
H562   H     0.39825   0.73822   0.00581   0.00000  Uiso   1.00
H563   H     0.37064   0.69936   0.04411   0.00000  Uiso   1.00
H564   H     0.35910   0.75909   0.04354   0.00000  Uiso   1.00
H565   H     0.40218   0.73406   0.11946   0.00000  Uiso   1.00
H566   H     0.42547   0.77756   0.08250   0.00000  Uiso   1.00
N567   N     0.50000   0.95069   0.16667   0.00000  Uiso   1.00
N568   N     0.50000   0.71598   0.16667   0.00000  Uiso   1.00
O569   O     0.43988   0.87291   0.16666   0.00000  Uiso   1.00
O570   O     0.56012   0.79375   0.16667   0.00000  Uiso   1.00
O571   O     0.56012   0.87291   0.16667   0.00000  Uiso   1.00
O572   O     0.43988   0.79375   0.16666   0.00000  Uiso   1.00
O573   O     0.50000   0.87292   0.09613   0.00000  Uiso   1.00
O574   O     0.50000   0.79375   0.23720   0.00000  Uiso   1.00
O575   O     0.50000   0.87292   0.23720   0.00000  Uiso   1.00
O576   O     0.50000   0.79375   0.09613   0.00000  Uiso   1.00
C577   C     0.75426   0.83334   0.16674   0.00000  Uiso   1.00
C578   C     0.68564   0.86626   0.14033   0.00000  Uiso   1.00
C579   C     0.95692   0.83264   0.16699   0.00000  Uiso   1.00
C580   C     0.70942   0.83293   0.16678   0.00000  Uiso   1.00
C581   C     0.80848   0.69139   0.13224   0.00000  Uiso   1.00
C582   C     0.86425   0.97594   0.19275   0.00000  Uiso   1.00
C583   C     0.85884   0.69058   0.19974   0.00000  Uiso   1.00
C584   C     0.80334   0.97645   0.13880   0.00000  Uiso   1.00
C585   C     0.79018   0.71165   0.08266   0.00000  Uiso   1.00
C586   C     0.75051   0.74113   0.08477   0.00000  Uiso   1.00
C587   C     0.71789   0.73364   0.04169   0.00000  Uiso   1.00
C588   C     0.91232   0.83314   0.16714   0.00000  Uiso   1.00
C589   C     0.90870   0.95866   0.20405   0.00000  Uiso   1.00
C590   C     0.91642   0.93280   0.25362   0.00000  Uiso   1.00
C591   C     0.96284   0.92887   0.26943   0.00000  Uiso   1.00
C592   C     0.87774   0.71129   0.24751   0.00000  Uiso   1.00
C593   C     0.84945   0.70632   0.29085   0.00000  Uiso   1.00
C594   C     0.80315   0.69847   0.27574   0.00000  Uiso   1.00
C595   C     0.76175   0.95718   0.11779   0.00000  Uiso   1.00
C596   C     0.76373   0.92889   0.07006   0.00000  Uiso   1.00
C597   C     0.72784   0.93868   0.03098   0.00000  Uiso   1.00
C598   C     0.83334   0.83345   0.07381   0.00000  Uiso   1.00
C599   C     0.83338   0.83323   0.25952   0.00000  Uiso   1.00
C600   C     0.83326   0.83353   0.02191   0.00000  Uiso   1.00
C601   C     0.83327   0.83324   0.31141   0.00000  Uiso   1.00
C602   C     0.69000   0.79845   0.19239   0.00000  Uiso   1.00
C603   C     0.97624   0.86637   0.14064   0.00000  Uiso   1.00
C604   C     0.98033   0.79824   0.19241   0.00000  Uiso   1.00
Cu605  Cu    0.83333   0.88022   0.16667   0.00000  Uiso   1.00
Cu606  Cu    0.83333   0.78645   0.16667   0.00000  Uiso   1.00
H607   H     0.70806   0.77217   0.21271   0.00000  Uiso   1.00
H608   H     0.81432   0.72795   0.06226   0.00000  Uiso   1.00
H609   H     0.78270   0.68358   0.05677   0.00000  Uiso   1.00
H610   H     0.97931   0.91109   0.24069   0.00000  Uiso   1.00
H611   H     0.97651   0.96324   0.27561   0.00000  Uiso   1.00
H612   H     0.96742   0.90902   0.30448   0.00000  Uiso   1.00
H613   H     0.90087   0.95056   0.28305   0.00000  Uiso   1.00
H614   H     0.90388   0.89796   0.25115   0.00000  Uiso   1.00
H615   H     0.92025   0.94133   0.17212   0.00000  Uiso   1.00
H616   H     0.93040   0.98798   0.20453   0.00000  Uiso   1.00
H617   H     0.78985   0.72586   0.25084   0.00000  Uiso   1.00
H618   H     0.95828   0.89217   0.11947   0.00000  Uiso   1.00
H619   H     0.79853   0.99832   0.25736   0.00000  Uiso   1.00
H620   H     0.78562   0.69780   0.30894   0.00000  Uiso   1.00
H621   H     0.86059   0.67707   0.31472   0.00000  Uiso   1.00
H622   H     0.85275   0.73711   0.31430   0.00000  Uiso   1.00
H623   H     0.90785   0.69553   0.26057   0.00000  Uiso   1.00
H624   H     0.88799   0.74643   0.24163   0.00000  Uiso   1.00
H625   H     0.69766   0.94097   0.04783   0.00000  Uiso   1.00
H626   H     0.73347   0.97072   0.01073   0.00000  Uiso   1.00
H627   H     0.72585   0.91077   0.00349   0.00000  Uiso   1.00
H628   H     0.79323   0.93553   0.05277   0.00000  Uiso   1.00
H629   H     0.96545   0.77181   0.21273   0.00000  Uiso   1.00
H630   H     0.76194   0.89218   0.07905   0.00000  Uiso   1.00
H631   H     0.74605   0.94064   0.14745   0.00000  Uiso   1.00
H632   H     0.73908   0.98528   0.10988   0.00000  Uiso   1.00
H633   H     0.69961   0.89144   0.11824   0.00000  Uiso   1.00
H634   H     0.73158   0.73822   0.00581   0.00000  Uiso   1.00
H635   H     0.70397   0.69936   0.04411   0.00000  Uiso   1.00
H636   H     0.69244   0.75909   0.04354   0.00000  Uiso   1.00
H637   H     0.73551   0.73406   0.11946   0.00000  Uiso   1.00
H638   H     0.75880   0.77756   0.08250   0.00000  Uiso   1.00
N639   N     0.83333   0.95069   0.16667   0.00000  Uiso   1.00
N640   N     0.83333   0.71598   0.16667   0.00000  Uiso   1.00
O641   O     0.77321   0.87291   0.16666   0.00000  Uiso   1.00
O642   O     0.89345   0.79375   0.16667   0.00000  Uiso   1.00
O643   O     0.89345   0.87291   0.16667   0.00000  Uiso   1.00
O644   O     0.77321   0.79375   0.16666   0.00000  Uiso   1.00
O645   O     0.83333   0.87292   0.09613   0.00000  Uiso   1.00
O646   O     0.83333   0.79375   0.23720   0.00000  Uiso   1.00
O647   O     0.83333   0.87292   0.23720   0.00000  Uiso   1.00
O648   O     0.83333   0.79375   0.09613   0.00000  Uiso   1.00
C649   C     0.08759   0.16667   0.50007   0.00000  Uiso   1.00
C650   C     0.01897   0.19959   0.47366   0.00000  Uiso   1.00
C651   C     0.29025   0.16597   0.50032   0.00000  Uiso   1.00
C652   C     0.04275   0.16626   0.50011   0.00000  Uiso   1.00
C653   C     0.14181   0.02472   0.46558   0.00000  Uiso   1.00
C654   C     0.19758   0.30927   0.52609   0.00000  Uiso   1.00
C655   C     0.19217   0.02391   0.53307   0.00000  Uiso   1.00
C656   C     0.13667   0.30979   0.47214   0.00000  Uiso   1.00
C657   C     0.12351   0.04498   0.41599   0.00000  Uiso   1.00
C658   C     0.08384   0.07446   0.41810   0.00000  Uiso   1.00
C659   C     0.05122   0.06698   0.37503   0.00000  Uiso   1.00
C660   C     0.24565   0.16648   0.50047   0.00000  Uiso   1.00
C661   C     0.24203   0.29199   0.53738   0.00000  Uiso   1.00
C662   C     0.24975   0.26613   0.58696   0.00000  Uiso   1.00
C663   C     0.29617   0.26220   0.60276   0.00000  Uiso   1.00
C664   C     0.21108   0.04462   0.58084   0.00000  Uiso   1.00
C665   C     0.18279   0.03966   0.62418   0.00000  Uiso   1.00
C666   C     0.13648   0.03180   0.60907   0.00000  Uiso   1.00
C667   C     0.09509   0.29052   0.45112   0.00000  Uiso   1.00
C668   C     0.09706   0.26222   0.40340   0.00000  Uiso   1.00
C669   C     0.06117   0.27201   0.36431   0.00000  Uiso   1.00
C670   C     0.16667   0.16678   0.40715   0.00000  Uiso   1.00
C671   C     0.16671   0.16656   0.59286   0.00000  Uiso   1.00
C672   C     0.16659   0.16686   0.35525   0.00000  Uiso   1.00
C673   C     0.16660   0.16658   0.64474   0.00000  Uiso   1.00
C674   C     0.02334   0.13179   0.52573   0.00000  Uiso   1.00
C675   C     0.30957   0.19970   0.47398   0.00000  Uiso   1.00
C676   C     0.31367   0.13158   0.52574   0.00000  Uiso   1.00
Cu677  Cu    0.16667   0.21355   0.50000   0.00000  Uiso   1.00
Cu678  Cu    0.16667   0.11978   0.50000   0.00000  Uiso   1.00
H679   H     0.04140   0.10550   0.54604   0.00000  Uiso   1.00
H680   H     0.14765   0.06129   0.39560   0.00000  Uiso   1.00
H681   H     0.11604   0.01691   0.39011   0.00000  Uiso   1.00
H682   H     0.31265   0.24442   0.57403   0.00000  Uiso   1.00
H683   H     0.30985   0.29658   0.60895   0.00000  Uiso   1.00
H684   H     0.30075   0.24235   0.63781   0.00000  Uiso   1.00
H685   H     0.23420   0.28389   0.61638   0.00000  Uiso   1.00
H686   H     0.23722   0.23129   0.58449   0.00000  Uiso   1.00
H687   H     0.25358   0.27466   0.50546   0.00000  Uiso   1.00
H688   H     0.26373   0.32132   0.53786   0.00000  Uiso   1.00
H689   H     0.12318   0.05920   0.58418   0.00000  Uiso   1.00
H690   H     0.29161   0.22551   0.45280   0.00000  Uiso   1.00
H691   H     0.13186   0.33166   0.59069   0.00000  Uiso   1.00
H692   H     0.11895   0.03113   0.64227   0.00000  Uiso   1.00
H693   H     0.19392   0.01041   0.64805   0.00000  Uiso   1.00
H694   H     0.18608   0.07044   0.64763   0.00000  Uiso   1.00
H695   H     0.24118   0.02887   0.59390   0.00000  Uiso   1.00
H696   H     0.22132   0.07976   0.57496   0.00000  Uiso   1.00
H697   H     0.03099   0.27430   0.38116   0.00000  Uiso   1.00
H698   H     0.06680   0.30405   0.34407   0.00000  Uiso   1.00
H699   H     0.05919   0.24410   0.33682   0.00000  Uiso   1.00
H700   H     0.12656   0.26886   0.38610   0.00000  Uiso   1.00
H701   H     0.29879   0.10515   0.54607   0.00000  Uiso   1.00
H702   H     0.09527   0.22552   0.41239   0.00000  Uiso   1.00
H703   H     0.07939   0.27397   0.48078   0.00000  Uiso   1.00
H704   H     0.07241   0.31861   0.44322   0.00000  Uiso   1.00
H705   H     0.03294   0.22477   0.45157   0.00000  Uiso   1.00
H706   H     0.06492   0.07155   0.33914   0.00000  Uiso   1.00
H707   H     0.03731   0.03269   0.37744   0.00000  Uiso   1.00
H708   H     0.02577   0.09242   0.37687   0.00000  Uiso   1.00
H709   H     0.06884   0.06739   0.45280   0.00000  Uiso   1.00
H710   H     0.09214   0.11090   0.41584   0.00000  Uiso   1.00
N711   N     0.16667   0.28402   0.50000   0.00000  Uiso   1.00
N712   N     0.16667   0.04931   0.50000   0.00000  Uiso   1.00
O713   O     0.10655   0.20625   0.50000   0.00000  Uiso   1.00
O714   O     0.22679   0.12709   0.50000   0.00000  Uiso   1.00
O715   O     0.22679   0.20625   0.50000   0.00000  Uiso   1.00
O716   O     0.10655   0.12709   0.50000   0.00000  Uiso   1.00
O717   O     0.16667   0.20625   0.42946   0.00000  Uiso   1.00
O718   O     0.16667   0.12708   0.57054   0.00000  Uiso   1.00
O719   O     0.16667   0.20625   0.57054   0.00000  Uiso   1.00
O720   O     0.16667   0.12708   0.42946   0.00000  Uiso   1.00
C721   C     0.42092   0.16667   0.50007   0.00000  Uiso   1.00
C722   C     0.35230   0.19959   0.47366   0.00000  Uiso   1.00
C723   C     0.62358   0.16597   0.50032   0.00000  Uiso   1.00
C724   C     0.37609   0.16626   0.50011   0.00000  Uiso   1.00
C725   C     0.47515   0.02472   0.46558   0.00000  Uiso   1.00
C726   C     0.53091   0.30927   0.52609   0.00000  Uiso   1.00
C727   C     0.52550   0.02391   0.53307   0.00000  Uiso   1.00
C728   C     0.47001   0.30979   0.47214   0.00000  Uiso   1.00
C729   C     0.45685   0.04498   0.41599   0.00000  Uiso   1.00
C730   C     0.41717   0.07446   0.41810   0.00000  Uiso   1.00
C731   C     0.38455   0.06698   0.37503   0.00000  Uiso   1.00
C732   C     0.57898   0.16648   0.50047   0.00000  Uiso   1.00
C733   C     0.57537   0.29199   0.53738   0.00000  Uiso   1.00
C734   C     0.58308   0.26613   0.58696   0.00000  Uiso   1.00
C735   C     0.62950   0.26220   0.60276   0.00000  Uiso   1.00
C736   C     0.54441   0.04462   0.58084   0.00000  Uiso   1.00
C737   C     0.51612   0.03966   0.62418   0.00000  Uiso   1.00
C738   C     0.46982   0.03180   0.60907   0.00000  Uiso   1.00
C739   C     0.42842   0.29052   0.45112   0.00000  Uiso   1.00
C740   C     0.43040   0.26222   0.40340   0.00000  Uiso   1.00
C741   C     0.39451   0.27201   0.36431   0.00000  Uiso   1.00
C742   C     0.50000   0.16678   0.40715   0.00000  Uiso   1.00
C743   C     0.50004   0.16656   0.59286   0.00000  Uiso   1.00
C744   C     0.49993   0.16686   0.35525   0.00000  Uiso   1.00
C745   C     0.49993   0.16658   0.64474   0.00000  Uiso   1.00
C746   C     0.35667   0.13179   0.52573   0.00000  Uiso   1.00
C747   C     0.64291   0.19970   0.47398   0.00000  Uiso   1.00
C748   C     0.64700   0.13158   0.52574   0.00000  Uiso   1.00
Cu749  Cu    0.50000   0.21355   0.50000   0.00000  Uiso   1.00
Cu750  Cu    0.50000   0.11978   0.50000   0.00000  Uiso   1.00
H751   H     0.37473   0.10550   0.54604   0.00000  Uiso   1.00
H752   H     0.48098   0.06129   0.39560   0.00000  Uiso   1.00
H753   H     0.44937   0.01691   0.39011   0.00000  Uiso   1.00
H754   H     0.64598   0.24442   0.57403   0.00000  Uiso   1.00
H755   H     0.64318   0.29658   0.60895   0.00000  Uiso   1.00
H756   H     0.63408   0.24235   0.63781   0.00000  Uiso   1.00
H757   H     0.56754   0.28389   0.61638   0.00000  Uiso   1.00
H758   H     0.57055   0.23129   0.58449   0.00000  Uiso   1.00
H759   H     0.58692   0.27466   0.50546   0.00000  Uiso   1.00
H760   H     0.59706   0.32132   0.53786   0.00000  Uiso   1.00
H761   H     0.45652   0.05920   0.58418   0.00000  Uiso   1.00
H762   H     0.62494   0.22551   0.45280   0.00000  Uiso   1.00
H763   H     0.46520   0.33166   0.59069   0.00000  Uiso   1.00
H764   H     0.45229   0.03113   0.64227   0.00000  Uiso   1.00
H765   H     0.52726   0.01041   0.64805   0.00000  Uiso   1.00
H766   H     0.51941   0.07044   0.64763   0.00000  Uiso   1.00
H767   H     0.57451   0.02887   0.59390   0.00000  Uiso   1.00
H768   H     0.55465   0.07976   0.57496   0.00000  Uiso   1.00
H769   H     0.36433   0.27430   0.38116   0.00000  Uiso   1.00
H770   H     0.40014   0.30405   0.34407   0.00000  Uiso   1.00
H771   H     0.39252   0.24410   0.33682   0.00000  Uiso   1.00
H772   H     0.45989   0.26886   0.38610   0.00000  Uiso   1.00
H773   H     0.63212   0.10515   0.54607   0.00000  Uiso   1.00
H774   H     0.42861   0.22552   0.41239   0.00000  Uiso   1.00
H775   H     0.41272   0.27397   0.48078   0.00000  Uiso   1.00
H776   H     0.40574   0.31861   0.44322   0.00000  Uiso   1.00
H777   H     0.36628   0.22477   0.45157   0.00000  Uiso   1.00
H778   H     0.39825   0.07155   0.33914   0.00000  Uiso   1.00
H779   H     0.37064   0.03269   0.37744   0.00000  Uiso   1.00
H780   H     0.35910   0.09242   0.37687   0.00000  Uiso   1.00
H781   H     0.40218   0.06739   0.45280   0.00000  Uiso   1.00
H782   H     0.42547   0.11090   0.41584   0.00000  Uiso   1.00
N783   N     0.50000   0.28402   0.50000   0.00000  Uiso   1.00
N784   N     0.50000   0.04931   0.50000   0.00000  Uiso   1.00
O785   O     0.43988   0.20625   0.50000   0.00000  Uiso   1.00
O786   O     0.56012   0.12709   0.50000   0.00000  Uiso   1.00
O787   O     0.56012   0.20625   0.50000   0.00000  Uiso   1.00
O788   O     0.43988   0.12709   0.50000   0.00000  Uiso   1.00
O789   O     0.50000   0.20625   0.42946   0.00000  Uiso   1.00
O790   O     0.50000   0.12708   0.57054   0.00000  Uiso   1.00
O791   O     0.50000   0.20625   0.57054   0.00000  Uiso   1.00
O792   O     0.50000   0.12708   0.42946   0.00000  Uiso   1.00
C793   C     0.75426   0.16667   0.50007   0.00000  Uiso   1.00
C794   C     0.68564   0.19959   0.47366   0.00000  Uiso   1.00
C795   C     0.95692   0.16597   0.50032   0.00000  Uiso   1.00
C796   C     0.70942   0.16626   0.50011   0.00000  Uiso   1.00
C797   C     0.80848   0.02472   0.46558   0.00000  Uiso   1.00
C798   C     0.86425   0.30927   0.52609   0.00000  Uiso   1.00
C799   C     0.85884   0.02391   0.53307   0.00000  Uiso   1.00
C800   C     0.80334   0.30979   0.47214   0.00000  Uiso   1.00
C801   C     0.79018   0.04498   0.41599   0.00000  Uiso   1.00
C802   C     0.75051   0.07446   0.41810   0.00000  Uiso   1.00
C803   C     0.71789   0.06698   0.37503   0.00000  Uiso   1.00
C804   C     0.91232   0.16648   0.50047   0.00000  Uiso   1.00
C805   C     0.90870   0.29199   0.53738   0.00000  Uiso   1.00
C806   C     0.91642   0.26613   0.58696   0.00000  Uiso   1.00
C807   C     0.96284   0.26220   0.60276   0.00000  Uiso   1.00
C808   C     0.87774   0.04462   0.58084   0.00000  Uiso   1.00
C809   C     0.84945   0.03966   0.62418   0.00000  Uiso   1.00
C810   C     0.80315   0.03180   0.60907   0.00000  Uiso   1.00
C811   C     0.76175   0.29052   0.45112   0.00000  Uiso   1.00
C812   C     0.76373   0.26222   0.40340   0.00000  Uiso   1.00
C813   C     0.72784   0.27201   0.36431   0.00000  Uiso   1.00
C814   C     0.83334   0.16678   0.40715   0.00000  Uiso   1.00
C815   C     0.83338   0.16656   0.59286   0.00000  Uiso   1.00
C816   C     0.83326   0.16686   0.35525   0.00000  Uiso   1.00
C817   C     0.83327   0.16658   0.64474   0.00000  Uiso   1.00
C818   C     0.69000   0.13179   0.52573   0.00000  Uiso   1.00
C819   C     0.97624   0.19970   0.47398   0.00000  Uiso   1.00
C820   C     0.98033   0.13158   0.52574   0.00000  Uiso   1.00
Cu821  Cu    0.83333   0.21355   0.50000   0.00000  Uiso   1.00
Cu822  Cu    0.83333   0.11978   0.50000   0.00000  Uiso   1.00
H823   H     0.70806   0.10550   0.54604   0.00000  Uiso   1.00
H824   H     0.81432   0.06129   0.39560   0.00000  Uiso   1.00
H825   H     0.78270   0.01691   0.39011   0.00000  Uiso   1.00
H826   H     0.97931   0.24442   0.57403   0.00000  Uiso   1.00
H827   H     0.97651   0.29658   0.60895   0.00000  Uiso   1.00
H828   H     0.96742   0.24235   0.63781   0.00000  Uiso   1.00
H829   H     0.90087   0.28389   0.61638   0.00000  Uiso   1.00
H830   H     0.90388   0.23129   0.58449   0.00000  Uiso   1.00
H831   H     0.92025   0.27466   0.50546   0.00000  Uiso   1.00
H832   H     0.93040   0.32132   0.53786   0.00000  Uiso   1.00
H833   H     0.78985   0.05920   0.58418   0.00000  Uiso   1.00
H834   H     0.95828   0.22551   0.45280   0.00000  Uiso   1.00
H835   H     0.79853   0.33166   0.59069   0.00000  Uiso   1.00
H836   H     0.78562   0.03113   0.64227   0.00000  Uiso   1.00
H837   H     0.86059   0.01041   0.64805   0.00000  Uiso   1.00
H838   H     0.85275   0.07044   0.64763   0.00000  Uiso   1.00
H839   H     0.90785   0.02887   0.59390   0.00000  Uiso   1.00
H840   H     0.88799   0.07976   0.57496   0.00000  Uiso   1.00
H841   H     0.69766   0.27430   0.38116   0.00000  Uiso   1.00
H842   H     0.73347   0.30405   0.34407   0.00000  Uiso   1.00
H843   H     0.72585   0.24410   0.33682   0.00000  Uiso   1.00
H844   H     0.79323   0.26886   0.38610   0.00000  Uiso   1.00
H845   H     0.96545   0.10515   0.54607   0.00000  Uiso   1.00
H846   H     0.76194   0.22552   0.41239   0.00000  Uiso   1.00
H847   H     0.74605   0.27397   0.48078   0.00000  Uiso   1.00
H848   H     0.73908   0.31861   0.44322   0.00000  Uiso   1.00
H849   H     0.69961   0.22477   0.45157   0.00000  Uiso   1.00
H850   H     0.73158   0.07155   0.33914   0.00000  Uiso   1.00
H851   H     0.70397   0.03269   0.37744   0.00000  Uiso   1.00
H852   H     0.69244   0.09242   0.37687   0.00000  Uiso   1.00
H853   H     0.73551   0.06739   0.45280   0.00000  Uiso   1.00
H854   H     0.75880   0.11090   0.41584   0.00000  Uiso   1.00
N855   N     0.83333   0.28402   0.50000   0.00000  Uiso   1.00
N856   N     0.83333   0.04931   0.50000   0.00000  Uiso   1.00
O857   O     0.77321   0.20625   0.50000   0.00000  Uiso   1.00
O858   O     0.89345   0.12709   0.50000   0.00000  Uiso   1.00
O859   O     0.89345   0.20625   0.50000   0.00000  Uiso   1.00
O860   O     0.77321   0.12709   0.50000   0.00000  Uiso   1.00
O861   O     0.83333   0.20625   0.42946   0.00000  Uiso   1.00
O862   O     0.83333   0.12708   0.57054   0.00000  Uiso   1.00
O863   O     0.83333   0.20625   0.57054   0.00000  Uiso   1.00
O864   O     0.83333   0.12708   0.42946   0.00000  Uiso   1.00
C865   C     0.08759   0.50000   0.50007   0.00000  Uiso   1.00
C866   C     0.01897   0.53292   0.47366   0.00000  Uiso   1.00
C867   C     0.29025   0.49931   0.50032   0.00000  Uiso   1.00
C868   C     0.04275   0.49960   0.50011   0.00000  Uiso   1.00
C869   C     0.14181   0.35805   0.46558   0.00000  Uiso   1.00
C870   C     0.19758   0.64260   0.52609   0.00000  Uiso   1.00
C871   C     0.19217   0.35724   0.53307   0.00000  Uiso   1.00
C872   C     0.13667   0.64312   0.47214   0.00000  Uiso   1.00
C873   C     0.12351   0.37831   0.41599   0.00000  Uiso   1.00
C874   C     0.08384   0.40780   0.41810   0.00000  Uiso   1.00
C875   C     0.05122   0.40031   0.37503   0.00000  Uiso   1.00
C876   C     0.24565   0.49981   0.50047   0.00000  Uiso   1.00
C877   C     0.24203   0.62532   0.53738   0.00000  Uiso   1.00
C878   C     0.24975   0.59946   0.58696   0.00000  Uiso   1.00
C879   C     0.29617   0.59554   0.60276   0.00000  Uiso   1.00
C880   C     0.21108   0.37795   0.58084   0.00000  Uiso   1.00
C881   C     0.18279   0.37299   0.62418   0.00000  Uiso   1.00
C882   C     0.13648   0.36514   0.60907   0.00000  Uiso   1.00
C883   C     0.09509   0.62385   0.45112   0.00000  Uiso   1.00
C884   C     0.09706   0.59556   0.40340   0.00000  Uiso   1.00
C885   C     0.06117   0.60534   0.36431   0.00000  Uiso   1.00
C886   C     0.16667   0.50012   0.40715   0.00000  Uiso   1.00
C887   C     0.16671   0.49990   0.59286   0.00000  Uiso   1.00
C888   C     0.16659   0.50020   0.35525   0.00000  Uiso   1.00
C889   C     0.16660   0.49991   0.64474   0.00000  Uiso   1.00
C890   C     0.02334   0.46512   0.52573   0.00000  Uiso   1.00
C891   C     0.30957   0.53303   0.47398   0.00000  Uiso   1.00
C892   C     0.31367   0.46491   0.52574   0.00000  Uiso   1.00
Cu893  Cu    0.16667   0.54689   0.50000   0.00000  Uiso   1.00
Cu894  Cu    0.16667   0.45311   0.50000   0.00000  Uiso   1.00
H895   H     0.04140   0.43884   0.54604   0.00000  Uiso   1.00
H896   H     0.14765   0.39462   0.39560   0.00000  Uiso   1.00
H897   H     0.11604   0.35025   0.39011   0.00000  Uiso   1.00
H898   H     0.31265   0.57776   0.57403   0.00000  Uiso   1.00
H899   H     0.30985   0.62991   0.60895   0.00000  Uiso   1.00
H900   H     0.30075   0.57568   0.63781   0.00000  Uiso   1.00
H901   H     0.23420   0.61723   0.61638   0.00000  Uiso   1.00
H902   H     0.23722   0.56463   0.58449   0.00000  Uiso   1.00
H903   H     0.25358   0.60800   0.50546   0.00000  Uiso   1.00
H904   H     0.26373   0.65465   0.53786   0.00000  Uiso   1.00
H905   H     0.12318   0.39253   0.58418   0.00000  Uiso   1.00
H906   H     0.29161   0.55884   0.45280   0.00000  Uiso   1.00
H907   H     0.13186   0.66499   0.59069   0.00000  Uiso   1.00
H908   H     0.11895   0.36446   0.64227   0.00000  Uiso   1.00
H909   H     0.19392   0.34374   0.64805   0.00000  Uiso   1.00
H910   H     0.18608   0.40377   0.64763   0.00000  Uiso   1.00
H911   H     0.24118   0.36220   0.59390   0.00000  Uiso   1.00
H912   H     0.22132   0.41310   0.57496   0.00000  Uiso   1.00
H913   H     0.03099   0.60763   0.38116   0.00000  Uiso   1.00
H914   H     0.06680   0.63738   0.34407   0.00000  Uiso   1.00
H915   H     0.05919   0.57743   0.33682   0.00000  Uiso   1.00
H916   H     0.12656   0.60220   0.38610   0.00000  Uiso   1.00
H917   H     0.29879   0.43848   0.54607   0.00000  Uiso   1.00
H918   H     0.09527   0.55885   0.41239   0.00000  Uiso   1.00
H919   H     0.07939   0.60731   0.48078   0.00000  Uiso   1.00
H920   H     0.07241   0.65194   0.44322   0.00000  Uiso   1.00
H921   H     0.03294   0.55811   0.45157   0.00000  Uiso   1.00
H922   H     0.06492   0.40489   0.33914   0.00000  Uiso   1.00
H923   H     0.03731   0.36602   0.37744   0.00000  Uiso   1.00
H924   H     0.02577   0.42575   0.37687   0.00000  Uiso   1.00
H925   H     0.06884   0.40072   0.45280   0.00000  Uiso   1.00
H926   H     0.09214   0.44423   0.41584   0.00000  Uiso   1.00
N927   N     0.16667   0.61736   0.50000   0.00000  Uiso   1.00
N928   N     0.16667   0.38264   0.50000   0.00000  Uiso   1.00
O929   O     0.10655   0.53958   0.50000   0.00000  Uiso   1.00
O930   O     0.22679   0.46042   0.50000   0.00000  Uiso   1.00
O931   O     0.22679   0.53958   0.50000   0.00000  Uiso   1.00
O932   O     0.10655   0.46042   0.50000   0.00000  Uiso   1.00
O933   O     0.16667   0.53959   0.42946   0.00000  Uiso   1.00
O934   O     0.16667   0.46041   0.57054   0.00000  Uiso   1.00
O935   O     0.16667   0.53959   0.57054   0.00000  Uiso   1.00
O936   O     0.16667   0.46041   0.42946   0.00000  Uiso   1.00
C937   C     0.42092   0.50000   0.50007   0.00000  Uiso   1.00
C938   C     0.35230   0.53292   0.47366   0.00000  Uiso   1.00
C939   C     0.62358   0.49931   0.50032   0.00000  Uiso   1.00
C940   C     0.37609   0.49960   0.50011   0.00000  Uiso   1.00
C941   C     0.47515   0.35805   0.46558   0.00000  Uiso   1.00
C942   C     0.53091   0.64260   0.52609   0.00000  Uiso   1.00
C943   C     0.52550   0.35724   0.53307   0.00000  Uiso   1.00
C944   C     0.47001   0.64312   0.47214   0.00000  Uiso   1.00
C945   C     0.45685   0.37831   0.41599   0.00000  Uiso   1.00
C946   C     0.41717   0.40780   0.41810   0.00000  Uiso   1.00
C947   C     0.38455   0.40031   0.37503   0.00000  Uiso   1.00
C948   C     0.57898   0.49981   0.50047   0.00000  Uiso   1.00
C949   C     0.57537   0.62532   0.53738   0.00000  Uiso   1.00
C950   C     0.58308   0.59946   0.58696   0.00000  Uiso   1.00
C951   C     0.62950   0.59554   0.60276   0.00000  Uiso   1.00
C952   C     0.54441   0.37795   0.58084   0.00000  Uiso   1.00
C953   C     0.51612   0.37299   0.62418   0.00000  Uiso   1.00
C954   C     0.46982   0.36514   0.60907   0.00000  Uiso   1.00
C955   C     0.42842   0.62385   0.45112   0.00000  Uiso   1.00
C956   C     0.43040   0.59556   0.40340   0.00000  Uiso   1.00
C957   C     0.39451   0.60534   0.36431   0.00000  Uiso   1.00
C958   C     0.50000   0.50012   0.40715   0.00000  Uiso   1.00
C959   C     0.50004   0.49990   0.59286   0.00000  Uiso   1.00
C960   C     0.49993   0.50020   0.35525   0.00000  Uiso   1.00
C961   C     0.49993   0.49991   0.64474   0.00000  Uiso   1.00
C962   C     0.35667   0.46512   0.52573   0.00000  Uiso   1.00
C963   C     0.64291   0.53303   0.47398   0.00000  Uiso   1.00
C964   C     0.64700   0.46491   0.52574   0.00000  Uiso   1.00
Cu965  Cu    0.50000   0.54689   0.50000   0.00000  Uiso   1.00
Cu966  Cu    0.50000   0.45311   0.50000   0.00000  Uiso   1.00
H967   H     0.37473   0.43884   0.54604   0.00000  Uiso   1.00
H968   H     0.48098   0.39462   0.39560   0.00000  Uiso   1.00
H969   H     0.44937   0.35025   0.39011   0.00000  Uiso   1.00
H970   H     0.64598   0.57776   0.57403   0.00000  Uiso   1.00
H971   H     0.64318   0.62991   0.60895   0.00000  Uiso   1.00
H972   H     0.63408   0.57568   0.63781   0.00000  Uiso   1.00
H973   H     0.56754   0.61723   0.61638   0.00000  Uiso   1.00
H974   H     0.57055   0.56463   0.58449   0.00000  Uiso   1.00
H975   H     0.58692   0.60800   0.50546   0.00000  Uiso   1.00
H976   H     0.59706   0.65465   0.53786   0.00000  Uiso   1.00
H977   H     0.45652   0.39253   0.58418   0.00000  Uiso   1.00
H978   H     0.62494   0.55884   0.45280   0.00000  Uiso   1.00
H979   H     0.46520   0.66499   0.59069   0.00000  Uiso   1.00
H980   H     0.45229   0.36446   0.64227   0.00000  Uiso   1.00
H981   H     0.52726   0.34374   0.64805   0.00000  Uiso   1.00
H982   H     0.51941   0.40377   0.64763   0.00000  Uiso   1.00
H983   H     0.57451   0.36220   0.59390   0.00000  Uiso   1.00
H984   H     0.55465   0.41310   0.57496   0.00000  Uiso   1.00
H985   H     0.36433   0.60763   0.38116   0.00000  Uiso   1.00
H986   H     0.40014   0.63738   0.34407   0.00000  Uiso   1.00
H987   H     0.39252   0.57743   0.33682   0.00000  Uiso   1.00
H988   H     0.45989   0.60220   0.38610   0.00000  Uiso   1.00
H989   H     0.63212   0.43848   0.54607   0.00000  Uiso   1.00
H990   H     0.42861   0.55885   0.41239   0.00000  Uiso   1.00
H991   H     0.41272   0.60731   0.48078   0.00000  Uiso   1.00
H992   H     0.40574   0.65194   0.44322   0.00000  Uiso   1.00
H993   H     0.36628   0.55811   0.45157   0.00000  Uiso   1.00
H994   H     0.39825   0.40489   0.33914   0.00000  Uiso   1.00
H995   H     0.37064   0.36602   0.37744   0.00000  Uiso   1.00
H996   H     0.35910   0.42575   0.37687   0.00000  Uiso   1.00
H997   H     0.40218   0.40072   0.45280   0.00000  Uiso   1.00
H998   H     0.42547   0.44423   0.41584   0.00000  Uiso   1.00
N999   N     0.50000   0.61736   0.50000   0.00000  Uiso   1.00
N1000  N     0.50000   0.38264   0.50000   0.00000  Uiso   1.00
O1001  O     0.43988   0.53958   0.50000   0.00000  Uiso   1.00
O1002  O     0.56012   0.46042   0.50000   0.00000  Uiso   1.00
O1003  O     0.56012   0.53958   0.50000   0.00000  Uiso   1.00
O1004  O     0.43988   0.46042   0.50000   0.00000  Uiso   1.00
O1005  O     0.50000   0.53959   0.42946   0.00000  Uiso   1.00
O1006  O     0.50000   0.46041   0.57054   0.00000  Uiso   1.00
O1007  O     0.50000   0.53959   0.57054   0.00000  Uiso   1.00
O1008  O     0.50000   0.46041   0.42946   0.00000  Uiso   1.00
C1009  C     0.75426   0.50000   0.50007   0.00000  Uiso   1.00
C1010  C     0.68564   0.53292   0.47366   0.00000  Uiso   1.00
C1011  C     0.95692   0.49931   0.50032   0.00000  Uiso   1.00
C1012  C     0.70942   0.49960   0.50011   0.00000  Uiso   1.00
C1013  C     0.80848   0.35805   0.46558   0.00000  Uiso   1.00
C1014  C     0.86425   0.64260   0.52609   0.00000  Uiso   1.00
C1015  C     0.85884   0.35724   0.53307   0.00000  Uiso   1.00
C1016  C     0.80334   0.64312   0.47214   0.00000  Uiso   1.00
C1017  C     0.79018   0.37831   0.41599   0.00000  Uiso   1.00
C1018  C     0.75051   0.40780   0.41810   0.00000  Uiso   1.00
C1019  C     0.71789   0.40031   0.37503   0.00000  Uiso   1.00
C1020  C     0.91232   0.49981   0.50047   0.00000  Uiso   1.00
C1021  C     0.90870   0.62532   0.53738   0.00000  Uiso   1.00
C1022  C     0.91642   0.59946   0.58696   0.00000  Uiso   1.00
C1023  C     0.96284   0.59554   0.60276   0.00000  Uiso   1.00
C1024  C     0.87774   0.37795   0.58084   0.00000  Uiso   1.00
C1025  C     0.84945   0.37299   0.62418   0.00000  Uiso   1.00
C1026  C     0.80315   0.36514   0.60907   0.00000  Uiso   1.00
C1027  C     0.76175   0.62385   0.45112   0.00000  Uiso   1.00
C1028  C     0.76373   0.59556   0.40340   0.00000  Uiso   1.00
C1029  C     0.72784   0.60534   0.36431   0.00000  Uiso   1.00
C1030  C     0.83334   0.50012   0.40715   0.00000  Uiso   1.00
C1031  C     0.83338   0.49990   0.59286   0.00000  Uiso   1.00
C1032  C     0.83326   0.50020   0.35525   0.00000  Uiso   1.00
C1033  C     0.83327   0.49991   0.64474   0.00000  Uiso   1.00
C1034  C     0.69000   0.46512   0.52573   0.00000  Uiso   1.00
C1035  C     0.97624   0.53303   0.47398   0.00000  Uiso   1.00
C1036  C     0.98033   0.46491   0.52574   0.00000  Uiso   1.00
Cu1037 Cu    0.83333   0.54689   0.50000   0.00000  Uiso   1.00
Cu1038 Cu    0.83333   0.45311   0.50000   0.00000  Uiso   1.00
H1039  H     0.70806   0.43884   0.54604   0.00000  Uiso   1.00
H1040  H     0.81432   0.39462   0.39560   0.00000  Uiso   1.00
H1041  H     0.78270   0.35025   0.39011   0.00000  Uiso   1.00
H1042  H     0.97931   0.57776   0.57403   0.00000  Uiso   1.00
H1043  H     0.97651   0.62991   0.60895   0.00000  Uiso   1.00
H1044  H     0.96742   0.57568   0.63781   0.00000  Uiso   1.00
H1045  H     0.90087   0.61723   0.61638   0.00000  Uiso   1.00
H1046  H     0.90388   0.56463   0.58449   0.00000  Uiso   1.00
H1047  H     0.92025   0.60800   0.50546   0.00000  Uiso   1.00
H1048  H     0.93040   0.65465   0.53786   0.00000  Uiso   1.00
H1049  H     0.78985   0.39253   0.58418   0.00000  Uiso   1.00
H1050  H     0.95828   0.55884   0.45280   0.00000  Uiso   1.00
H1051  H     0.79853   0.66499   0.59069   0.00000  Uiso   1.00
H1052  H     0.78562   0.36446   0.64227   0.00000  Uiso   1.00
H1053  H     0.86059   0.34374   0.64805   0.00000  Uiso   1.00
H1054  H     0.85275   0.40377   0.64763   0.00000  Uiso   1.00
H1055  H     0.90785   0.36220   0.59390   0.00000  Uiso   1.00
H1056  H     0.88799   0.41310   0.57496   0.00000  Uiso   1.00
H1057  H     0.69766   0.60763   0.38116   0.00000  Uiso   1.00
H1058  H     0.73347   0.63738   0.34407   0.00000  Uiso   1.00
H1059  H     0.72585   0.57743   0.33682   0.00000  Uiso   1.00
H1060  H     0.79323   0.60220   0.38610   0.00000  Uiso   1.00
H1061  H     0.96545   0.43848   0.54607   0.00000  Uiso   1.00
H1062  H     0.76194   0.55885   0.41239   0.00000  Uiso   1.00
H1063  H     0.74605   0.60731   0.48078   0.00000  Uiso   1.00
H1064  H     0.73908   0.65194   0.44322   0.00000  Uiso   1.00
H1065  H     0.69961   0.55811   0.45157   0.00000  Uiso   1.00
H1066  H     0.73158   0.40489   0.33914   0.00000  Uiso   1.00
H1067  H     0.70397   0.36602   0.37744   0.00000  Uiso   1.00
H1068  H     0.69244   0.42575   0.37687   0.00000  Uiso   1.00
H1069  H     0.73551   0.40072   0.45280   0.00000  Uiso   1.00
H1070  H     0.75880   0.44423   0.41584   0.00000  Uiso   1.00
N1071  N     0.83333   0.61736   0.50000   0.00000  Uiso   1.00
N1072  N     0.83333   0.38264   0.50000   0.00000  Uiso   1.00
O1073  O     0.77321   0.53958   0.50000   0.00000  Uiso   1.00
O1074  O     0.89345   0.46042   0.50000   0.00000  Uiso   1.00
O1075  O     0.89345   0.53958   0.50000   0.00000  Uiso   1.00
O1076  O     0.77321   0.46042   0.50000   0.00000  Uiso   1.00
O1077  O     0.83333   0.53959   0.42946   0.00000  Uiso   1.00
O1078  O     0.83333   0.46041   0.57054   0.00000  Uiso   1.00
O1079  O     0.83333   0.53959   0.57054   0.00000  Uiso   1.00
O1080  O     0.83333   0.46041   0.42946   0.00000  Uiso   1.00
C1081  C     0.08759   0.83334   0.50007   0.00000  Uiso   1.00
C1082  C     0.01897   0.86626   0.47366   0.00000  Uiso   1.00
C1083  C     0.29025   0.83264   0.50032   0.00000  Uiso   1.00
C1084  C     0.04275   0.83293   0.50011   0.00000  Uiso   1.00
C1085  C     0.14181   0.69139   0.46558   0.00000  Uiso   1.00
C1086  C     0.19758   0.97594   0.52609   0.00000  Uiso   1.00
C1087  C     0.19217   0.69058   0.53307   0.00000  Uiso   1.00
C1088  C     0.13667   0.97645   0.47214   0.00000  Uiso   1.00
C1089  C     0.12351   0.71165   0.41599   0.00000  Uiso   1.00
C1090  C     0.08384   0.74113   0.41810   0.00000  Uiso   1.00
C1091  C     0.05122   0.73364   0.37503   0.00000  Uiso   1.00
C1092  C     0.24565   0.83314   0.50047   0.00000  Uiso   1.00
C1093  C     0.24203   0.95866   0.53738   0.00000  Uiso   1.00
C1094  C     0.24975   0.93280   0.58696   0.00000  Uiso   1.00
C1095  C     0.29617   0.92887   0.60276   0.00000  Uiso   1.00
C1096  C     0.21108   0.71129   0.58084   0.00000  Uiso   1.00
C1097  C     0.18279   0.70632   0.62418   0.00000  Uiso   1.00
C1098  C     0.13648   0.69847   0.60907   0.00000  Uiso   1.00
C1099  C     0.09509   0.95718   0.45112   0.00000  Uiso   1.00
C1100  C     0.09706   0.92889   0.40340   0.00000  Uiso   1.00
C1101  C     0.06117   0.93868   0.36431   0.00000  Uiso   1.00
C1102  C     0.16667   0.83345   0.40715   0.00000  Uiso   1.00
C1103  C     0.16671   0.83323   0.59286   0.00000  Uiso   1.00
C1104  C     0.16659   0.83353   0.35525   0.00000  Uiso   1.00
C1105  C     0.16660   0.83324   0.64474   0.00000  Uiso   1.00
C1106  C     0.02334   0.79845   0.52573   0.00000  Uiso   1.00
C1107  C     0.30957   0.86637   0.47398   0.00000  Uiso   1.00
C1108  C     0.31367   0.79824   0.52574   0.00000  Uiso   1.00
Cu1109 Cu    0.16667   0.88022   0.50000   0.00000  Uiso   1.00
Cu1110 Cu    0.16667   0.78645   0.50000   0.00000  Uiso   1.00
H1111  H     0.04140   0.77217   0.54604   0.00000  Uiso   1.00
H1112  H     0.14765   0.72795   0.39560   0.00000  Uiso   1.00
H1113  H     0.11604   0.68358   0.39011   0.00000  Uiso   1.00
H1114  H     0.31265   0.91109   0.57403   0.00000  Uiso   1.00
H1115  H     0.30985   0.96324   0.60895   0.00000  Uiso   1.00
H1116  H     0.30075   0.90902   0.63781   0.00000  Uiso   1.00
H1117  H     0.23420   0.95056   0.61638   0.00000  Uiso   1.00
H1118  H     0.23722   0.89796   0.58449   0.00000  Uiso   1.00
H1119  H     0.25358   0.94133   0.50546   0.00000  Uiso   1.00
H1120  H     0.26373   0.98798   0.53786   0.00000  Uiso   1.00
H1121  H     0.12318   0.72586   0.58418   0.00000  Uiso   1.00
H1122  H     0.29161   0.89217   0.45280   0.00000  Uiso   1.00
H1123  H     0.13186   0.99832   0.59069   0.00000  Uiso   1.00
H1124  H     0.11895   0.69780   0.64227   0.00000  Uiso   1.00
H1125  H     0.19392   0.67707   0.64805   0.00000  Uiso   1.00
H1126  H     0.18608   0.73711   0.64763   0.00000  Uiso   1.00
H1127  H     0.24118   0.69553   0.59390   0.00000  Uiso   1.00
H1128  H     0.22132   0.74643   0.57496   0.00000  Uiso   1.00
H1129  H     0.03099   0.94097   0.38116   0.00000  Uiso   1.00
H1130  H     0.06680   0.97072   0.34407   0.00000  Uiso   1.00
H1131  H     0.05919   0.91077   0.33682   0.00000  Uiso   1.00
H1132  H     0.12656   0.93553   0.38610   0.00000  Uiso   1.00
H1133  H     0.29879   0.77181   0.54607   0.00000  Uiso   1.00
H1134  H     0.09527   0.89218   0.41239   0.00000  Uiso   1.00
H1135  H     0.07939   0.94064   0.48078   0.00000  Uiso   1.00
H1136  H     0.07241   0.98528   0.44322   0.00000  Uiso   1.00
H1137  H     0.03294   0.89144   0.45157   0.00000  Uiso   1.00
H1138  H     0.06492   0.73822   0.33914   0.00000  Uiso   1.00
H1139  H     0.03731   0.69936   0.37744   0.00000  Uiso   1.00
H1140  H     0.02577   0.75909   0.37687   0.00000  Uiso   1.00
H1141  H     0.06884   0.73406   0.45280   0.00000  Uiso   1.00
H1142  H     0.09214   0.77756   0.41584   0.00000  Uiso   1.00
N1143  N     0.16667   0.95069   0.50000   0.00000  Uiso   1.00
N1144  N     0.16667   0.71598   0.50000   0.00000  Uiso   1.00
O1145  O     0.10655   0.87291   0.50000   0.00000  Uiso   1.00
O1146  O     0.22679   0.79375   0.50000   0.00000  Uiso   1.00
O1147  O     0.22679   0.87291   0.50000   0.00000  Uiso   1.00
O1148  O     0.10655   0.79375   0.50000   0.00000  Uiso   1.00
O1149  O     0.16667   0.87292   0.42946   0.00000  Uiso   1.00
O1150  O     0.16667   0.79375   0.57054   0.00000  Uiso   1.00
O1151  O     0.16667   0.87292   0.57054   0.00000  Uiso   1.00
O1152  O     0.16667   0.79375   0.42946   0.00000  Uiso   1.00
C1153  C     0.42092   0.83334   0.50007   0.00000  Uiso   1.00
C1154  C     0.35230   0.86626   0.47366   0.00000  Uiso   1.00
C1155  C     0.62358   0.83264   0.50032   0.00000  Uiso   1.00
C1156  C     0.37609   0.83293   0.50011   0.00000  Uiso   1.00
C1157  C     0.47515   0.69139   0.46558   0.00000  Uiso   1.00
C1158  C     0.53091   0.97594   0.52609   0.00000  Uiso   1.00
C1159  C     0.52550   0.69058   0.53307   0.00000  Uiso   1.00
C1160  C     0.47001   0.97645   0.47214   0.00000  Uiso   1.00
C1161  C     0.45685   0.71165   0.41599   0.00000  Uiso   1.00
C1162  C     0.41717   0.74113   0.41810   0.00000  Uiso   1.00
C1163  C     0.38455   0.73364   0.37503   0.00000  Uiso   1.00
C1164  C     0.57898   0.83314   0.50047   0.00000  Uiso   1.00
C1165  C     0.57537   0.95866   0.53738   0.00000  Uiso   1.00
C1166  C     0.58308   0.93280   0.58696   0.00000  Uiso   1.00
C1167  C     0.62950   0.92887   0.60276   0.00000  Uiso   1.00
C1168  C     0.54441   0.71129   0.58084   0.00000  Uiso   1.00
C1169  C     0.51612   0.70632   0.62418   0.00000  Uiso   1.00
C1170  C     0.46982   0.69847   0.60907   0.00000  Uiso   1.00
C1171  C     0.42842   0.95718   0.45112   0.00000  Uiso   1.00
C1172  C     0.43040   0.92889   0.40340   0.00000  Uiso   1.00
C1173  C     0.39451   0.93868   0.36431   0.00000  Uiso   1.00
C1174  C     0.50000   0.83345   0.40715   0.00000  Uiso   1.00
C1175  C     0.50004   0.83323   0.59286   0.00000  Uiso   1.00
C1176  C     0.49993   0.83353   0.35525   0.00000  Uiso   1.00
C1177  C     0.49993   0.83324   0.64474   0.00000  Uiso   1.00
C1178  C     0.35667   0.79845   0.52573   0.00000  Uiso   1.00
C1179  C     0.64291   0.86637   0.47398   0.00000  Uiso   1.00
C1180  C     0.64700   0.79824   0.52574   0.00000  Uiso   1.00
Cu1181 Cu    0.50000   0.88022   0.50000   0.00000  Uiso   1.00
Cu1182 Cu    0.50000   0.78645   0.50000   0.00000  Uiso   1.00
H1183  H     0.37473   0.77217   0.54604   0.00000  Uiso   1.00
H1184  H     0.48098   0.72795   0.39560   0.00000  Uiso   1.00
H1185  H     0.44937   0.68358   0.39011   0.00000  Uiso   1.00
H1186  H     0.64598   0.91109   0.57403   0.00000  Uiso   1.00
H1187  H     0.64318   0.96324   0.60895   0.00000  Uiso   1.00
H1188  H     0.63408   0.90902   0.63781   0.00000  Uiso   1.00
H1189  H     0.56754   0.95056   0.61638   0.00000  Uiso   1.00
H1190  H     0.57055   0.89796   0.58449   0.00000  Uiso   1.00
H1191  H     0.58692   0.94133   0.50546   0.00000  Uiso   1.00
H1192  H     0.59706   0.98798   0.53786   0.00000  Uiso   1.00
H1193  H     0.45652   0.72586   0.58418   0.00000  Uiso   1.00
H1194  H     0.62494   0.89217   0.45280   0.00000  Uiso   1.00
H1195  H     0.46520   0.99832   0.59069   0.00000  Uiso   1.00
H1196  H     0.45229   0.69780   0.64227   0.00000  Uiso   1.00
H1197  H     0.52726   0.67707   0.64805   0.00000  Uiso   1.00
H1198  H     0.51941   0.73711   0.64763   0.00000  Uiso   1.00
H1199  H     0.57451   0.69553   0.59390   0.00000  Uiso   1.00
H1200  H     0.55465   0.74643   0.57496   0.00000  Uiso   1.00
H1201  H     0.36433   0.94097   0.38116   0.00000  Uiso   1.00
H1202  H     0.40014   0.97072   0.34407   0.00000  Uiso   1.00
H1203  H     0.39252   0.91077   0.33682   0.00000  Uiso   1.00
H1204  H     0.45989   0.93553   0.38610   0.00000  Uiso   1.00
H1205  H     0.63212   0.77181   0.54607   0.00000  Uiso   1.00
H1206  H     0.42861   0.89218   0.41239   0.00000  Uiso   1.00
H1207  H     0.41272   0.94064   0.48078   0.00000  Uiso   1.00
H1208  H     0.40574   0.98528   0.44322   0.00000  Uiso   1.00
H1209  H     0.36628   0.89144   0.45157   0.00000  Uiso   1.00
H1210  H     0.39825   0.73822   0.33914   0.00000  Uiso   1.00
H1211  H     0.37064   0.69936   0.37744   0.00000  Uiso   1.00
H1212  H     0.35910   0.75909   0.37687   0.00000  Uiso   1.00
H1213  H     0.40218   0.73406   0.45280   0.00000  Uiso   1.00
H1214  H     0.42547   0.77756   0.41584   0.00000  Uiso   1.00
N1215  N     0.50000   0.95069   0.50000   0.00000  Uiso   1.00
N1216  N     0.50000   0.71598   0.50000   0.00000  Uiso   1.00
O1217  O     0.43988   0.87291   0.50000   0.00000  Uiso   1.00
O1218  O     0.56012   0.79375   0.50000   0.00000  Uiso   1.00
O1219  O     0.56012   0.87291   0.50000   0.00000  Uiso   1.00
O1220  O     0.43988   0.79375   0.50000   0.00000  Uiso   1.00
O1221  O     0.50000   0.87292   0.42946   0.00000  Uiso   1.00
O1222  O     0.50000   0.79375   0.57054   0.00000  Uiso   1.00
O1223  O     0.50000   0.87292   0.57054   0.00000  Uiso   1.00
O1224  O     0.50000   0.79375   0.42946   0.00000  Uiso   1.00
C1225  C     0.75426   0.83334   0.50007   0.00000  Uiso   1.00
C1226  C     0.68564   0.86626   0.47366   0.00000  Uiso   1.00
C1227  C     0.95692   0.83264   0.50032   0.00000  Uiso   1.00
C1228  C     0.70942   0.83293   0.50011   0.00000  Uiso   1.00
C1229  C     0.80848   0.69139   0.46558   0.00000  Uiso   1.00
C1230  C     0.86425   0.97594   0.52609   0.00000  Uiso   1.00
C1231  C     0.85884   0.69058   0.53307   0.00000  Uiso   1.00
C1232  C     0.80334   0.97645   0.47214   0.00000  Uiso   1.00
C1233  C     0.79018   0.71165   0.41599   0.00000  Uiso   1.00
C1234  C     0.75051   0.74113   0.41810   0.00000  Uiso   1.00
C1235  C     0.71789   0.73364   0.37503   0.00000  Uiso   1.00
C1236  C     0.91232   0.83314   0.50047   0.00000  Uiso   1.00
C1237  C     0.90870   0.95866   0.53738   0.00000  Uiso   1.00
C1238  C     0.91642   0.93280   0.58696   0.00000  Uiso   1.00
C1239  C     0.96284   0.92887   0.60276   0.00000  Uiso   1.00
C1240  C     0.87774   0.71129   0.58084   0.00000  Uiso   1.00
C1241  C     0.84945   0.70632   0.62418   0.00000  Uiso   1.00
C1242  C     0.80315   0.69847   0.60907   0.00000  Uiso   1.00
C1243  C     0.76175   0.95718   0.45112   0.00000  Uiso   1.00
C1244  C     0.76373   0.92889   0.40340   0.00000  Uiso   1.00
C1245  C     0.72784   0.93868   0.36431   0.00000  Uiso   1.00
C1246  C     0.83334   0.83345   0.40715   0.00000  Uiso   1.00
C1247  C     0.83338   0.83323   0.59286   0.00000  Uiso   1.00
C1248  C     0.83326   0.83353   0.35525   0.00000  Uiso   1.00
C1249  C     0.83327   0.83324   0.64474   0.00000  Uiso   1.00
C1250  C     0.69000   0.79845   0.52573   0.00000  Uiso   1.00
C1251  C     0.97624   0.86637   0.47398   0.00000  Uiso   1.00
C1252  C     0.98033   0.79824   0.52574   0.00000  Uiso   1.00
Cu1253 Cu    0.83333   0.88022   0.50000   0.00000  Uiso   1.00
Cu1254 Cu    0.83333   0.78645   0.50000   0.00000  Uiso   1.00
H1255  H     0.70806   0.77217   0.54604   0.00000  Uiso   1.00
H1256  H     0.81432   0.72795   0.39560   0.00000  Uiso   1.00
H1257  H     0.78270   0.68358   0.39011   0.00000  Uiso   1.00
H1258  H     0.97931   0.91109   0.57403   0.00000  Uiso   1.00
H1259  H     0.97651   0.96324   0.60895   0.00000  Uiso   1.00
H1260  H     0.96742   0.90902   0.63781   0.00000  Uiso   1.00
H1261  H     0.90087   0.95056   0.61638   0.00000  Uiso   1.00
H1262  H     0.90388   0.89796   0.58449   0.00000  Uiso   1.00
H1263  H     0.92025   0.94133   0.50546   0.00000  Uiso   1.00
H1264  H     0.93040   0.98798   0.53786   0.00000  Uiso   1.00
H1265  H     0.78985   0.72586   0.58418   0.00000  Uiso   1.00
H1266  H     0.95828   0.89217   0.45280   0.00000  Uiso   1.00
H1267  H     0.79853   0.99832   0.59069   0.00000  Uiso   1.00
H1268  H     0.78562   0.69780   0.64227   0.00000  Uiso   1.00
H1269  H     0.86059   0.67707   0.64805   0.00000  Uiso   1.00
H1270  H     0.85275   0.73711   0.64763   0.00000  Uiso   1.00
H1271  H     0.90785   0.69553   0.59390   0.00000  Uiso   1.00
H1272  H     0.88799   0.74643   0.57496   0.00000  Uiso   1.00
H1273  H     0.69766   0.94097   0.38116   0.00000  Uiso   1.00
H1274  H     0.73347   0.97072   0.34407   0.00000  Uiso   1.00
H1275  H     0.72585   0.91077   0.33682   0.00000  Uiso   1.00
H1276  H     0.79323   0.93553   0.38610   0.00000  Uiso   1.00
H1277  H     0.96545   0.77181   0.54607   0.00000  Uiso   1.00
H1278  H     0.76194   0.89218   0.41239   0.00000  Uiso   1.00
H1279  H     0.74605   0.94064   0.48078   0.00000  Uiso   1.00
H1280  H     0.73908   0.98528   0.44322   0.00000  Uiso   1.00
H1281  H     0.69961   0.89144   0.45157   0.00000  Uiso   1.00
H1282  H     0.73158   0.73822   0.33914   0.00000  Uiso   1.00
H1283  H     0.70397   0.69936   0.37744   0.00000  Uiso   1.00
H1284  H     0.69244   0.75909   0.37687   0.00000  Uiso   1.00
H1285  H     0.73551   0.73406   0.45280   0.00000  Uiso   1.00
H1286  H     0.75880   0.77756   0.41584   0.00000  Uiso   1.00
N1287  N     0.83333   0.95069   0.50000   0.00000  Uiso   1.00
N1288  N     0.83333   0.71598   0.50000   0.00000  Uiso   1.00
O1289  O     0.77321   0.87291   0.50000   0.00000  Uiso   1.00
O1290  O     0.89345   0.79375   0.50000   0.00000  Uiso   1.00
O1291  O     0.89345   0.87291   0.50000   0.00000  Uiso   1.00
O1292  O     0.77321   0.79375   0.50000   0.00000  Uiso   1.00
O1293  O     0.83333   0.87292   0.42946   0.00000  Uiso   1.00
O1294  O     0.83333   0.79375   0.57054   0.00000  Uiso   1.00
O1295  O     0.83333   0.87292   0.57054   0.00000  Uiso   1.00
O1296  O     0.83333   0.79375   0.42946   0.00000  Uiso   1.00
C1297  C     0.08759   0.16667   0.83341   0.00000  Uiso   1.00
C1298  C     0.01897   0.19959   0.80699   0.00000  Uiso   1.00
C1299  C     0.29025   0.16597   0.83366   0.00000  Uiso   1.00
C1300  C     0.04275   0.16626   0.83344   0.00000  Uiso   1.00
C1301  C     0.14181   0.02472   0.79891   0.00000  Uiso   1.00
C1302  C     0.19758   0.30927   0.85942   0.00000  Uiso   1.00
C1303  C     0.19217   0.02391   0.86640   0.00000  Uiso   1.00
C1304  C     0.13667   0.30979   0.80547   0.00000  Uiso   1.00
C1305  C     0.12351   0.04498   0.74932   0.00000  Uiso   1.00
C1306  C     0.08384   0.07446   0.75144   0.00000  Uiso   1.00
C1307  C     0.05122   0.06698   0.70836   0.00000  Uiso   1.00
C1308  C     0.24565   0.16648   0.83381   0.00000  Uiso   1.00
C1309  C     0.24203   0.29199   0.87071   0.00000  Uiso   1.00
C1310  C     0.24975   0.26613   0.92029   0.00000  Uiso   1.00
C1311  C     0.29617   0.26220   0.93610   0.00000  Uiso   1.00
C1312  C     0.21108   0.04462   0.91418   0.00000  Uiso   1.00
C1313  C     0.18279   0.03966   0.95751   0.00000  Uiso   1.00
C1314  C     0.13648   0.03180   0.94241   0.00000  Uiso   1.00
C1315  C     0.09509   0.29052   0.78446   0.00000  Uiso   1.00
C1316  C     0.09706   0.26222   0.73673   0.00000  Uiso   1.00
C1317  C     0.06117   0.27201   0.69764   0.00000  Uiso   1.00
C1318  C     0.16667   0.16678   0.74048   0.00000  Uiso   1.00
C1319  C     0.16671   0.16656   0.92619   0.00000  Uiso   1.00
C1320  C     0.16659   0.16686   0.68858   0.00000  Uiso   1.00
C1321  C     0.16660   0.16658   0.97807   0.00000  Uiso   1.00
C1322  C     0.02334   0.13179   0.85906   0.00000  Uiso   1.00
C1323  C     0.30957   0.19970   0.80731   0.00000  Uiso   1.00
C1324  C     0.31367   0.13158   0.85908   0.00000  Uiso   1.00
Cu1325 Cu    0.16667   0.21355   0.83333   0.00000  Uiso   1.00
Cu1326 Cu    0.16667   0.11978   0.83333   0.00000  Uiso   1.00
H1327  H     0.04140   0.10550   0.87937   0.00000  Uiso   1.00
H1328  H     0.14765   0.06129   0.72893   0.00000  Uiso   1.00
H1329  H     0.11604   0.01691   0.72344   0.00000  Uiso   1.00
H1330  H     0.31265   0.24442   0.90736   0.00000  Uiso   1.00
H1331  H     0.30985   0.29658   0.94228   0.00000  Uiso   1.00
H1332  H     0.30075   0.24235   0.97115   0.00000  Uiso   1.00
H1333  H     0.23420   0.28389   0.94971   0.00000  Uiso   1.00
H1334  H     0.23722   0.23129   0.91782   0.00000  Uiso   1.00
H1335  H     0.25358   0.27466   0.83879   0.00000  Uiso   1.00
H1336  H     0.26373   0.32132   0.87119   0.00000  Uiso   1.00
H1337  H     0.12318   0.05920   0.91751   0.00000  Uiso   1.00
H1338  H     0.29161   0.22551   0.78613   0.00000  Uiso   1.00
H1339  H     0.13186   0.33166   0.92403   0.00000  Uiso   1.00
H1340  H     0.11895   0.03113   0.97560   0.00000  Uiso   1.00
H1341  H     0.19392   0.01041   0.98139   0.00000  Uiso   1.00
H1342  H     0.18608   0.07044   0.98097   0.00000  Uiso   1.00
H1343  H     0.24118   0.02887   0.92724   0.00000  Uiso   1.00
H1344  H     0.22132   0.07976   0.90829   0.00000  Uiso   1.00
H1345  H     0.03099   0.27430   0.71450   0.00000  Uiso   1.00
H1346  H     0.06680   0.30405   0.67740   0.00000  Uiso   1.00
H1347  H     0.05919   0.24410   0.67015   0.00000  Uiso   1.00
H1348  H     0.12656   0.26886   0.71944   0.00000  Uiso   1.00
H1349  H     0.29879   0.10515   0.87940   0.00000  Uiso   1.00
H1350  H     0.09527   0.22552   0.74572   0.00000  Uiso   1.00
H1351  H     0.07939   0.27397   0.81412   0.00000  Uiso   1.00
H1352  H     0.07241   0.31861   0.77655   0.00000  Uiso   1.00
H1353  H     0.03294   0.22477   0.78491   0.00000  Uiso   1.00
H1354  H     0.06492   0.07155   0.67248   0.00000  Uiso   1.00
H1355  H     0.03731   0.03269   0.71077   0.00000  Uiso   1.00
H1356  H     0.02577   0.09242   0.71020   0.00000  Uiso   1.00
H1357  H     0.06884   0.06739   0.78613   0.00000  Uiso   1.00
H1358  H     0.09214   0.11090   0.74917   0.00000  Uiso   1.00
N1359  N     0.16667   0.28402   0.83333   0.00000  Uiso   1.00
N1360  N     0.16667   0.04931   0.83333   0.00000  Uiso   1.00
O1361  O     0.10655   0.20625   0.83333   0.00000  Uiso   1.00
O1362  O     0.22679   0.12709   0.83334   0.00000  Uiso   1.00
O1363  O     0.22679   0.20625   0.83334   0.00000  Uiso   1.00
O1364  O     0.10655   0.12709   0.83333   0.00000  Uiso   1.00
O1365  O     0.16667   0.20625   0.76280   0.00000  Uiso   1.00
O1366  O     0.16667   0.12708   0.90387   0.00000  Uiso   1.00
O1367  O     0.16667   0.20625   0.90387   0.00000  Uiso   1.00
O1368  O     0.16667   0.12708   0.76280   0.00000  Uiso   1.00
C1369  C     0.42092   0.16667   0.83341   0.00000  Uiso   1.00
C1370  C     0.35230   0.19959   0.80699   0.00000  Uiso   1.00
C1371  C     0.62358   0.16597   0.83366   0.00000  Uiso   1.00
C1372  C     0.37609   0.16626   0.83344   0.00000  Uiso   1.00
C1373  C     0.47515   0.02472   0.79891   0.00000  Uiso   1.00
C1374  C     0.53091   0.30927   0.85942   0.00000  Uiso   1.00
C1375  C     0.52550   0.02391   0.86640   0.00000  Uiso   1.00
C1376  C     0.47001   0.30979   0.80547   0.00000  Uiso   1.00
C1377  C     0.45685   0.04498   0.74932   0.00000  Uiso   1.00
C1378  C     0.41717   0.07446   0.75144   0.00000  Uiso   1.00
C1379  C     0.38455   0.06698   0.70836   0.00000  Uiso   1.00
C1380  C     0.57898   0.16648   0.83381   0.00000  Uiso   1.00
C1381  C     0.57537   0.29199   0.87071   0.00000  Uiso   1.00
C1382  C     0.58308   0.26613   0.92029   0.00000  Uiso   1.00
C1383  C     0.62950   0.26220   0.93610   0.00000  Uiso   1.00
C1384  C     0.54441   0.04462   0.91418   0.00000  Uiso   1.00
C1385  C     0.51612   0.03966   0.95751   0.00000  Uiso   1.00
C1386  C     0.46982   0.03180   0.94241   0.00000  Uiso   1.00
C1387  C     0.42842   0.29052   0.78446   0.00000  Uiso   1.00
C1388  C     0.43040   0.26222   0.73673   0.00000  Uiso   1.00
C1389  C     0.39451   0.27201   0.69764   0.00000  Uiso   1.00
C1390  C     0.50000   0.16678   0.74048   0.00000  Uiso   1.00
C1391  C     0.50004   0.16656   0.92619   0.00000  Uiso   1.00
C1392  C     0.49993   0.16686   0.68858   0.00000  Uiso   1.00
C1393  C     0.49993   0.16658   0.97807   0.00000  Uiso   1.00
C1394  C     0.35667   0.13179   0.85906   0.00000  Uiso   1.00
C1395  C     0.64291   0.19970   0.80731   0.00000  Uiso   1.00
C1396  C     0.64700   0.13158   0.85908   0.00000  Uiso   1.00
Cu1397 Cu    0.50000   0.21355   0.83333   0.00000  Uiso   1.00
Cu1398 Cu    0.50000   0.11978   0.83333   0.00000  Uiso   1.00
H1399  H     0.37473   0.10550   0.87937   0.00000  Uiso   1.00
H1400  H     0.48098   0.06129   0.72893   0.00000  Uiso   1.00
H1401  H     0.44937   0.01691   0.72344   0.00000  Uiso   1.00
H1402  H     0.64598   0.24442   0.90736   0.00000  Uiso   1.00
H1403  H     0.64318   0.29658   0.94228   0.00000  Uiso   1.00
H1404  H     0.63408   0.24235   0.97115   0.00000  Uiso   1.00
H1405  H     0.56754   0.28389   0.94971   0.00000  Uiso   1.00
H1406  H     0.57055   0.23129   0.91782   0.00000  Uiso   1.00
H1407  H     0.58692   0.27466   0.83879   0.00000  Uiso   1.00
H1408  H     0.59706   0.32132   0.87119   0.00000  Uiso   1.00
H1409  H     0.45652   0.05920   0.91751   0.00000  Uiso   1.00
H1410  H     0.62494   0.22551   0.78613   0.00000  Uiso   1.00
H1411  H     0.46520   0.33166   0.92403   0.00000  Uiso   1.00
H1412  H     0.45229   0.03113   0.97560   0.00000  Uiso   1.00
H1413  H     0.52726   0.01041   0.98139   0.00000  Uiso   1.00
H1414  H     0.51941   0.07044   0.98097   0.00000  Uiso   1.00
H1415  H     0.57451   0.02887   0.92724   0.00000  Uiso   1.00
H1416  H     0.55465   0.07976   0.90829   0.00000  Uiso   1.00
H1417  H     0.36433   0.27430   0.71450   0.00000  Uiso   1.00
H1418  H     0.40014   0.30405   0.67740   0.00000  Uiso   1.00
H1419  H     0.39252   0.24410   0.67015   0.00000  Uiso   1.00
H1420  H     0.45989   0.26886   0.71944   0.00000  Uiso   1.00
H1421  H     0.63212   0.10515   0.87940   0.00000  Uiso   1.00
H1422  H     0.42861   0.22552   0.74572   0.00000  Uiso   1.00
H1423  H     0.41272   0.27397   0.81412   0.00000  Uiso   1.00
H1424  H     0.40574   0.31861   0.77655   0.00000  Uiso   1.00
H1425  H     0.36628   0.22477   0.78491   0.00000  Uiso   1.00
H1426  H     0.39825   0.07155   0.67248   0.00000  Uiso   1.00
H1427  H     0.37064   0.03269   0.71077   0.00000  Uiso   1.00
H1428  H     0.35910   0.09242   0.71020   0.00000  Uiso   1.00
H1429  H     0.40218   0.06739   0.78613   0.00000  Uiso   1.00
H1430  H     0.42547   0.11090   0.74917   0.00000  Uiso   1.00
N1431  N     0.50000   0.28402   0.83333   0.00000  Uiso   1.00
N1432  N     0.50000   0.04931   0.83333   0.00000  Uiso   1.00
O1433  O     0.43988   0.20625   0.83333   0.00000  Uiso   1.00
O1434  O     0.56012   0.12709   0.83334   0.00000  Uiso   1.00
O1435  O     0.56012   0.20625   0.83334   0.00000  Uiso   1.00
O1436  O     0.43988   0.12709   0.83333   0.00000  Uiso   1.00
O1437  O     0.50000   0.20625   0.76280   0.00000  Uiso   1.00
O1438  O     0.50000   0.12708   0.90387   0.00000  Uiso   1.00
O1439  O     0.50000   0.20625   0.90387   0.00000  Uiso   1.00
O1440  O     0.50000   0.12708   0.76280   0.00000  Uiso   1.00
C1441  C     0.75426   0.16667   0.83341   0.00000  Uiso   1.00
C1442  C     0.68564   0.19959   0.80699   0.00000  Uiso   1.00
C1443  C     0.95692   0.16597   0.83366   0.00000  Uiso   1.00
C1444  C     0.70942   0.16626   0.83344   0.00000  Uiso   1.00
C1445  C     0.80848   0.02472   0.79891   0.00000  Uiso   1.00
C1446  C     0.86425   0.30927   0.85942   0.00000  Uiso   1.00
C1447  C     0.85884   0.02391   0.86640   0.00000  Uiso   1.00
C1448  C     0.80334   0.30979   0.80547   0.00000  Uiso   1.00
C1449  C     0.79018   0.04498   0.74932   0.00000  Uiso   1.00
C1450  C     0.75051   0.07446   0.75144   0.00000  Uiso   1.00
C1451  C     0.71789   0.06698   0.70836   0.00000  Uiso   1.00
C1452  C     0.91232   0.16648   0.83381   0.00000  Uiso   1.00
C1453  C     0.90870   0.29199   0.87071   0.00000  Uiso   1.00
C1454  C     0.91642   0.26613   0.92029   0.00000  Uiso   1.00
C1455  C     0.96284   0.26220   0.93610   0.00000  Uiso   1.00
C1456  C     0.87774   0.04462   0.91418   0.00000  Uiso   1.00
C1457  C     0.84945   0.03966   0.95751   0.00000  Uiso   1.00
C1458  C     0.80315   0.03180   0.94241   0.00000  Uiso   1.00
C1459  C     0.76175   0.29052   0.78446   0.00000  Uiso   1.00
C1460  C     0.76373   0.26222   0.73673   0.00000  Uiso   1.00
C1461  C     0.72784   0.27201   0.69764   0.00000  Uiso   1.00
C1462  C     0.83334   0.16678   0.74048   0.00000  Uiso   1.00
C1463  C     0.83338   0.16656   0.92619   0.00000  Uiso   1.00
C1464  C     0.83326   0.16686   0.68858   0.00000  Uiso   1.00
C1465  C     0.83327   0.16658   0.97807   0.00000  Uiso   1.00
C1466  C     0.69000   0.13179   0.85906   0.00000  Uiso   1.00
C1467  C     0.97624   0.19970   0.80731   0.00000  Uiso   1.00
C1468  C     0.98033   0.13158   0.85908   0.00000  Uiso   1.00
Cu1469 Cu    0.83333   0.21355   0.83333   0.00000  Uiso   1.00
Cu1470 Cu    0.83333   0.11978   0.83333   0.00000  Uiso   1.00
H1471  H     0.70806   0.10550   0.87937   0.00000  Uiso   1.00
H1472  H     0.81432   0.06129   0.72893   0.00000  Uiso   1.00
H1473  H     0.78270   0.01691   0.72344   0.00000  Uiso   1.00
H1474  H     0.97931   0.24442   0.90736   0.00000  Uiso   1.00
H1475  H     0.97651   0.29658   0.94228   0.00000  Uiso   1.00
H1476  H     0.96742   0.24235   0.97115   0.00000  Uiso   1.00
H1477  H     0.90087   0.28389   0.94971   0.00000  Uiso   1.00
H1478  H     0.90388   0.23129   0.91782   0.00000  Uiso   1.00
H1479  H     0.92025   0.27466   0.83879   0.00000  Uiso   1.00
H1480  H     0.93040   0.32132   0.87119   0.00000  Uiso   1.00
H1481  H     0.78985   0.05920   0.91751   0.00000  Uiso   1.00
H1482  H     0.95828   0.22551   0.78613   0.00000  Uiso   1.00
H1483  H     0.79853   0.33166   0.92403   0.00000  Uiso   1.00
H1484  H     0.78562   0.03113   0.97560   0.00000  Uiso   1.00
H1485  H     0.86059   0.01041   0.98139   0.00000  Uiso   1.00
H1486  H     0.85275   0.07044   0.98097   0.00000  Uiso   1.00
H1487  H     0.90785   0.02887   0.92724   0.00000  Uiso   1.00
H1488  H     0.88799   0.07976   0.90829   0.00000  Uiso   1.00
H1489  H     0.69766   0.27430   0.71450   0.00000  Uiso   1.00
H1490  H     0.73347   0.30405   0.67740   0.00000  Uiso   1.00
H1491  H     0.72585   0.24410   0.67015   0.00000  Uiso   1.00
H1492  H     0.79323   0.26886   0.71944   0.00000  Uiso   1.00
H1493  H     0.96545   0.10515   0.87940   0.00000  Uiso   1.00
H1494  H     0.76194   0.22552   0.74572   0.00000  Uiso   1.00
H1495  H     0.74605   0.27397   0.81412   0.00000  Uiso   1.00
H1496  H     0.73908   0.31861   0.77655   0.00000  Uiso   1.00
H1497  H     0.69961   0.22477   0.78491   0.00000  Uiso   1.00
H1498  H     0.73158   0.07155   0.67248   0.00000  Uiso   1.00
H1499  H     0.70397   0.03269   0.71077   0.00000  Uiso   1.00
H1500  H     0.69244   0.09242   0.71020   0.00000  Uiso   1.00
H1501  H     0.73551   0.06739   0.78613   0.00000  Uiso   1.00
H1502  H     0.75880   0.11090   0.74917   0.00000  Uiso   1.00
N1503  N     0.83333   0.28402   0.83333   0.00000  Uiso   1.00
N1504  N     0.83333   0.04931   0.83333   0.00000  Uiso   1.00
O1505  O     0.77321   0.20625   0.83333   0.00000  Uiso   1.00
O1506  O     0.89345   0.12709   0.83334   0.00000  Uiso   1.00
O1507  O     0.89345   0.20625   0.83334   0.00000  Uiso   1.00
O1508  O     0.77321   0.12709   0.83333   0.00000  Uiso   1.00
O1509  O     0.83333   0.20625   0.76280   0.00000  Uiso   1.00
O1510  O     0.83333   0.12708   0.90387   0.00000  Uiso   1.00
O1511  O     0.83333   0.20625   0.90387   0.00000  Uiso   1.00
O1512  O     0.83333   0.12708   0.76280   0.00000  Uiso   1.00
C1513  C     0.08759   0.50000   0.83341   0.00000  Uiso   1.00
C1514  C     0.01897   0.53292   0.80699   0.00000  Uiso   1.00
C1515  C     0.29025   0.49931   0.83366   0.00000  Uiso   1.00
C1516  C     0.04275   0.49960   0.83344   0.00000  Uiso   1.00
C1517  C     0.14181   0.35805   0.79891   0.00000  Uiso   1.00
C1518  C     0.19758   0.64260   0.85942   0.00000  Uiso   1.00
C1519  C     0.19217   0.35724   0.86640   0.00000  Uiso   1.00
C1520  C     0.13667   0.64312   0.80547   0.00000  Uiso   1.00
C1521  C     0.12351   0.37831   0.74932   0.00000  Uiso   1.00
C1522  C     0.08384   0.40780   0.75144   0.00000  Uiso   1.00
C1523  C     0.05122   0.40031   0.70836   0.00000  Uiso   1.00
C1524  C     0.24565   0.49981   0.83381   0.00000  Uiso   1.00
C1525  C     0.24203   0.62532   0.87071   0.00000  Uiso   1.00
C1526  C     0.24975   0.59946   0.92029   0.00000  Uiso   1.00
C1527  C     0.29617   0.59554   0.93610   0.00000  Uiso   1.00
C1528  C     0.21108   0.37795   0.91418   0.00000  Uiso   1.00
C1529  C     0.18279   0.37299   0.95751   0.00000  Uiso   1.00
C1530  C     0.13648   0.36514   0.94241   0.00000  Uiso   1.00
C1531  C     0.09509   0.62385   0.78446   0.00000  Uiso   1.00
C1532  C     0.09706   0.59556   0.73673   0.00000  Uiso   1.00
C1533  C     0.06117   0.60534   0.69764   0.00000  Uiso   1.00
C1534  C     0.16667   0.50012   0.74048   0.00000  Uiso   1.00
C1535  C     0.16671   0.49990   0.92619   0.00000  Uiso   1.00
C1536  C     0.16659   0.50020   0.68858   0.00000  Uiso   1.00
C1537  C     0.16660   0.49991   0.97807   0.00000  Uiso   1.00
C1538  C     0.02334   0.46512   0.85906   0.00000  Uiso   1.00
C1539  C     0.30957   0.53303   0.80731   0.00000  Uiso   1.00
C1540  C     0.31367   0.46491   0.85908   0.00000  Uiso   1.00
Cu1541 Cu    0.16667   0.54689   0.83333   0.00000  Uiso   1.00
Cu1542 Cu    0.16667   0.45311   0.83333   0.00000  Uiso   1.00
H1543  H     0.04140   0.43884   0.87937   0.00000  Uiso   1.00
H1544  H     0.14765   0.39462   0.72893   0.00000  Uiso   1.00
H1545  H     0.11604   0.35025   0.72344   0.00000  Uiso   1.00
H1546  H     0.31265   0.57776   0.90736   0.00000  Uiso   1.00
H1547  H     0.30985   0.62991   0.94228   0.00000  Uiso   1.00
H1548  H     0.30075   0.57568   0.97115   0.00000  Uiso   1.00
H1549  H     0.23420   0.61723   0.94971   0.00000  Uiso   1.00
H1550  H     0.23722   0.56463   0.91782   0.00000  Uiso   1.00
H1551  H     0.25358   0.60800   0.83879   0.00000  Uiso   1.00
H1552  H     0.26373   0.65465   0.87119   0.00000  Uiso   1.00
H1553  H     0.12318   0.39253   0.91751   0.00000  Uiso   1.00
H1554  H     0.29161   0.55884   0.78613   0.00000  Uiso   1.00
H1555  H     0.13186   0.66499   0.92403   0.00000  Uiso   1.00
H1556  H     0.11895   0.36446   0.97560   0.00000  Uiso   1.00
H1557  H     0.19392   0.34374   0.98139   0.00000  Uiso   1.00
H1558  H     0.18608   0.40377   0.98097   0.00000  Uiso   1.00
H1559  H     0.24118   0.36220   0.92724   0.00000  Uiso   1.00
H1560  H     0.22132   0.41310   0.90829   0.00000  Uiso   1.00
H1561  H     0.03099   0.60763   0.71450   0.00000  Uiso   1.00
H1562  H     0.06680   0.63738   0.67740   0.00000  Uiso   1.00
H1563  H     0.05919   0.57743   0.67015   0.00000  Uiso   1.00
H1564  H     0.12656   0.60220   0.71944   0.00000  Uiso   1.00
H1565  H     0.29879   0.43848   0.87940   0.00000  Uiso   1.00
H1566  H     0.09527   0.55885   0.74572   0.00000  Uiso   1.00
H1567  H     0.07939   0.60731   0.81412   0.00000  Uiso   1.00
H1568  H     0.07241   0.65194   0.77655   0.00000  Uiso   1.00
H1569  H     0.03294   0.55811   0.78491   0.00000  Uiso   1.00
H1570  H     0.06492   0.40489   0.67248   0.00000  Uiso   1.00
H1571  H     0.03731   0.36602   0.71077   0.00000  Uiso   1.00
H1572  H     0.02577   0.42575   0.71020   0.00000  Uiso   1.00
H1573  H     0.06884   0.40072   0.78613   0.00000  Uiso   1.00
H1574  H     0.09214   0.44423   0.74917   0.00000  Uiso   1.00
N1575  N     0.16667   0.61736   0.83333   0.00000  Uiso   1.00
N1576  N     0.16667   0.38264   0.83333   0.00000  Uiso   1.00
O1577  O     0.10655   0.53958   0.83333   0.00000  Uiso   1.00
O1578  O     0.22679   0.46042   0.83334   0.00000  Uiso   1.00
O1579  O     0.22679   0.53958   0.83334   0.00000  Uiso   1.00
O1580  O     0.10655   0.46042   0.83333   0.00000  Uiso   1.00
O1581  O     0.16667   0.53959   0.76280   0.00000  Uiso   1.00
O1582  O     0.16667   0.46041   0.90387   0.00000  Uiso   1.00
O1583  O     0.16667   0.53959   0.90387   0.00000  Uiso   1.00
O1584  O     0.16667   0.46041   0.76280   0.00000  Uiso   1.00
C1585  C     0.42092   0.50000   0.83341   0.00000  Uiso   1.00
C1586  C     0.35230   0.53292   0.80699   0.00000  Uiso   1.00
C1587  C     0.62358   0.49931   0.83366   0.00000  Uiso   1.00
C1588  C     0.37609   0.49960   0.83344   0.00000  Uiso   1.00
C1589  C     0.47515   0.35805   0.79891   0.00000  Uiso   1.00
C1590  C     0.53091   0.64260   0.85942   0.00000  Uiso   1.00
C1591  C     0.52550   0.35724   0.86640   0.00000  Uiso   1.00
C1592  C     0.47001   0.64312   0.80547   0.00000  Uiso   1.00
C1593  C     0.45685   0.37831   0.74932   0.00000  Uiso   1.00
C1594  C     0.41717   0.40780   0.75144   0.00000  Uiso   1.00
C1595  C     0.38455   0.40031   0.70836   0.00000  Uiso   1.00
C1596  C     0.57898   0.49981   0.83381   0.00000  Uiso   1.00
C1597  C     0.57537   0.62532   0.87071   0.00000  Uiso   1.00
C1598  C     0.58308   0.59946   0.92029   0.00000  Uiso   1.00
C1599  C     0.62950   0.59554   0.93610   0.00000  Uiso   1.00
C1600  C     0.54441   0.37795   0.91418   0.00000  Uiso   1.00
C1601  C     0.51612   0.37299   0.95751   0.00000  Uiso   1.00
C1602  C     0.46982   0.36514   0.94241   0.00000  Uiso   1.00
C1603  C     0.42842   0.62385   0.78446   0.00000  Uiso   1.00
C1604  C     0.43040   0.59556   0.73673   0.00000  Uiso   1.00
C1605  C     0.39451   0.60534   0.69764   0.00000  Uiso   1.00
C1606  C     0.50000   0.50012   0.74048   0.00000  Uiso   1.00
C1607  C     0.50004   0.49990   0.92619   0.00000  Uiso   1.00
C1608  C     0.49993   0.50020   0.68858   0.00000  Uiso   1.00
C1609  C     0.49993   0.49991   0.97807   0.00000  Uiso   1.00
C1610  C     0.35667   0.46512   0.85906   0.00000  Uiso   1.00
C1611  C     0.64291   0.53303   0.80731   0.00000  Uiso   1.00
C1612  C     0.64700   0.46491   0.85908   0.00000  Uiso   1.00
Cu1613 Cu    0.50000   0.54689   0.83333   0.00000  Uiso   1.00
Cu1614 Cu    0.50000   0.45311   0.83333   0.00000  Uiso   1.00
H1615  H     0.37473   0.43884   0.87937   0.00000  Uiso   1.00
H1616  H     0.48098   0.39462   0.72893   0.00000  Uiso   1.00
H1617  H     0.44937   0.35025   0.72344   0.00000  Uiso   1.00
H1618  H     0.64598   0.57776   0.90736   0.00000  Uiso   1.00
H1619  H     0.64318   0.62991   0.94228   0.00000  Uiso   1.00
H1620  H     0.63408   0.57568   0.97115   0.00000  Uiso   1.00
H1621  H     0.56754   0.61723   0.94971   0.00000  Uiso   1.00
H1622  H     0.57055   0.56463   0.91782   0.00000  Uiso   1.00
H1623  H     0.58692   0.60800   0.83879   0.00000  Uiso   1.00
H1624  H     0.59706   0.65465   0.87119   0.00000  Uiso   1.00
H1625  H     0.45652   0.39253   0.91751   0.00000  Uiso   1.00
H1626  H     0.62494   0.55884   0.78613   0.00000  Uiso   1.00
H1627  H     0.46520   0.66499   0.92403   0.00000  Uiso   1.00
H1628  H     0.45229   0.36446   0.97560   0.00000  Uiso   1.00
H1629  H     0.52726   0.34374   0.98139   0.00000  Uiso   1.00
H1630  H     0.51941   0.40377   0.98097   0.00000  Uiso   1.00
H1631  H     0.57451   0.36220   0.92724   0.00000  Uiso   1.00
H1632  H     0.55465   0.41310   0.90829   0.00000  Uiso   1.00
H1633  H     0.36433   0.60763   0.71450   0.00000  Uiso   1.00
H1634  H     0.40014   0.63738   0.67740   0.00000  Uiso   1.00
H1635  H     0.39252   0.57743   0.67015   0.00000  Uiso   1.00
H1636  H     0.45989   0.60220   0.71944   0.00000  Uiso   1.00
H1637  H     0.63212   0.43848   0.87940   0.00000  Uiso   1.00
H1638  H     0.42861   0.55885   0.74572   0.00000  Uiso   1.00
H1639  H     0.41272   0.60731   0.81412   0.00000  Uiso   1.00
H1640  H     0.40574   0.65194   0.77655   0.00000  Uiso   1.00
H1641  H     0.36628   0.55811   0.78491   0.00000  Uiso   1.00
H1642  H     0.39825   0.40489   0.67248   0.00000  Uiso   1.00
H1643  H     0.37064   0.36602   0.71077   0.00000  Uiso   1.00
H1644  H     0.35910   0.42575   0.71020   0.00000  Uiso   1.00
H1645  H     0.40218   0.40072   0.78613   0.00000  Uiso   1.00
H1646  H     0.42547   0.44423   0.74917   0.00000  Uiso   1.00
N1647  N     0.50000   0.61736   0.83333   0.00000  Uiso   1.00
N1648  N     0.50000   0.38264   0.83333   0.00000  Uiso   1.00
O1649  O     0.43988   0.53958   0.83333   0.00000  Uiso   1.00
O1650  O     0.56012   0.46042   0.83334   0.00000  Uiso   1.00
O1651  O     0.56012   0.53958   0.83334   0.00000  Uiso   1.00
O1652  O     0.43988   0.46042   0.83333   0.00000  Uiso   1.00
O1653  O     0.50000   0.53959   0.76280   0.00000  Uiso   1.00
O1654  O     0.50000   0.46041   0.90387   0.00000  Uiso   1.00
O1655  O     0.50000   0.53959   0.90387   0.00000  Uiso   1.00
O1656  O     0.50000   0.46041   0.76280   0.00000  Uiso   1.00
C1657  C     0.75426   0.50000   0.83341   0.00000  Uiso   1.00
C1658  C     0.68564   0.53292   0.80699   0.00000  Uiso   1.00
C1659  C     0.95692   0.49931   0.83366   0.00000  Uiso   1.00
C1660  C     0.70942   0.49960   0.83344   0.00000  Uiso   1.00
C1661  C     0.80848   0.35805   0.79891   0.00000  Uiso   1.00
C1662  C     0.86425   0.64260   0.85942   0.00000  Uiso   1.00
C1663  C     0.85884   0.35724   0.86640   0.00000  Uiso   1.00
C1664  C     0.80334   0.64312   0.80547   0.00000  Uiso   1.00
C1665  C     0.79018   0.37831   0.74932   0.00000  Uiso   1.00
C1666  C     0.75051   0.40780   0.75144   0.00000  Uiso   1.00
C1667  C     0.71789   0.40031   0.70836   0.00000  Uiso   1.00
C1668  C     0.91232   0.49981   0.83381   0.00000  Uiso   1.00
C1669  C     0.90870   0.62532   0.87071   0.00000  Uiso   1.00
C1670  C     0.91642   0.59946   0.92029   0.00000  Uiso   1.00
C1671  C     0.96284   0.59554   0.93610   0.00000  Uiso   1.00
C1672  C     0.87774   0.37795   0.91418   0.00000  Uiso   1.00
C1673  C     0.84945   0.37299   0.95751   0.00000  Uiso   1.00
C1674  C     0.80315   0.36514   0.94241   0.00000  Uiso   1.00
C1675  C     0.76175   0.62385   0.78446   0.00000  Uiso   1.00
C1676  C     0.76373   0.59556   0.73673   0.00000  Uiso   1.00
C1677  C     0.72784   0.60534   0.69764   0.00000  Uiso   1.00
C1678  C     0.83334   0.50012   0.74048   0.00000  Uiso   1.00
C1679  C     0.83338   0.49990   0.92619   0.00000  Uiso   1.00
C1680  C     0.83326   0.50020   0.68858   0.00000  Uiso   1.00
C1681  C     0.83327   0.49991   0.97807   0.00000  Uiso   1.00
C1682  C     0.69000   0.46512   0.85906   0.00000  Uiso   1.00
C1683  C     0.97624   0.53303   0.80731   0.00000  Uiso   1.00
C1684  C     0.98033   0.46491   0.85908   0.00000  Uiso   1.00
Cu1685 Cu    0.83333   0.54689   0.83333   0.00000  Uiso   1.00
Cu1686 Cu    0.83333   0.45311   0.83333   0.00000  Uiso   1.00
H1687  H     0.70806   0.43884   0.87937   0.00000  Uiso   1.00
H1688  H     0.81432   0.39462   0.72893   0.00000  Uiso   1.00
H1689  H     0.78270   0.35025   0.72344   0.00000  Uiso   1.00
H1690  H     0.97931   0.57776   0.90736   0.00000  Uiso   1.00
H1691  H     0.97651   0.62991   0.94228   0.00000  Uiso   1.00
H1692  H     0.96742   0.57568   0.97115   0.00000  Uiso   1.00
H1693  H     0.90087   0.61723   0.94971   0.00000  Uiso   1.00
H1694  H     0.90388   0.56463   0.91782   0.00000  Uiso   1.00
H1695  H     0.92025   0.60800   0.83879   0.00000  Uiso   1.00
H1696  H     0.93040   0.65465   0.87119   0.00000  Uiso   1.00
H1697  H     0.78985   0.39253   0.91751   0.00000  Uiso   1.00
H1698  H     0.95828   0.55884   0.78613   0.00000  Uiso   1.00
H1699  H     0.79853   0.66499   0.92403   0.00000  Uiso   1.00
H1700  H     0.78562   0.36446   0.97560   0.00000  Uiso   1.00
H1701  H     0.86059   0.34374   0.98139   0.00000  Uiso   1.00
H1702  H     0.85275   0.40377   0.98097   0.00000  Uiso   1.00
H1703  H     0.90785   0.36220   0.92724   0.00000  Uiso   1.00
H1704  H     0.88799   0.41310   0.90829   0.00000  Uiso   1.00
H1705  H     0.69766   0.60763   0.71450   0.00000  Uiso   1.00
H1706  H     0.73347   0.63738   0.67740   0.00000  Uiso   1.00
H1707  H     0.72585   0.57743   0.67015   0.00000  Uiso   1.00
H1708  H     0.79323   0.60220   0.71944   0.00000  Uiso   1.00
H1709  H     0.96545   0.43848   0.87940   0.00000  Uiso   1.00
H1710  H     0.76194   0.55885   0.74572   0.00000  Uiso   1.00
H1711  H     0.74605   0.60731   0.81412   0.00000  Uiso   1.00
H1712  H     0.73908   0.65194   0.77655   0.00000  Uiso   1.00
H1713  H     0.69961   0.55811   0.78491   0.00000  Uiso   1.00
H1714  H     0.73158   0.40489   0.67248   0.00000  Uiso   1.00
H1715  H     0.70397   0.36602   0.71077   0.00000  Uiso   1.00
H1716  H     0.69244   0.42575   0.71020   0.00000  Uiso   1.00
H1717  H     0.73551   0.40072   0.78613   0.00000  Uiso   1.00
H1718  H     0.75880   0.44423   0.74917   0.00000  Uiso   1.00
N1719  N     0.83333   0.61736   0.83333   0.00000  Uiso   1.00
N1720  N     0.83333   0.38264   0.83333   0.00000  Uiso   1.00
O1721  O     0.77321   0.53958   0.83333   0.00000  Uiso   1.00
O1722  O     0.89345   0.46042   0.83334   0.00000  Uiso   1.00
O1723  O     0.89345   0.53958   0.83334   0.00000  Uiso   1.00
O1724  O     0.77321   0.46042   0.83333   0.00000  Uiso   1.00
O1725  O     0.83333   0.53959   0.76280   0.00000  Uiso   1.00
O1726  O     0.83333   0.46041   0.90387   0.00000  Uiso   1.00
O1727  O     0.83333   0.53959   0.90387   0.00000  Uiso   1.00
O1728  O     0.83333   0.46041   0.76280   0.00000  Uiso   1.00
C1729  C     0.08759   0.83334   0.83341   0.00000  Uiso   1.00
C1730  C     0.01897   0.86626   0.80699   0.00000  Uiso   1.00
C1731  C     0.29025   0.83264   0.83366   0.00000  Uiso   1.00
C1732  C     0.04275   0.83293   0.83344   0.00000  Uiso   1.00
C1733  C     0.14181   0.69139   0.79891   0.00000  Uiso   1.00
C1734  C     0.19758   0.97594   0.85942   0.00000  Uiso   1.00
C1735  C     0.19217   0.69058   0.86640   0.00000  Uiso   1.00
C1736  C     0.13667   0.97645   0.80547   0.00000  Uiso   1.00
C1737  C     0.12351   0.71165   0.74932   0.00000  Uiso   1.00
C1738  C     0.08384   0.74113   0.75144   0.00000  Uiso   1.00
C1739  C     0.05122   0.73364   0.70836   0.00000  Uiso   1.00
C1740  C     0.24565   0.83314   0.83381   0.00000  Uiso   1.00
C1741  C     0.24203   0.95866   0.87071   0.00000  Uiso   1.00
C1742  C     0.24975   0.93280   0.92029   0.00000  Uiso   1.00
C1743  C     0.29617   0.92887   0.93610   0.00000  Uiso   1.00
C1744  C     0.21108   0.71129   0.91418   0.00000  Uiso   1.00
C1745  C     0.18279   0.70632   0.95751   0.00000  Uiso   1.00
C1746  C     0.13648   0.69847   0.94241   0.00000  Uiso   1.00
C1747  C     0.09509   0.95718   0.78446   0.00000  Uiso   1.00
C1748  C     0.09706   0.92889   0.73673   0.00000  Uiso   1.00
C1749  C     0.06117   0.93868   0.69764   0.00000  Uiso   1.00
C1750  C     0.16667   0.83345   0.74048   0.00000  Uiso   1.00
C1751  C     0.16671   0.83323   0.92619   0.00000  Uiso   1.00
C1752  C     0.16659   0.83353   0.68858   0.00000  Uiso   1.00
C1753  C     0.16660   0.83324   0.97807   0.00000  Uiso   1.00
C1754  C     0.02334   0.79845   0.85906   0.00000  Uiso   1.00
C1755  C     0.30957   0.86637   0.80731   0.00000  Uiso   1.00
C1756  C     0.31367   0.79824   0.85908   0.00000  Uiso   1.00
Cu1757 Cu    0.16667   0.88022   0.83333   0.00000  Uiso   1.00
Cu1758 Cu    0.16667   0.78645   0.83333   0.00000  Uiso   1.00
H1759  H     0.04140   0.77217   0.87937   0.00000  Uiso   1.00
H1760  H     0.14765   0.72795   0.72893   0.00000  Uiso   1.00
H1761  H     0.11604   0.68358   0.72344   0.00000  Uiso   1.00
H1762  H     0.31265   0.91109   0.90736   0.00000  Uiso   1.00
H1763  H     0.30985   0.96324   0.94228   0.00000  Uiso   1.00
H1764  H     0.30075   0.90902   0.97115   0.00000  Uiso   1.00
H1765  H     0.23420   0.95056   0.94971   0.00000  Uiso   1.00
H1766  H     0.23722   0.89796   0.91782   0.00000  Uiso   1.00
H1767  H     0.25358   0.94133   0.83879   0.00000  Uiso   1.00
H1768  H     0.26373   0.98798   0.87119   0.00000  Uiso   1.00
H1769  H     0.12318   0.72586   0.91751   0.00000  Uiso   1.00
H1770  H     0.29161   0.89217   0.78613   0.00000  Uiso   1.00
H1771  H     0.13186   0.99832   0.92403   0.00000  Uiso   1.00
H1772  H     0.11895   0.69780   0.97560   0.00000  Uiso   1.00
H1773  H     0.19392   0.67707   0.98139   0.00000  Uiso   1.00
H1774  H     0.18608   0.73711   0.98097   0.00000  Uiso   1.00
H1775  H     0.24118   0.69553   0.92724   0.00000  Uiso   1.00
H1776  H     0.22132   0.74643   0.90829   0.00000  Uiso   1.00
H1777  H     0.03099   0.94097   0.71450   0.00000  Uiso   1.00
H1778  H     0.06680   0.97072   0.67740   0.00000  Uiso   1.00
H1779  H     0.05919   0.91077   0.67015   0.00000  Uiso   1.00
H1780  H     0.12656   0.93553   0.71944   0.00000  Uiso   1.00
H1781  H     0.29879   0.77181   0.87940   0.00000  Uiso   1.00
H1782  H     0.09527   0.89218   0.74572   0.00000  Uiso   1.00
H1783  H     0.07939   0.94064   0.81412   0.00000  Uiso   1.00
H1784  H     0.07241   0.98528   0.77655   0.00000  Uiso   1.00
H1785  H     0.03294   0.89144   0.78491   0.00000  Uiso   1.00
H1786  H     0.06492   0.73822   0.67248   0.00000  Uiso   1.00
H1787  H     0.03731   0.69936   0.71077   0.00000  Uiso   1.00
H1788  H     0.02577   0.75909   0.71020   0.00000  Uiso   1.00
H1789  H     0.06884   0.73406   0.78613   0.00000  Uiso   1.00
H1790  H     0.09214   0.77756   0.74917   0.00000  Uiso   1.00
N1791  N     0.16667   0.95069   0.83333   0.00000  Uiso   1.00
N1792  N     0.16667   0.71598   0.83333   0.00000  Uiso   1.00
O1793  O     0.10655   0.87291   0.83333   0.00000  Uiso   1.00
O1794  O     0.22679   0.79375   0.83334   0.00000  Uiso   1.00
O1795  O     0.22679   0.87291   0.83334   0.00000  Uiso   1.00
O1796  O     0.10655   0.79375   0.83333   0.00000  Uiso   1.00
O1797  O     0.16667   0.87292   0.76280   0.00000  Uiso   1.00
O1798  O     0.16667   0.79375   0.90387   0.00000  Uiso   1.00
O1799  O     0.16667   0.87292   0.90387   0.00000  Uiso   1.00
O1800  O     0.16667   0.79375   0.76280   0.00000  Uiso   1.00
C1801  C     0.42092   0.83334   0.83341   0.00000  Uiso   1.00
C1802  C     0.35230   0.86626   0.80699   0.00000  Uiso   1.00
C1803  C     0.62358   0.83264   0.83366   0.00000  Uiso   1.00
C1804  C     0.37609   0.83293   0.83344   0.00000  Uiso   1.00
C1805  C     0.47515   0.69139   0.79891   0.00000  Uiso   1.00
C1806  C     0.53091   0.97594   0.85942   0.00000  Uiso   1.00
C1807  C     0.52550   0.69058   0.86640   0.00000  Uiso   1.00
C1808  C     0.47001   0.97645   0.80547   0.00000  Uiso   1.00
C1809  C     0.45685   0.71165   0.74932   0.00000  Uiso   1.00
C1810  C     0.41717   0.74113   0.75144   0.00000  Uiso   1.00
C1811  C     0.38455   0.73364   0.70836   0.00000  Uiso   1.00
C1812  C     0.57898   0.83314   0.83381   0.00000  Uiso   1.00
C1813  C     0.57537   0.95866   0.87071   0.00000  Uiso   1.00
C1814  C     0.58308   0.93280   0.92029   0.00000  Uiso   1.00
C1815  C     0.62950   0.92887   0.93610   0.00000  Uiso   1.00
C1816  C     0.54441   0.71129   0.91418   0.00000  Uiso   1.00
C1817  C     0.51612   0.70632   0.95751   0.00000  Uiso   1.00
C1818  C     0.46982   0.69847   0.94241   0.00000  Uiso   1.00
C1819  C     0.42842   0.95718   0.78446   0.00000  Uiso   1.00
C1820  C     0.43040   0.92889   0.73673   0.00000  Uiso   1.00
C1821  C     0.39451   0.93868   0.69764   0.00000  Uiso   1.00
C1822  C     0.50000   0.83345   0.74048   0.00000  Uiso   1.00
C1823  C     0.50004   0.83323   0.92619   0.00000  Uiso   1.00
C1824  C     0.49993   0.83353   0.68858   0.00000  Uiso   1.00
C1825  C     0.49993   0.83324   0.97807   0.00000  Uiso   1.00
C1826  C     0.35667   0.79845   0.85906   0.00000  Uiso   1.00
C1827  C     0.64291   0.86637   0.80731   0.00000  Uiso   1.00
C1828  C     0.64700   0.79824   0.85908   0.00000  Uiso   1.00
Cu1829 Cu    0.50000   0.88022   0.83333   0.00000  Uiso   1.00
Cu1830 Cu    0.50000   0.78645   0.83333   0.00000  Uiso   1.00
H1831  H     0.37473   0.77217   0.87937   0.00000  Uiso   1.00
H1832  H     0.48098   0.72795   0.72893   0.00000  Uiso   1.00
H1833  H     0.44937   0.68358   0.72344   0.00000  Uiso   1.00
H1834  H     0.64598   0.91109   0.90736   0.00000  Uiso   1.00
H1835  H     0.64318   0.96324   0.94228   0.00000  Uiso   1.00
H1836  H     0.63408   0.90902   0.97115   0.00000  Uiso   1.00
H1837  H     0.56754   0.95056   0.94971   0.00000  Uiso   1.00
H1838  H     0.57055   0.89796   0.91782   0.00000  Uiso   1.00
H1839  H     0.58692   0.94133   0.83879   0.00000  Uiso   1.00
H1840  H     0.59706   0.98798   0.87119   0.00000  Uiso   1.00
H1841  H     0.45652   0.72586   0.91751   0.00000  Uiso   1.00
H1842  H     0.62494   0.89217   0.78613   0.00000  Uiso   1.00
H1843  H     0.46520   0.99832   0.92403   0.00000  Uiso   1.00
H1844  H     0.45229   0.69780   0.97560   0.00000  Uiso   1.00
H1845  H     0.52726   0.67707   0.98139   0.00000  Uiso   1.00
H1846  H     0.51941   0.73711   0.98097   0.00000  Uiso   1.00
H1847  H     0.57451   0.69553   0.92724   0.00000  Uiso   1.00
H1848  H     0.55465   0.74643   0.90829   0.00000  Uiso   1.00
H1849  H     0.36433   0.94097   0.71450   0.00000  Uiso   1.00
H1850  H     0.40014   0.97072   0.67740   0.00000  Uiso   1.00
H1851  H     0.39252   0.91077   0.67015   0.00000  Uiso   1.00
H1852  H     0.45989   0.93553   0.71944   0.00000  Uiso   1.00
H1853  H     0.63212   0.77181   0.87940   0.00000  Uiso   1.00
H1854  H     0.42861   0.89218   0.74572   0.00000  Uiso   1.00
H1855  H     0.41272   0.94064   0.81412   0.00000  Uiso   1.00
H1856  H     0.40574   0.98528   0.77655   0.00000  Uiso   1.00
H1857  H     0.36628   0.89144   0.78491   0.00000  Uiso   1.00
H1858  H     0.39825   0.73822   0.67248   0.00000  Uiso   1.00
H1859  H     0.37064   0.69936   0.71077   0.00000  Uiso   1.00
H1860  H     0.35910   0.75909   0.71020   0.00000  Uiso   1.00
H1861  H     0.40218   0.73406   0.78613   0.00000  Uiso   1.00
H1862  H     0.42547   0.77756   0.74917   0.00000  Uiso   1.00
N1863  N     0.50000   0.95069   0.83333   0.00000  Uiso   1.00
N1864  N     0.50000   0.71598   0.83333   0.00000  Uiso   1.00
O1865  O     0.43988   0.87291   0.83333   0.00000  Uiso   1.00
O1866  O     0.56012   0.79375   0.83334   0.00000  Uiso   1.00
O1867  O     0.56012   0.87291   0.83334   0.00000  Uiso   1.00
O1868  O     0.43988   0.79375   0.83333   0.00000  Uiso   1.00
O1869  O     0.50000   0.87292   0.76280   0.00000  Uiso   1.00
O1870  O     0.50000   0.79375   0.90387   0.00000  Uiso   1.00
O1871  O     0.50000   0.87292   0.90387   0.00000  Uiso   1.00
O1872  O     0.50000   0.79375   0.76280   0.00000  Uiso   1.00
C1873  C     0.75426   0.83334   0.83341   0.00000  Uiso   1.00
C1874  C     0.68564   0.86626   0.80699   0.00000  Uiso   1.00
C1875  C     0.95692   0.83264   0.83366   0.00000  Uiso   1.00
C1876  C     0.70942   0.83293   0.83344   0.00000  Uiso   1.00
C1877  C     0.80848   0.69139   0.79891   0.00000  Uiso   1.00
C1878  C     0.86425   0.97594   0.85942   0.00000  Uiso   1.00
C1879  C     0.85884   0.69058   0.86640   0.00000  Uiso   1.00
C1880  C     0.80334   0.97645   0.80547   0.00000  Uiso   1.00
C1881  C     0.79018   0.71165   0.74932   0.00000  Uiso   1.00
C1882  C     0.75051   0.74113   0.75144   0.00000  Uiso   1.00
C1883  C     0.71789   0.73364   0.70836   0.00000  Uiso   1.00
C1884  C     0.91232   0.83314   0.83381   0.00000  Uiso   1.00
C1885  C     0.90870   0.95866   0.87071   0.00000  Uiso   1.00
C1886  C     0.91642   0.93280   0.92029   0.00000  Uiso   1.00
C1887  C     0.96284   0.92887   0.93610   0.00000  Uiso   1.00
C1888  C     0.87774   0.71129   0.91418   0.00000  Uiso   1.00
C1889  C     0.84945   0.70632   0.95751   0.00000  Uiso   1.00
C1890  C     0.80315   0.69847   0.94241   0.00000  Uiso   1.00
C1891  C     0.76175   0.95718   0.78446   0.00000  Uiso   1.00
C1892  C     0.76373   0.92889   0.73673   0.00000  Uiso   1.00
C1893  C     0.72784   0.93868   0.69764   0.00000  Uiso   1.00
C1894  C     0.83334   0.83345   0.74048   0.00000  Uiso   1.00
C1895  C     0.83338   0.83323   0.92619   0.00000  Uiso   1.00
C1896  C     0.83326   0.83353   0.68858   0.00000  Uiso   1.00
C1897  C     0.83327   0.83324   0.97807   0.00000  Uiso   1.00
C1898  C     0.69000   0.79845   0.85906   0.00000  Uiso   1.00
C1899  C     0.97624   0.86637   0.80731   0.00000  Uiso   1.00
C1900  C     0.98033   0.79824   0.85908   0.00000  Uiso   1.00
Cu1901 Cu    0.83333   0.88022   0.83333   0.00000  Uiso   1.00
Cu1902 Cu    0.83333   0.78645   0.83333   0.00000  Uiso   1.00
H1903  H     0.70806   0.77217   0.87937   0.00000  Uiso   1.00
H1904  H     0.81432   0.72795   0.72893   0.00000  Uiso   1.00
H1905  H     0.78270   0.68358   0.72344   0.00000  Uiso   1.00
H1906  H     0.97931   0.91109   0.90736   0.00000  Uiso   1.00
H1907  H     0.97651   0.96324   0.94228   0.00000  Uiso   1.00
H1908  H     0.96742   0.90902   0.97115   0.00000  Uiso   1.00
H1909  H     0.90087   0.95056   0.94971   0.00000  Uiso   1.00
H1910  H     0.90388   0.89796   0.91782   0.00000  Uiso   1.00
H1911  H     0.92025   0.94133   0.83879   0.00000  Uiso   1.00
H1912  H     0.93040   0.98798   0.87119   0.00000  Uiso   1.00
H1913  H     0.78985   0.72586   0.91751   0.00000  Uiso   1.00
H1914  H     0.95828   0.89217   0.78613   0.00000  Uiso   1.00
H1915  H     0.79853   0.99832   0.92403   0.00000  Uiso   1.00
H1916  H     0.78562   0.69780   0.97560   0.00000  Uiso   1.00
H1917  H     0.86059   0.67707   0.98139   0.00000  Uiso   1.00
H1918  H     0.85275   0.73711   0.98097   0.00000  Uiso   1.00
H1919  H     0.90785   0.69553   0.92724   0.00000  Uiso   1.00
H1920  H     0.88799   0.74643   0.90829   0.00000  Uiso   1.00
H1921  H     0.69766   0.94097   0.71450   0.00000  Uiso   1.00
H1922  H     0.73347   0.97072   0.67740   0.00000  Uiso   1.00
H1923  H     0.72585   0.91077   0.67015   0.00000  Uiso   1.00
H1924  H     0.79323   0.93553   0.71944   0.00000  Uiso   1.00
H1925  H     0.96545   0.77181   0.87940   0.00000  Uiso   1.00
H1926  H     0.76194   0.89218   0.74572   0.00000  Uiso   1.00
H1927  H     0.74605   0.94064   0.81412   0.00000  Uiso   1.00
H1928  H     0.73908   0.98528   0.77655   0.00000  Uiso   1.00
H1929  H     0.69961   0.89144   0.78491   0.00000  Uiso   1.00
H1930  H     0.73158   0.73822   0.67248   0.00000  Uiso   1.00
H1931  H     0.70397   0.69936   0.71077   0.00000  Uiso   1.00
H1932  H     0.69244   0.75909   0.71020   0.00000  Uiso   1.00
H1933  H     0.73551   0.73406   0.78613   0.00000  Uiso   1.00
H1934  H     0.75880   0.77756   0.74917   0.00000  Uiso   1.00
N1935  N     0.83333   0.95069   0.83333   0.00000  Uiso   1.00
N1936  N     0.83333   0.71598   0.83333   0.00000  Uiso   1.00
O1937  O     0.77321   0.87291   0.83333   0.00000  Uiso   1.00
O1938  O     0.89345   0.79375   0.83334   0.00000  Uiso   1.00
O1939  O     0.89345   0.87291   0.83334   0.00000  Uiso   1.00
O1940  O     0.77321   0.79375   0.83333   0.00000  Uiso   1.00
O1941  O     0.83333   0.87292   0.76280   0.00000  Uiso   1.00
O1942  O     0.83333   0.79375   0.90387   0.00000  Uiso   1.00
O1943  O     0.83333   0.87292   0.90387   0.00000  Uiso   1.00
O1944  O     0.83333   0.79375   0.76280   0.00000  Uiso   1.00
loop_
_geom_bond_atom_site_label_1
_geom_bond_atom_site_label_2
_geom_bond_distance
_geom_bond_site_symmetry_2
_ccdc_geom_bond_type
C1     C4      1.447   .     S
C1     O68     1.309   .     A
C1     O65     1.315   .     A
C2     C4      1.397   .     A
C2     H57     1.071   .     S
C2     C171    1.379   1_455 S
C3     C27     1.394   .     A
C3     C28     1.400   .     A
C3     C12     1.439   .     S
C4     C26     1.401   .     A
C5     C9      1.539   .     S
C5     N64     1.390   .     A
C5     C440    1.437   1_545 S
C6     N63     1.395   .     A
C6     C13     1.525   .     S
C6     C223    1.433   .     S
C7     C16     1.521   .     S
C7     N64     1.379   .     A
C7     C438    1.433   1_545 S
C8     N63     1.395   .     A
C8     C19     1.528   .     S
C8     C221    1.437   .     S
C9     C10     1.546   .     S
C9     H33     1.102   .     S
C9     H32     1.100   .     S
C10    H62     1.105   .     S
C10    H61     1.111   .     S
C10    C11     1.527   .     S
C11    H58     1.109   .     S
C11    H60     1.111   .     S
C11    H59     1.107   .     S
C12    O67     1.312   .     A
C12    O66     1.308   .     A
C13    H39     1.098   .     S
C13    H40     1.111   .     S
C13    C14     1.541   .     S
C14    H38     1.101   .     S
C14    H37     1.109   .     S
C14    C15     1.528   .     S
C15    H36     1.111   .     S
C15    H34     1.111   .     S
C15    H35     1.111   .     S
C16    H48     1.098   .     S
C16    H47     1.104   .     S
C16    C17     1.552   .     S
C17    C18     1.536   .     S
C17    H46     1.110   .     S
C17    H45     1.111   .     S
C18    H44     1.102   .     S
C18    H41     1.108   .     S
C18    H475    1.110   1_545 S
C19    H56     1.107   .     S
C19    C20     1.550   .     S
C19    H55     1.096   .     S
C20    H52     1.111   .     S
C20    C21     1.531   .     S
C20    H54     1.104   .     S
C21    H49     1.110   .     S
C21    H51     1.111   .     S
C21    H50     1.108   .     S
C22    O69     1.311   .     A
C22    O72     1.308   .     A
C22    C24     1.409   .     S
C23    O70     1.311   .     A
C23    C25     1.409   .     S
C23    O71     1.308   .     A
C24    C1321   1.190   1_554 S
C25    C672    1.190   .     S
C26    H31     1.084   .     S
C26    C172    1.387   1_455 S
C27    H42     1.083   .     S
C27    C74     1.379   .     S
C28    H53     1.084   .     S
C28    C98     1.387   .     S
Cu29   N63     2.066   .     S
Cu29   O65     1.952   .     S
Cu29   O69     1.929   .     S
Cu29   Cu30    2.750   .     S
Cu29   O67     1.950   .     S
Cu29   O71     1.925   .     S
Cu30   O68     1.950   .     S
Cu30   N64     2.066   .     S
Cu30   O66     1.952   .     S
Cu30   O72     1.925   .     S
Cu30   O70     1.929   .     S
H43    C234    1.110   .     S
C73    C76     1.447   .     S
C73    O140    1.309   .     A
C73    O137    1.315   .     A
C74    C76     1.397   .     A
C74    H129    1.071   .     S
C75    C99     1.394   .     A
C75    C100    1.400   .     A
C75    C84     1.439   .     S
C76    C98     1.401   .     A
C77    C81     1.539   .     S
C77    N136    1.390   .     A
C77    C512    1.437   1_545 S
C78    N135    1.395   .     A
C78    C85     1.525   .     S
C78    C295    1.433   .     S
C79    C88     1.521   .     S
C79    N136    1.379   .     A
C79    C510    1.433   1_545 S
C80    N135    1.395   .     A
C80    C91     1.528   .     S
C80    C293    1.437   .     S
C81    C82     1.546   .     S
C81    H105    1.102   .     S
C81    H104    1.100   .     S
C82    H134    1.105   .     S
C82    H133    1.111   .     S
C82    C83     1.527   .     S
C83    H130    1.109   .     S
C83    H132    1.111   .     S
C83    H131    1.107   .     S
C84    O139    1.312   .     A
C84    O138    1.308   .     A
C85    H111    1.098   .     S
C85    H112    1.111   .     S
C85    C86     1.541   .     S
C86    H110    1.101   .     S
C86    H109    1.109   .     S
C86    C87     1.528   .     S
C87    H108    1.111   .     S
C87    H106    1.111   .     S
C87    H107    1.111   .     S
C88    H120    1.098   .     S
C88    H119    1.104   .     S
C88    C89     1.552   .     S
C89    C90     1.536   .     S
C89    H118    1.110   .     S
C89    H117    1.111   .     S
C90    H116    1.102   .     S
C90    H113    1.108   .     S
C90    H547    1.110   1_545 S
C91    H128    1.107   .     S
C91    C92     1.550   .     S
C91    H127    1.096   .     S
C92    H124    1.111   .     S
C92    C93     1.531   .     S
C92    H126    1.104   .     S
C93    H121    1.110   .     S
C93    H123    1.111   .     S
C93    H122    1.108   .     S
C94    O141    1.311   .     A
C94    O144    1.308   .     A
C94    C96     1.409   .     S
C95    O142    1.311   .     A
C95    C97     1.409   .     S
C95    O143    1.308   .     A
C96    C1393   1.190   1_554 S
C97    C744    1.190   .     S
C98    H103    1.084   .     S
C99    H114    1.083   .     S
C99    C146    1.379   .     S
C100   H125    1.084   .     S
C100   C170    1.387   .     S
Cu101  N135    2.066   .     S
Cu101  O137    1.952   .     S
Cu101  O141    1.929   .     S
Cu101  Cu102   2.750   .     S
Cu101  O139    1.950   .     S
Cu101  O143    1.925   .     S
Cu102  O140    1.950   .     S
Cu102  N136    2.066   .     S
Cu102  O138    1.952   .     S
Cu102  O144    1.925   .     S
Cu102  O142    1.929   .     S
H115   C306    1.110   .     S
C145   C148    1.447   .     S
C145   O212    1.309   .     A
C145   O209    1.315   .     A
C146   C148    1.397   .     A
C146   H201    1.071   .     S
C147   C171    1.394   .     A
C147   C172    1.400   .     A
C147   C156    1.439   .     S
C148   C170    1.401   .     A
C149   C153    1.539   .     S
C149   N208    1.390   .     A
C149   C584    1.437   1_545 S
C150   N207    1.395   .     A
C150   C157    1.525   .     S
C150   C367    1.433   .     S
C151   C160    1.521   .     S
C151   N208    1.379   .     A
C151   C582    1.433   1_545 S
C152   N207    1.395   .     A
C152   C163    1.528   .     S
C152   C365    1.437   .     S
C153   C154    1.546   .     S
C153   H177    1.102   .     S
C153   H176    1.100   .     S
C154   H206    1.105   .     S
C154   H205    1.111   .     S
C154   C155    1.527   .     S
C155   H202    1.109   .     S
C155   H204    1.111   .     S
C155   H203    1.107   .     S
C156   O211    1.312   .     A
C156   O210    1.308   .     A
C157   H183    1.098   .     S
C157   H184    1.111   .     S
C157   C158    1.541   .     S
C158   H182    1.101   .     S
C158   H181    1.109   .     S
C158   C159    1.528   .     S
C159   H180    1.111   .     S
C159   H178    1.111   .     S
C159   H179    1.111   .     S
C160   H192    1.098   .     S
C160   H191    1.104   .     S
C160   C161    1.552   .     S
C161   C162    1.536   .     S
C161   H190    1.110   .     S
C161   H189    1.111   .     S
C162   H188    1.102   .     S
C162   H185    1.108   .     S
C162   H619    1.110   1_545 S
C163   H200    1.107   .     S
C163   C164    1.550   .     S
C163   H199    1.096   .     S
C164   H196    1.111   .     S
C164   C165    1.531   .     S
C164   H198    1.104   .     S
C165   H193    1.110   .     S
C165   H195    1.111   .     S
C165   H194    1.108   .     S
C166   O213    1.311   .     A
C166   O216    1.308   .     A
C166   C168    1.409   .     S
C167   O214    1.311   .     A
C167   C169    1.409   .     S
C167   O215    1.308   .     A
C168   C1465   1.190   1_554 S
C169   C816    1.190   .     S
C170   H175    1.084   .     S
C171   H186    1.083   .     S
C171   C2      1.379   1_655 S
C172   H197    1.084   .     S
C172   C26     1.387   1_655 S
Cu173  N207    2.066   .     S
Cu173  O209    1.952   .     S
Cu173  O213    1.929   .     S
Cu173  Cu174   2.750   .     S
Cu173  O211    1.950   .     S
Cu173  O215    1.925   .     S
Cu174  O212    1.950   .     S
Cu174  N208    2.066   .     S
Cu174  O210    1.952   .     S
Cu174  O216    1.925   .     S
Cu174  O214    1.929   .     S
H187   C378    1.110   .     S
C217   C220    1.447   .     S
C217   O284    1.309   .     A
C217   O281    1.315   .     A
C218   C220    1.397   .     A
C218   H273    1.071   .     S
C218   C387    1.379   1_455 S
C219   C243    1.394   .     A
C219   C244    1.400   .     A
C219   C228    1.439   .     S
C220   C242    1.401   .     A
C221   C225    1.539   .     S
C221   N280    1.390   .     A
C222   N279    1.395   .     A
C222   C229    1.525   .     S
C222   C439    1.433   .     S
C223   C232    1.521   .     S
C223   N280    1.379   .     A
C224   N279    1.395   .     A
C224   C235    1.528   .     S
C224   C437    1.437   .     S
C225   C226    1.546   .     S
C225   H249    1.102   .     S
C225   H248    1.100   .     S
C226   H278    1.105   .     S
C226   H277    1.111   .     S
C226   C227    1.527   .     S
C227   H274    1.109   .     S
C227   H276    1.111   .     S
C227   H275    1.107   .     S
C228   O283    1.312   .     A
C228   O282    1.308   .     A
C229   H255    1.098   .     S
C229   H256    1.111   .     S
C229   C230    1.541   .     S
C230   H254    1.101   .     S
C230   H253    1.109   .     S
C230   C231    1.528   .     S
C231   H252    1.111   .     S
C231   H250    1.111   .     S
C231   H251    1.111   .     S
C232   H264    1.098   .     S
C232   H263    1.104   .     S
C232   C233    1.552   .     S
C233   C234    1.536   .     S
C233   H262    1.110   .     S
C233   H261    1.111   .     S
C234   H260    1.102   .     S
C234   H257    1.108   .     S
C235   H272    1.107   .     S
C235   C236    1.550   .     S
C235   H271    1.096   .     S
C236   H268    1.111   .     S
C236   C237    1.531   .     S
C236   H270    1.104   .     S
C237   H265    1.110   .     S
C237   H267    1.111   .     S
C237   H266    1.108   .     S
C238   O285    1.311   .     A
C238   O288    1.308   .     A
C238   C240    1.409   .     S
C239   O286    1.311   .     A
C239   C241    1.409   .     S
C239   O287    1.308   .     A
C240   C1537   1.190   1_554 S
C241   C888    1.190   .     S
C242   H247    1.084   .     S
C242   C388    1.387   1_455 S
C243   H258    1.083   .     S
C243   C290    1.379   .     S
C244   H269    1.084   .     S
C244   C314    1.387   .     S
Cu245  N279    2.066   .     S
Cu245  O281    1.952   .     S
Cu245  O285    1.929   .     S
Cu245  Cu246   2.750   .     S
Cu245  O283    1.950   .     S
Cu245  O287    1.925   .     S
Cu246  O284    1.950   .     S
Cu246  N280    2.066   .     S
Cu246  O282    1.952   .     S
Cu246  O288    1.925   .     S
Cu246  O286    1.929   .     S
H259   C450    1.110   .     S
C289   C292    1.447   .     S
C289   O356    1.309   .     A
C289   O353    1.315   .     A
C290   C292    1.397   .     A
C290   H345    1.071   .     S
C291   C315    1.394   .     A
C291   C316    1.400   .     A
C291   C300    1.439   .     S
C292   C314    1.401   .     A
C293   C297    1.539   .     S
C293   N352    1.390   .     A
C294   N351    1.395   .     A
C294   C301    1.525   .     S
C294   C511    1.433   .     S
C295   C304    1.521   .     S
C295   N352    1.379   .     A
C296   N351    1.395   .     A
C296   C307    1.528   .     S
C296   C509    1.437   .     S
C297   C298    1.546   .     S
C297   H321    1.102   .     S
C297   H320    1.100   .     S
C298   H350    1.105   .     S
C298   H349    1.111   .     S
C298   C299    1.527   .     S
C299   H346    1.109   .     S
C299   H348    1.111   .     S
C299   H347    1.107   .     S
C300   O355    1.312   .     A
C300   O354    1.308   .     A
C301   H327    1.098   .     S
C301   H328    1.111   .     S
C301   C302    1.541   .     S
C302   H326    1.101   .     S
C302   H325    1.109   .     S
C302   C303    1.528   .     S
C303   H324    1.111   .     S
C303   H322    1.111   .     S
C303   H323    1.111   .     S
C304   H336    1.098   .     S
C304   H335    1.104   .     S
C304   C305    1.552   .     S
C305   C306    1.536   .     S
C305   H334    1.110   .     S
C305   H333    1.111   .     S
C306   H332    1.102   .     S
C306   H329    1.108   .     S
C307   H344    1.107   .     S
C307   C308    1.550   .     S
C307   H343    1.096   .     S
C308   H340    1.111   .     S
C308   C309    1.531   .     S
C308   H342    1.104   .     S
C309   H337    1.110   .     S
C309   H339    1.111   .     S
C309   H338    1.108   .     S
C310   O357    1.311   .     A
C310   O360    1.308   .     A
C310   C312    1.409   .     S
C311   O358    1.311   .     A
C311   C313    1.409   .     S
C311   O359    1.308   .     A
C312   C1609   1.190   1_554 S
C313   C960    1.190   .     S
C314   H319    1.084   .     S
C315   H330    1.083   .     S
C315   C362    1.379   .     S
C316   H341    1.084   .     S
C316   C386    1.387   .     S
Cu317  N351    2.066   .     S
Cu317  O353    1.952   .     S
Cu317  O357    1.929   .     S
Cu317  Cu318   2.750   .     S
Cu317  O355    1.950   .     S
Cu317  O359    1.925   .     S
Cu318  O356    1.950   .     S
Cu318  N352    2.066   .     S
Cu318  O354    1.952   .     S
Cu318  O360    1.925   .     S
Cu318  O358    1.929   .     S
H331   C522    1.110   .     S
C361   C364    1.447   .     S
C361   O428    1.309   .     A
C361   O425    1.315   .     A
C362   C364    1.397   .     A
C362   H417    1.071   .     S
C363   C387    1.394   .     A
C363   C388    1.400   .     A
C363   C372    1.439   .     S
C364   C386    1.401   .     A
C365   C369    1.539   .     S
C365   N424    1.390   .     A
C366   N423    1.395   .     A
C366   C373    1.525   .     S
C366   C583    1.433   .     S
C367   C376    1.521   .     S
C367   N424    1.379   .     A
C368   N423    1.395   .     A
C368   C379    1.528   .     S
C368   C581    1.437   .     S
C369   C370    1.546   .     S
C369   H393    1.102   .     S
C369   H392    1.100   .     S
C370   H422    1.105   .     S
C370   H421    1.111   .     S
C370   C371    1.527   .     S
C371   H418    1.109   .     S
C371   H420    1.111   .     S
C371   H419    1.107   .     S
C372   O427    1.312   .     A
C372   O426    1.308   .     A
C373   H399    1.098   .     S
C373   H400    1.111   .     S
C373   C374    1.541   .     S
C374   H398    1.101   .     S
C374   H397    1.109   .     S
C374   C375    1.528   .     S
C375   H396    1.111   .     S
C375   H394    1.111   .     S
C375   H395    1.111   .     S
C376   H408    1.098   .     S
C376   H407    1.104   .     S
C376   C377    1.552   .     S
C377   C378    1.536   .     S
C377   H406    1.110   .     S
C377   H405    1.111   .     S
C378   H404    1.102   .     S
C378   H401    1.108   .     S
C379   H416    1.107   .     S
C379   C380    1.550   .     S
C379   H415    1.096   .     S
C380   H412    1.111   .     S
C380   C381    1.531   .     S
C380   H414    1.104   .     S
C381   H409    1.110   .     S
C381   H411    1.111   .     S
C381   H410    1.108   .     S
C382   O429    1.311   .     A
C382   O432    1.308   .     A
C382   C384    1.409   .     S
C383   O430    1.311   .     A
C383   C385    1.409   .     S
C383   O431    1.308   .     A
C384   C1681   1.190   1_554 S
C385   C1032   1.190   .     S
C386   H391    1.084   .     S
C387   H402    1.083   .     S
C387   C218    1.379   1_655 S
C388   H413    1.084   .     S
C388   C242    1.387   1_655 S
Cu389  N423    2.066   .     S
Cu389  O425    1.952   .     S
Cu389  O429    1.929   .     S
Cu389  Cu390   2.750   .     S
Cu389  O427    1.950   .     S
Cu389  O431    1.925   .     S
Cu390  O428    1.950   .     S
Cu390  N424    2.066   .     S
Cu390  O426    1.952   .     S
Cu390  O432    1.925   .     S
Cu390  O430    1.929   .     S
H403   C594    1.110   .     S
C433   C436    1.447   .     S
C433   O500    1.309   .     A
C433   O497    1.315   .     A
C434   C436    1.397   .     A
C434   H489    1.071   .     S
C434   C603    1.379   1_455 S
C435   C459    1.394   .     A
C435   C460    1.400   .     A
C435   C444    1.439   .     S
C436   C458    1.401   .     A
C437   C441    1.539   .     S
C437   N496    1.390   .     A
C438   N495    1.395   .     A
C438   C445    1.525   .     S
C438   C7      1.433   1_565 S
C439   C448    1.521   .     S
C439   N496    1.379   .     A
C440   N495    1.395   .     A
C440   C451    1.528   .     S
C440   C5      1.437   1_565 S
C441   C442    1.546   .     S
C441   H465    1.102   .     S
C441   H464    1.100   .     S
C442   H494    1.105   .     S
C442   H493    1.111   .     S
C442   C443    1.527   .     S
C443   H490    1.109   .     S
C443   H492    1.111   .     S
C443   H491    1.107   .     S
C444   O499    1.312   .     A
C444   O498    1.308   .     A
C445   H471    1.098   .     S
C445   H472    1.111   .     S
C445   C446    1.541   .     S
C446   H470    1.101   .     S
C446   H469    1.109   .     S
C446   C447    1.528   .     S
C447   H468    1.111   .     S
C447   H466    1.111   .     S
C447   H467    1.111   .     S
C448   H480    1.098   .     S
C448   H479    1.104   .     S
C448   C449    1.552   .     S
C449   C450    1.536   .     S
C449   H478    1.110   .     S
C449   H477    1.111   .     S
C450   H476    1.102   .     S
C450   H473    1.108   .     S
C451   H488    1.107   .     S
C451   C452    1.550   .     S
C451   H487    1.096   .     S
C452   H484    1.111   .     S
C452   C453    1.531   .     S
C452   H486    1.104   .     S
C453   H481    1.110   .     S
C453   H483    1.111   .     S
C453   H482    1.108   .     S
C454   O501    1.311   .     A
C454   O504    1.308   .     A
C454   C456    1.409   .     S
C455   O502    1.311   .     A
C455   C457    1.409   .     S
C455   O503    1.308   .     A
C456   C1753   1.190   1_554 S
C457   C1104   1.190   .     S
C458   H463    1.084   .     S
C458   C604    1.387   1_455 S
C459   H474    1.083   .     S
C459   C506    1.379   .     S
C460   H485    1.084   .     S
C460   C530    1.387   .     S
Cu461  N495    2.066   .     S
Cu461  O497    1.952   .     S
Cu461  O501    1.929   .     S
Cu461  Cu462   2.750   .     S
Cu461  O499    1.950   .     S
Cu461  O503    1.925   .     S
Cu462  O500    1.950   .     S
Cu462  N496    2.066   .     S
Cu462  O498    1.952   .     S
Cu462  O504    1.925   .     S
Cu462  O502    1.929   .     S
H475   C18     1.110   1_565 S
C505   C508    1.447   .     S
C505   O572    1.309   .     A
C505   O569    1.315   .     A
C506   C508    1.397   .     A
C506   H561    1.071   .     S
C507   C531    1.394   .     A
C507   C532    1.400   .     A
C507   C516    1.439   .     S
C508   C530    1.401   .     A
C509   C513    1.539   .     S
C509   N568    1.390   .     A
C510   N567    1.395   .     A
C510   C517    1.525   .     S
C510   C79     1.433   1_565 S
C511   C520    1.521   .     S
C511   N568    1.379   .     A
C512   N567    1.395   .     A
C512   C523    1.528   .     S
C512   C77     1.437   1_565 S
C513   C514    1.546   .     S
C513   H537    1.102   .     S
C513   H536    1.100   .     S
C514   H566    1.105   .     S
C514   H565    1.111   .     S
C514   C515    1.527   .     S
C515   H562    1.109   .     S
C515   H564    1.111   .     S
C515   H563    1.107   .     S
C516   O571    1.312   .     A
C516   O570    1.308   .     A
C517   H543    1.098   .     S
C517   H544    1.111   .     S
C517   C518    1.541   .     S
C518   H542    1.101   .     S
C518   H541    1.109   .     S
C518   C519    1.528   .     S
C519   H540    1.111   .     S
C519   H538    1.111   .     S
C519   H539    1.111   .     S
C520   H552    1.098   .     S
C520   H551    1.104   .     S
C520   C521    1.552   .     S
C521   C522    1.536   .     S
C521   H550    1.110   .     S
C521   H549    1.111   .     S
C522   H548    1.102   .     S
C522   H545    1.108   .     S
C523   H560    1.107   .     S
C523   C524    1.550   .     S
C523   H559    1.096   .     S
C524   H556    1.111   .     S
C524   C525    1.531   .     S
C524   H558    1.104   .     S
C525   H553    1.110   .     S
C525   H555    1.111   .     S
C525   H554    1.108   .     S
C526   O573    1.311   .     A
C526   O576    1.308   .     A
C526   C528    1.409   .     S
C527   O574    1.311   .     A
C527   C529    1.409   .     S
C527   O575    1.308   .     A
C528   C1825   1.190   1_554 S
C529   C1176   1.190   .     S
C530   H535    1.084   .     S
C531   H546    1.083   .     S
C531   C578    1.379   .     S
C532   H557    1.084   .     S
C532   C602    1.387   .     S
Cu533  N567    2.066   .     S
Cu533  O569    1.952   .     S
Cu533  O573    1.929   .     S
Cu533  Cu534   2.750   .     S
Cu533  O571    1.950   .     S
Cu533  O575    1.925   .     S
Cu534  O572    1.950   .     S
Cu534  N568    2.066   .     S
Cu534  O570    1.952   .     S
Cu534  O576    1.925   .     S
Cu534  O574    1.929   .     S
H547   C90     1.110   1_565 S
C577   C580    1.447   .     S
C577   O644    1.309   .     A
C577   O641    1.315   .     A
C578   C580    1.397   .     A
C578   H633    1.071   .     S
C579   C603    1.394   .     A
C579   C604    1.400   .     A
C579   C588    1.439   .     S
C580   C602    1.401   .     A
C581   C585    1.539   .     S
C581   N640    1.390   .     A
C582   N639    1.395   .     A
C582   C589    1.525   .     S
C582   C151    1.433   1_565 S
C583   C592    1.521   .     S
C583   N640    1.379   .     A
C584   N639    1.395   .     A
C584   C595    1.528   .     S
C584   C149    1.437   1_565 S
C585   C586    1.546   .     S
C585   H609    1.102   .     S
C585   H608    1.100   .     S
C586   H638    1.105   .     S
C586   H637    1.111   .     S
C586   C587    1.527   .     S
C587   H634    1.109   .     S
C587   H636    1.111   .     S
C587   H635    1.107   .     S
C588   O643    1.312   .     A
C588   O642    1.308   .     A
C589   H615    1.098   .     S
C589   H616    1.111   .     S
C589   C590    1.541   .     S
C590   H614    1.101   .     S
C590   H613    1.109   .     S
C590   C591    1.528   .     S
C591   H612    1.111   .     S
C591   H610    1.111   .     S
C591   H611    1.111   .     S
C592   H624    1.098   .     S
C592   H623    1.104   .     S
C592   C593    1.552   .     S
C593   C594    1.536   .     S
C593   H622    1.110   .     S
C593   H621    1.111   .     S
C594   H620    1.102   .     S
C594   H617    1.108   .     S
C595   H632    1.107   .     S
C595   C596    1.550   .     S
C595   H631    1.096   .     S
C596   H628    1.111   .     S
C596   C597    1.531   .     S
C596   H630    1.104   .     S
C597   H625    1.110   .     S
C597   H627    1.111   .     S
C597   H626    1.108   .     S
C598   O645    1.311   .     A
C598   O648    1.308   .     A
C598   C600    1.409   .     S
C599   O646    1.311   .     A
C599   C601    1.409   .     S
C599   O647    1.308   .     A
C600   C1897   1.190   1_554 S
C601   C1248   1.190   .     S
C602   H607    1.084   .     S
C603   H618    1.083   .     S
C603   C434    1.379   1_655 S
C604   H629    1.084   .     S
C604   C458    1.387   1_655 S
Cu605  N639    2.066   .     S
Cu605  O641    1.952   .     S
Cu605  O645    1.929   .     S
Cu605  Cu606   2.750   .     S
Cu605  O643    1.950   .     S
Cu605  O647    1.925   .     S
Cu606  O644    1.950   .     S
Cu606  N640    2.066   .     S
Cu606  O642    1.952   .     S
Cu606  O648    1.925   .     S
Cu606  O646    1.929   .     S
H619   C162    1.110   1_565 S
C649   C652    1.447   .     S
C649   O716    1.309   .     A
C649   O713    1.315   .     A
C650   C652    1.397   .     A
C650   H705    1.071   .     S
C650   C819    1.379   1_455 S
C651   C675    1.394   .     A
C651   C676    1.400   .     A
C651   C660    1.439   .     S
C652   C674    1.401   .     A
C653   C657    1.539   .     S
C653   N712    1.390   .     A
C653   C1088   1.437   1_545 S
C654   N711    1.395   .     A
C654   C661    1.525   .     S
C654   C871    1.433   .     S
C655   C664    1.521   .     S
C655   N712    1.379   .     A
C655   C1086   1.433   1_545 S
C656   N711    1.395   .     A
C656   C667    1.528   .     S
C656   C869    1.437   .     S
C657   C658    1.546   .     S
C657   H681    1.102   .     S
C657   H680    1.100   .     S
C658   H710    1.105   .     S
C658   H709    1.111   .     S
C658   C659    1.527   .     S
C659   H706    1.109   .     S
C659   H708    1.111   .     S
C659   H707    1.107   .     S
C660   O715    1.312   .     A
C660   O714    1.308   .     A
C661   H687    1.098   .     S
C661   H688    1.111   .     S
C661   C662    1.541   .     S
C662   H686    1.101   .     S
C662   H685    1.109   .     S
C662   C663    1.528   .     S
C663   H684    1.111   .     S
C663   H682    1.111   .     S
C663   H683    1.111   .     S
C664   H696    1.098   .     S
C664   H695    1.104   .     S
C664   C665    1.552   .     S
C665   C666    1.536   .     S
C665   H694    1.110   .     S
C665   H693    1.111   .     S
C666   H692    1.102   .     S
C666   H689    1.108   .     S
C666   H1123   1.110   1_545 S
C667   H704    1.107   .     S
C667   C668    1.550   .     S
C667   H703    1.096   .     S
C668   H700    1.111   .     S
C668   C669    1.531   .     S
C668   H702    1.104   .     S
C669   H697    1.110   .     S
C669   H699    1.111   .     S
C669   H698    1.108   .     S
C670   O717    1.311   .     A
C670   O720    1.308   .     A
C670   C672    1.409   .     S
C671   O718    1.311   .     A
C671   C673    1.409   .     S
C671   O719    1.308   .     A
C673   C1320   1.190   .     S
C674   H679    1.084   .     S
C674   C820    1.387   1_455 S
C675   H690    1.083   .     S
C675   C722    1.379   .     S
C676   H701    1.084   .     S
C676   C746    1.387   .     S
Cu677  N711    2.066   .     S
Cu677  O713    1.952   .     S
Cu677  O717    1.929   .     S
Cu677  Cu678   2.750   .     S
Cu677  O715    1.950   .     S
Cu677  O719    1.925   .     S
Cu678  O716    1.950   .     S
Cu678  N712    2.066   .     S
Cu678  O714    1.952   .     S
Cu678  O720    1.925   .     S
Cu678  O718    1.929   .     S
H691   C882    1.110   .     S
C721   C724    1.447   .     S
C721   O788    1.309   .     A
C721   O785    1.315   .     A
C722   C724    1.397   .     A
C722   H777    1.071   .     S
C723   C747    1.394   .     A
C723   C748    1.400   .     A
C723   C732    1.439   .     S
C724   C746    1.401   .     A
C725   C729    1.539   .     S
C725   N784    1.390   .     A
C725   C1160   1.437   1_545 S
C726   N783    1.395   .     A
C726   C733    1.525   .     S
C726   C943    1.433   .     S
C727   C736    1.521   .     S
C727   N784    1.379   .     A
C727   C1158   1.433   1_545 S
C728   N783    1.395   .     A
C728   C739    1.528   .     S
C728   C941    1.437   .     S
C729   C730    1.546   .     S
C729   H753    1.102   .     S
C729   H752    1.100   .     S
C730   H782    1.105   .     S
C730   H781    1.111   .     S
C730   C731    1.527   .     S
C731   H778    1.109   .     S
C731   H780    1.111   .     S
C731   H779    1.107   .     S
C732   O787    1.312   .     A
C732   O786    1.308   .     A
C733   H759    1.098   .     S
C733   H760    1.111   .     S
C733   C734    1.541   .     S
C734   H758    1.101   .     S
C734   H757    1.109   .     S
C734   C735    1.528   .     S
C735   H756    1.111   .     S
C735   H754    1.111   .     S
C735   H755    1.111   .     S
C736   H768    1.098   .     S
C736   H767    1.104   .     S
C736   C737    1.552   .     S
C737   C738    1.536   .     S
C737   H766    1.110   .     S
C737   H765    1.111   .     S
C738   H764    1.102   .     S
C738   H761    1.108   .     S
C738   H1195   1.110   1_545 S
C739   H776    1.107   .     S
C739   C740    1.550   .     S
C739   H775    1.096   .     S
C740   H772    1.111   .     S
C740   C741    1.531   .     S
C740   H774    1.104   .     S
C741   H769    1.110   .     S
C741   H771    1.111   .     S
C741   H770    1.108   .     S
C742   O789    1.311   .     A
C742   O792    1.308   .     A
C742   C744    1.409   .     S
C743   O790    1.311   .     A
C743   C745    1.409   .     S
C743   O791    1.308   .     A
C745   C1392   1.190   .     S
C746   H751    1.084   .     S
C747   H762    1.083   .     S
C747   C794    1.379   .     S
C748   H773    1.084   .     S
C748   C818    1.387   .     S
Cu749  N783    2.066   .     S
Cu749  O785    1.952   .     S
Cu749  O789    1.929   .     S
Cu749  Cu750   2.750   .     S
Cu749  O787    1.950   .     S
Cu749  O791    1.925   .     S
Cu750  O788    1.950   .     S
Cu750  N784    2.066   .     S
Cu750  O786    1.952   .     S
Cu750  O792    1.925   .     S
Cu750  O790    1.929   .     S
H763   C954    1.110   .     S
C793   C796    1.447   .     S
C793   O860    1.309   .     A
C793   O857    1.315   .     A
C794   C796    1.397   .     A
C794   H849    1.071   .     S
C795   C819    1.394   .     A
C795   C820    1.400   .     A
C795   C804    1.439   .     S
C796   C818    1.401   .     A
C797   C801    1.539   .     S
C797   N856    1.390   .     A
C797   C1232   1.437   1_545 S
C798   N855    1.395   .     A
C798   C805    1.525   .     S
C798   C1015   1.433   .     S
C799   C808    1.521   .     S
C799   N856    1.379   .     A
C799   C1230   1.433   1_545 S
C800   N855    1.395   .     A
C800   C811    1.528   .     S
C800   C1013   1.437   .     S
C801   C802    1.546   .     S
C801   H825    1.102   .     S
C801   H824    1.100   .     S
C802   H854    1.105   .     S
C802   H853    1.111   .     S
C802   C803    1.527   .     S
C803   H850    1.109   .     S
C803   H852    1.111   .     S
C803   H851    1.107   .     S
C804   O859    1.312   .     A
C804   O858    1.308   .     A
C805   H831    1.098   .     S
C805   H832    1.111   .     S
C805   C806    1.541   .     S
C806   H830    1.101   .     S
C806   H829    1.109   .     S
C806   C807    1.528   .     S
C807   H828    1.111   .     S
C807   H826    1.111   .     S
C807   H827    1.111   .     S
C808   H840    1.098   .     S
C808   H839    1.104   .     S
C808   C809    1.552   .     S
C809   C810    1.536   .     S
C809   H838    1.110   .     S
C809   H837    1.111   .     S
C810   H836    1.102   .     S
C810   H833    1.108   .     S
C810   H1267   1.110   1_545 S
C811   H848    1.107   .     S
C811   C812    1.550   .     S
C811   H847    1.096   .     S
C812   H844    1.111   .     S
C812   C813    1.531   .     S
C812   H846    1.104   .     S
C813   H841    1.110   .     S
C813   H843    1.111   .     S
C813   H842    1.108   .     S
C814   O861    1.311   .     A
C814   O864    1.308   .     A
C814   C816    1.409   .     S
C815   O862    1.311   .     A
C815   C817    1.409   .     S
C815   O863    1.308   .     A
C817   C1464   1.190   .     S
C818   H823    1.084   .     S
C819   H834    1.083   .     S
C819   C650    1.379   1_655 S
C820   H845    1.084   .     S
C820   C674    1.387   1_655 S
Cu821  N855    2.066   .     S
Cu821  O857    1.952   .     S
Cu821  O861    1.929   .     S
Cu821  Cu822   2.750   .     S
Cu821  O859    1.950   .     S
Cu821  O863    1.925   .     S
Cu822  O860    1.950   .     S
Cu822  N856    2.066   .     S
Cu822  O858    1.952   .     S
Cu822  O864    1.925   .     S
Cu822  O862    1.929   .     S
H835   C1026   1.110   .     S
C865   C868    1.447   .     S
C865   O932    1.309   .     A
C865   O929    1.315   .     A
C866   C868    1.397   .     A
C866   H921    1.071   .     S
C866   C1035   1.379   1_455 S
C867   C891    1.394   .     A
C867   C892    1.400   .     A
C867   C876    1.439   .     S
C868   C890    1.401   .     A
C869   C873    1.539   .     S
C869   N928    1.390   .     A
C870   N927    1.395   .     A
C870   C877    1.525   .     S
C870   C1087   1.433   .     S
C871   C880    1.521   .     S
C871   N928    1.379   .     A
C872   N927    1.395   .     A
C872   C883    1.528   .     S
C872   C1085   1.437   .     S
C873   C874    1.546   .     S
C873   H897    1.102   .     S
C873   H896    1.100   .     S
C874   H926    1.105   .     S
C874   H925    1.111   .     S
C874   C875    1.527   .     S
C875   H922    1.109   .     S
C875   H924    1.111   .     S
C875   H923    1.107   .     S
C876   O931    1.312   .     A
C876   O930    1.308   .     A
C877   H903    1.098   .     S
C877   H904    1.111   .     S
C877   C878    1.541   .     S
C878   H902    1.101   .     S
C878   H901    1.109   .     S
C878   C879    1.528   .     S
C879   H900    1.111   .     S
C879   H898    1.111   .     S
C879   H899    1.111   .     S
C880   H912    1.098   .     S
C880   H911    1.104   .     S
C880   C881    1.552   .     S
C881   C882    1.536   .     S
C881   H910    1.110   .     S
C881   H909    1.111   .     S
C882   H908    1.102   .     S
C882   H905    1.108   .     S
C883   H920    1.107   .     S
C883   C884    1.550   .     S
C883   H919    1.096   .     S
C884   H916    1.111   .     S
C884   C885    1.531   .     S
C884   H918    1.104   .     S
C885   H913    1.110   .     S
C885   H915    1.111   .     S
C885   H914    1.108   .     S
C886   O933    1.311   .     A
C886   O936    1.308   .     A
C886   C888    1.409   .     S
C887   O934    1.311   .     A
C887   C889    1.409   .     S
C887   O935    1.308   .     A
C889   C1536   1.190   .     S
C890   H895    1.084   .     S
C890   C1036   1.387   1_455 S
C891   H906    1.083   .     S
C891   C938    1.379   .     S
C892   H917    1.084   .     S
C892   C962    1.387   .     S
Cu893  N927    2.066   .     S
Cu893  O929    1.952   .     S
Cu893  O933    1.929   .     S
Cu893  Cu894   2.750   .     S
Cu893  O931    1.950   .     S
Cu893  O935    1.925   .     S
Cu894  O932    1.950   .     S
Cu894  N928    2.066   .     S
Cu894  O930    1.952   .     S
Cu894  O936    1.925   .     S
Cu894  O934    1.929   .     S
H907   C1098   1.110   .     S
C937   C940    1.447   .     S
C937   O1004   1.309   .     A
C937   O1001   1.315   .     A
C938   C940    1.397   .     A
C938   H993    1.071   .     S
C939   C963    1.394   .     A
C939   C964    1.400   .     A
C939   C948    1.439   .     S
C940   C962    1.401   .     A
C941   C945    1.539   .     S
C941   N1000   1.390   .     A
C942   N999    1.395   .     A
C942   C949    1.525   .     S
C942   C1159   1.433   .     S
C943   C952    1.521   .     S
C943   N1000   1.379   .     A
C944   N999    1.395   .     A
C944   C955    1.528   .     S
C944   C1157   1.437   .     S
C945   C946    1.546   .     S
C945   H969    1.102   .     S
C945   H968    1.100   .     S
C946   H998    1.105   .     S
C946   H997    1.111   .     S
C946   C947    1.527   .     S
C947   H994    1.109   .     S
C947   H996    1.111   .     S
C947   H995    1.107   .     S
C948   O1003   1.312   .     A
C948   O1002   1.308   .     A
C949   H975    1.098   .     S
C949   H976    1.111   .     S
C949   C950    1.541   .     S
C950   H974    1.101   .     S
C950   H973    1.109   .     S
C950   C951    1.528   .     S
C951   H972    1.111   .     S
C951   H970    1.111   .     S
C951   H971    1.111   .     S
C952   H984    1.098   .     S
C952   H983    1.104   .     S
C952   C953    1.552   .     S
C953   C954    1.536   .     S
C953   H982    1.110   .     S
C953   H981    1.111   .     S
C954   H980    1.102   .     S
C954   H977    1.108   .     S
C955   H992    1.107   .     S
C955   C956    1.550   .     S
C955   H991    1.096   .     S
C956   H988    1.111   .     S
C956   C957    1.531   .     S
C956   H990    1.104   .     S
C957   H985    1.110   .     S
C957   H987    1.111   .     S
C957   H986    1.108   .     S
C958   O1005   1.311   .     A
C958   O1008   1.308   .     A
C958   C960    1.409   .     S
C959   O1006   1.311   .     A
C959   C961    1.409   .     S
C959   O1007   1.308   .     A
C961   C1608   1.190   .     S
C962   H967    1.084   .     S
C963   H978    1.083   .     S
C963   C1010   1.379   .     S
C964   H989    1.084   .     S
C964   C1034   1.387   .     S
Cu965  N999    2.066   .     S
Cu965  O1001   1.952   .     S
Cu965  O1005   1.929   .     S
Cu965  Cu966   2.750   .     S
Cu965  O1003   1.950   .     S
Cu965  O1007   1.925   .     S
Cu966  O1004   1.950   .     S
Cu966  N1000   2.066   .     S
Cu966  O1002   1.952   .     S
Cu966  O1008   1.925   .     S
Cu966  O1006   1.929   .     S
H979   C1170   1.110   .     S
C1009  C1012   1.447   .     S
C1009  O1076   1.309   .     A
C1009  O1073   1.315   .     A
C1010  C1012   1.397   .     A
C1010  H1065   1.071   .     S
C1011  C1035   1.394   .     A
C1011  C1036   1.400   .     A
C1011  C1020   1.439   .     S
C1012  C1034   1.401   .     A
C1013  C1017   1.539   .     S
C1013  N1072   1.390   .     A
C1014  N1071   1.395   .     A
C1014  C1021   1.525   .     S
C1014  C1231   1.433   .     S
C1015  C1024   1.521   .     S
C1015  N1072   1.379   .     A
C1016  N1071   1.395   .     A
C1016  C1027   1.528   .     S
C1016  C1229   1.437   .     S
C1017  C1018   1.546   .     S
C1017  H1041   1.102   .     S
C1017  H1040   1.100   .     S
C1018  H1070   1.105   .     S
C1018  H1069   1.111   .     S
C1018  C1019   1.527   .     S
C1019  H1066   1.109   .     S
C1019  H1068   1.111   .     S
C1019  H1067   1.107   .     S
C1020  O1075   1.312   .     A
C1020  O1074   1.308   .     A
C1021  H1047   1.098   .     S
C1021  H1048   1.111   .     S
C1021  C1022   1.541   .     S
C1022  H1046   1.101   .     S
C1022  H1045   1.109   .     S
C1022  C1023   1.528   .     S
C1023  H1044   1.111   .     S
C1023  H1042   1.111   .     S
C1023  H1043   1.111   .     S
C1024  H1056   1.098   .     S
C1024  H1055   1.104   .     S
C1024  C1025   1.552   .     S
C1025  C1026   1.536   .     S
C1025  H1054   1.110   .     S
C1025  H1053   1.111   .     S
C1026  H1052   1.102   .     S
C1026  H1049   1.108   .     S
C1027  H1064   1.107   .     S
C1027  C1028   1.550   .     S
C1027  H1063   1.096   .     S
C1028  H1060   1.111   .     S
C1028  C1029   1.531   .     S
C1028  H1062   1.104   .     S
C1029  H1057   1.110   .     S
C1029  H1059   1.111   .     S
C1029  H1058   1.108   .     S
C1030  O1077   1.311   .     A
C1030  O1080   1.308   .     A
C1030  C1032   1.409   .     S
C1031  O1078   1.311   .     A
C1031  C1033   1.409   .     S
C1031  O1079   1.308   .     A
C1033  C1680   1.190   .     S
C1034  H1039   1.084   .     S
C1035  H1050   1.083   .     S
C1035  C866    1.379   1_655 S
C1036  H1061   1.084   .     S
C1036  C890    1.387   1_655 S
Cu1037 N1071   2.066   .     S
Cu1037 O1073   1.952   .     S
Cu1037 O1077   1.929   .     S
Cu1037 Cu1038  2.750   .     S
Cu1037 O1075   1.950   .     S
Cu1037 O1079   1.925   .     S
Cu1038 O1076   1.950   .     S
Cu1038 N1072   2.066   .     S
Cu1038 O1074   1.952   .     S
Cu1038 O1080   1.925   .     S
Cu1038 O1078   1.929   .     S
H1051  C1242   1.110   .     S
C1081  C1084   1.447   .     S
C1081  O1148   1.309   .     A
C1081  O1145   1.315   .     A
C1082  C1084   1.397   .     A
C1082  H1137   1.071   .     S
C1082  C1251   1.379   1_455 S
C1083  C1107   1.394   .     A
C1083  C1108   1.400   .     A
C1083  C1092   1.439   .     S
C1084  C1106   1.401   .     A
C1085  C1089   1.539   .     S
C1085  N1144   1.390   .     A
C1086  N1143   1.395   .     A
C1086  C1093   1.525   .     S
C1086  C655    1.433   1_565 S
C1087  C1096   1.521   .     S
C1087  N1144   1.379   .     A
C1088  N1143   1.395   .     A
C1088  C1099   1.528   .     S
C1088  C653    1.437   1_565 S
C1089  C1090   1.546   .     S
C1089  H1113   1.102   .     S
C1089  H1112   1.100   .     S
C1090  H1142   1.105   .     S
C1090  H1141   1.111   .     S
C1090  C1091   1.527   .     S
C1091  H1138   1.109   .     S
C1091  H1140   1.111   .     S
C1091  H1139   1.107   .     S
C1092  O1147   1.312   .     A
C1092  O1146   1.308   .     A
C1093  H1119   1.098   .     S
C1093  H1120   1.111   .     S
C1093  C1094   1.541   .     S
C1094  H1118   1.101   .     S
C1094  H1117   1.109   .     S
C1094  C1095   1.528   .     S
C1095  H1116   1.111   .     S
C1095  H1114   1.111   .     S
C1095  H1115   1.111   .     S
C1096  H1128   1.098   .     S
C1096  H1127   1.104   .     S
C1096  C1097   1.552   .     S
C1097  C1098   1.536   .     S
C1097  H1126   1.110   .     S
C1097  H1125   1.111   .     S
C1098  H1124   1.102   .     S
C1098  H1121   1.108   .     S
C1099  H1136   1.107   .     S
C1099  C1100   1.550   .     S
C1099  H1135   1.096   .     S
C1100  H1132   1.111   .     S
C1100  C1101   1.531   .     S
C1100  H1134   1.104   .     S
C1101  H1129   1.110   .     S
C1101  H1131   1.111   .     S
C1101  H1130   1.108   .     S
C1102  O1149   1.311   .     A
C1102  O1152   1.308   .     A
C1102  C1104   1.409   .     S
C1103  O1150   1.311   .     A
C1103  C1105   1.409   .     S
C1103  O1151   1.308   .     A
C1105  C1752   1.190   .     S
C1106  H1111   1.084   .     S
C1106  C1252   1.387   1_455 S
C1107  H1122   1.083   .     S
C1107  C1154   1.379   .     S
C1108  H1133   1.084   .     S
C1108  C1178   1.387   .     S
Cu1109 N1143   2.066   .     S
Cu1109 O1145   1.952   .     S
Cu1109 O1149   1.929   .     S
Cu1109 Cu1110  2.750   .     S
Cu1109 O1147   1.950   .     S
Cu1109 O1151   1.925   .     S
Cu1110 O1148   1.950   .     S
Cu1110 N1144   2.066   .     S
Cu1110 O1146   1.952   .     S
Cu1110 O1152   1.925   .     S
Cu1110 O1150   1.929   .     S
H1123  C666    1.110   1_565 S
C1153  C1156   1.447   .     S
C1153  O1220   1.309   .     A
C1153  O1217   1.315   .     A
C1154  C1156   1.397   .     A
C1154  H1209   1.071   .     S
C1155  C1179   1.394   .     A
C1155  C1180   1.400   .     A
C1155  C1164   1.439   .     S
C1156  C1178   1.401   .     A
C1157  C1161   1.539   .     S
C1157  N1216   1.390   .     A
C1158  N1215   1.395   .     A
C1158  C1165   1.525   .     S
C1158  C727    1.433   1_565 S
C1159  C1168   1.521   .     S
C1159  N1216   1.379   .     A
C1160  N1215   1.395   .     A
C1160  C1171   1.528   .     S
C1160  C725    1.437   1_565 S
C1161  C1162   1.546   .     S
C1161  H1185   1.102   .     S
C1161  H1184   1.100   .     S
C1162  H1214   1.105   .     S
C1162  H1213   1.111   .     S
C1162  C1163   1.527   .     S
C1163  H1210   1.109   .     S
C1163  H1212   1.111   .     S
C1163  H1211   1.107   .     S
C1164  O1219   1.312   .     A
C1164  O1218   1.308   .     A
C1165  H1191   1.098   .     S
C1165  H1192   1.111   .     S
C1165  C1166   1.541   .     S
C1166  H1190   1.101   .     S
C1166  H1189   1.109   .     S
C1166  C1167   1.528   .     S
C1167  H1188   1.111   .     S
C1167  H1186   1.111   .     S
C1167  H1187   1.111   .     S
C1168  H1200   1.098   .     S
C1168  H1199   1.104   .     S
C1168  C1169   1.552   .     S
C1169  C1170   1.536   .     S
C1169  H1198   1.110   .     S
C1169  H1197   1.111   .     S
C1170  H1196   1.102   .     S
C1170  H1193   1.108   .     S
C1171  H1208   1.107   .     S
C1171  C1172   1.550   .     S
C1171  H1207   1.096   .     S
C1172  H1204   1.111   .     S
C1172  C1173   1.531   .     S
C1172  H1206   1.104   .     S
C1173  H1201   1.110   .     S
C1173  H1203   1.111   .     S
C1173  H1202   1.108   .     S
C1174  O1221   1.311   .     A
C1174  O1224   1.308   .     A
C1174  C1176   1.409   .     S
C1175  O1222   1.311   .     A
C1175  C1177   1.409   .     S
C1175  O1223   1.308   .     A
C1177  C1824   1.190   .     S
C1178  H1183   1.084   .     S
C1179  H1194   1.083   .     S
C1179  C1226   1.379   .     S
C1180  H1205   1.084   .     S
C1180  C1250   1.387   .     S
Cu1181 N1215   2.066   .     S
Cu1181 O1217   1.952   .     S
Cu1181 O1221   1.929   .     S
Cu1181 Cu1182  2.750   .     S
Cu1181 O1219   1.950   .     S
Cu1181 O1223   1.925   .     S
Cu1182 O1220   1.950   .     S
Cu1182 N1216   2.066   .     S
Cu1182 O1218   1.952   .     S
Cu1182 O1224   1.925   .     S
Cu1182 O1222   1.929   .     S
H1195  C738    1.110   1_565 S
C1225  C1228   1.447   .     S
C1225  O1292   1.309   .     A
C1225  O1289   1.315   .     A
C1226  C1228   1.397   .     A
C1226  H1281   1.071   .     S
C1227  C1251   1.394   .     A
C1227  C1252   1.400   .     A
C1227  C1236   1.439   .     S
C1228  C1250   1.401   .     A
C1229  C1233   1.539   .     S
C1229  N1288   1.390   .     A
C1230  N1287   1.395   .     A
C1230  C1237   1.525   .     S
C1230  C799    1.433   1_565 S
C1231  C1240   1.521   .     S
C1231  N1288   1.379   .     A
C1232  N1287   1.395   .     A
C1232  C1243   1.528   .     S
C1232  C797    1.437   1_565 S
C1233  C1234   1.546   .     S
C1233  H1257   1.102   .     S
C1233  H1256   1.100   .     S
C1234  H1286   1.105   .     S
C1234  H1285   1.111   .     S
C1234  C1235   1.527   .     S
C1235  H1282   1.109   .     S
C1235  H1284   1.111   .     S
C1235  H1283   1.107   .     S
C1236  O1291   1.312   .     A
C1236  O1290   1.308   .     A
C1237  H1263   1.098   .     S
C1237  H1264   1.111   .     S
C1237  C1238   1.541   .     S
C1238  H1262   1.101   .     S
C1238  H1261   1.109   .     S
C1238  C1239   1.528   .     S
C1239  H1260   1.111   .     S
C1239  H1258   1.111   .     S
C1239  H1259   1.111   .     S
C1240  H1272   1.098   .     S
C1240  H1271   1.104   .     S
C1240  C1241   1.552   .     S
C1241  C1242   1.536   .     S
C1241  H1270   1.110   .     S
C1241  H1269   1.111   .     S
C1242  H1268   1.102   .     S
C1242  H1265   1.108   .     S
C1243  H1280   1.107   .     S
C1243  C1244   1.550   .     S
C1243  H1279   1.096   .     S
C1244  H1276   1.111   .     S
C1244  C1245   1.531   .     S
C1244  H1278   1.104   .     S
C1245  H1273   1.110   .     S
C1245  H1275   1.111   .     S
C1245  H1274   1.108   .     S
C1246  O1293   1.311   .     A
C1246  O1296   1.308   .     A
C1246  C1248   1.409   .     S
C1247  O1294   1.311   .     A
C1247  C1249   1.409   .     S
C1247  O1295   1.308   .     A
C1249  C1896   1.190   .     S
C1250  H1255   1.084   .     S
C1251  H1266   1.083   .     S
C1251  C1082   1.379   1_655 S
C1252  H1277   1.084   .     S
C1252  C1106   1.387   1_655 S
Cu1253 N1287   2.066   .     S
Cu1253 O1289   1.952   .     S
Cu1253 O1293   1.929   .     S
Cu1253 Cu1254  2.750   .     S
Cu1253 O1291   1.950   .     S
Cu1253 O1295   1.925   .     S
Cu1254 O1292   1.950   .     S
Cu1254 N1288   2.066   .     S
Cu1254 O1290   1.952   .     S
Cu1254 O1296   1.925   .     S
Cu1254 O1294   1.929   .     S
H1267  C810    1.110   1_565 S
C1297  C1300   1.447   .     S
C1297  O1364   1.309   .     A
C1297  O1361   1.315   .     A
C1298  C1300   1.397   .     A
C1298  H1353   1.071   .     S
C1298  C1467   1.379   1_455 S
C1299  C1323   1.394   .     A
C1299  C1324   1.400   .     A
C1299  C1308   1.439   .     S
C1300  C1322   1.401   .     A
C1301  C1305   1.539   .     S
C1301  N1360   1.390   .     A
C1301  C1736   1.437   1_545 S
C1302  N1359   1.395   .     A
C1302  C1309   1.525   .     S
C1302  C1519   1.433   .     S
C1303  C1312   1.521   .     S
C1303  N1360   1.379   .     A
C1303  C1734   1.433   1_545 S
C1304  N1359   1.395   .     A
C1304  C1315   1.528   .     S
C1304  C1517   1.437   .     S
C1305  C1306   1.546   .     S
C1305  H1329   1.102   .     S
C1305  H1328   1.100   .     S
C1306  H1358   1.105   .     S
C1306  H1357   1.111   .     S
C1306  C1307   1.527   .     S
C1307  H1354   1.109   .     S
C1307  H1356   1.111   .     S
C1307  H1355   1.107   .     S
C1308  O1363   1.312   .     A
C1308  O1362   1.308   .     A
C1309  H1335   1.098   .     S
C1309  H1336   1.111   .     S
C1309  C1310   1.541   .     S
C1310  H1334   1.101   .     S
C1310  H1333   1.109   .     S
C1310  C1311   1.528   .     S
C1311  H1332   1.111   .     S
C1311  H1330   1.111   .     S
C1311  H1331   1.111   .     S
C1312  H1344   1.098   .     S
C1312  H1343   1.104   .     S
C1312  C1313   1.552   .     S
C1313  C1314   1.536   .     S
C1313  H1342   1.110   .     S
C1313  H1341   1.111   .     S
C1314  H1340   1.102   .     S
C1314  H1337   1.108   .     S
C1314  H1771   1.110   1_545 S
C1315  H1352   1.107   .     S
C1315  C1316   1.550   .     S
C1315  H1351   1.096   .     S
C1316  H1348   1.111   .     S
C1316  C1317   1.531   .     S
C1316  H1350   1.104   .     S
C1317  H1345   1.110   .     S
C1317  H1347   1.111   .     S
C1317  H1346   1.108   .     S
C1318  O1365   1.311   .     A
C1318  O1368   1.308   .     A
C1318  C1320   1.409   .     S
C1319  O1366   1.311   .     A
C1319  C1321   1.409   .     S
C1319  O1367   1.308   .     A
C1321  C24     1.190   1_556 S
C1322  H1327   1.084   .     S
C1322  C1468   1.387   1_455 S
C1323  H1338   1.083   .     S
C1323  C1370   1.379   .     S
C1324  H1349   1.084   .     S
C1324  C1394   1.387   .     S
Cu1325 N1359   2.066   .     S
Cu1325 O1361   1.952   .     S
Cu1325 O1365   1.929   .     S
Cu1325 Cu1326  2.750   .     S
Cu1325 O1363   1.950   .     S
Cu1325 O1367   1.925   .     S
Cu1326 O1364   1.950   .     S
Cu1326 N1360   2.066   .     S
Cu1326 O1362   1.952   .     S
Cu1326 O1368   1.925   .     S
Cu1326 O1366   1.929   .     S
H1339  C1530   1.110   .     S
C1369  C1372   1.447   .     S
C1369  O1436   1.309   .     A
C1369  O1433   1.315   .     A
C1370  C1372   1.397   .     A
C1370  H1425   1.071   .     S
C1371  C1395   1.394   .     A
C1371  C1396   1.400   .     A
C1371  C1380   1.439   .     S
C1372  C1394   1.401   .     A
C1373  C1377   1.539   .     S
C1373  N1432   1.390   .     A
C1373  C1808   1.437   1_545 S
C1374  N1431   1.395   .     A
C1374  C1381   1.525   .     S
C1374  C1591   1.433   .     S
C1375  C1384   1.521   .     S
C1375  N1432   1.379   .     A
C1375  C1806   1.433   1_545 S
C1376  N1431   1.395   .     A
C1376  C1387   1.528   .     S
C1376  C1589   1.437   .     S
C1377  C1378   1.546   .     S
C1377  H1401   1.102   .     S
C1377  H1400   1.100   .     S
C1378  H1430   1.105   .     S
C1378  H1429   1.111   .     S
C1378  C1379   1.527   .     S
C1379  H1426   1.109   .     S
C1379  H1428   1.111   .     S
C1379  H1427   1.107   .     S
C1380  O1435   1.312   .     A
C1380  O1434   1.308   .     A
C1381  H1407   1.098   .     S
C1381  H1408   1.111   .     S
C1381  C1382   1.541   .     S
C1382  H1406   1.101   .     S
C1382  H1405   1.109   .     S
C1382  C1383   1.528   .     S
C1383  H1404   1.111   .     S
C1383  H1402   1.111   .     S
C1383  H1403   1.111   .     S
C1384  H1416   1.098   .     S
C1384  H1415   1.104   .     S
C1384  C1385   1.552   .     S
C1385  C1386   1.536   .     S
C1385  H1414   1.110   .     S
C1385  H1413   1.111   .     S
C1386  H1412   1.102   .     S
C1386  H1409   1.108   .     S
C1386  H1843   1.110   1_545 S
C1387  H1424   1.107   .     S
C1387  C1388   1.550   .     S
C1387  H1423   1.096   .     S
C1388  H1420   1.111   .     S
C1388  C1389   1.531   .     S
C1388  H1422   1.104   .     S
C1389  H1417   1.110   .     S
C1389  H1419   1.111   .     S
C1389  H1418   1.108   .     S
C1390  O1437   1.311   .     A
C1390  O1440   1.308   .     A
C1390  C1392   1.409   .     S
C1391  O1438   1.311   .     A
C1391  C1393   1.409   .     S
C1391  O1439   1.308   .     A
C1393  C96     1.190   1_556 S
C1394  H1399   1.084   .     S
C1395  H1410   1.083   .     S
C1395  C1442   1.379   .     S
C1396  H1421   1.084   .     S
C1396  C1466   1.387   .     S
Cu1397 N1431   2.066   .     S
Cu1397 O1433   1.952   .     S
Cu1397 O1437   1.929   .     S
Cu1397 Cu1398  2.750   .     S
Cu1397 O1435   1.950   .     S
Cu1397 O1439   1.925   .     S
Cu1398 O1436   1.950   .     S
Cu1398 N1432   2.066   .     S
Cu1398 O1434   1.952   .     S
Cu1398 O1440   1.925   .     S
Cu1398 O1438   1.929   .     S
H1411  C1602   1.110   .     S
C1441  C1444   1.447   .     S
C1441  O1508   1.309   .     A
C1441  O1505   1.315   .     A
C1442  C1444   1.397   .     A
C1442  H1497   1.071   .     S
C1443  C1467   1.394   .     A
C1443  C1468   1.400   .     A
C1443  C1452   1.439   .     S
C1444  C1466   1.401   .     A
C1445  C1449   1.539   .     S
C1445  N1504   1.390   .     A
C1445  C1880   1.437   1_545 S
C1446  N1503   1.395   .     A
C1446  C1453   1.525   .     S
C1446  C1663   1.433   .     S
C1447  C1456   1.521   .     S
C1447  N1504   1.379   .     A
C1447  C1878   1.433   1_545 S
C1448  N1503   1.395   .     A
C1448  C1459   1.528   .     S
C1448  C1661   1.437   .     S
C1449  C1450   1.546   .     S
C1449  H1473   1.102   .     S
C1449  H1472   1.100   .     S
C1450  H1502   1.105   .     S
C1450  H1501   1.111   .     S
C1450  C1451   1.527   .     S
C1451  H1498   1.109   .     S
C1451  H1500   1.111   .     S
C1451  H1499   1.107   .     S
C1452  O1507   1.312   .     A
C1452  O1506   1.308   .     A
C1453  H1479   1.098   .     S
C1453  H1480   1.111   .     S
C1453  C1454   1.541   .     S
C1454  H1478   1.101   .     S
C1454  H1477   1.109   .     S
C1454  C1455   1.528   .     S
C1455  H1476   1.111   .     S
C1455  H1474   1.111   .     S
C1455  H1475   1.111   .     S
C1456  H1488   1.098   .     S
C1456  H1487   1.104   .     S
C1456  C1457   1.552   .     S
C1457  C1458   1.536   .     S
C1457  H1486   1.110   .     S
C1457  H1485   1.111   .     S
C1458  H1484   1.102   .     S
C1458  H1481   1.108   .     S
C1458  H1915   1.110   1_545 S
C1459  H1496   1.107   .     S
C1459  C1460   1.550   .     S
C1459  H1495   1.096   .     S
C1460  H1492   1.111   .     S
C1460  C1461   1.531   .     S
C1460  H1494   1.104   .     S
C1461  H1489   1.110   .     S
C1461  H1491   1.111   .     S
C1461  H1490   1.108   .     S
C1462  O1509   1.311   .     A
C1462  O1512   1.308   .     A
C1462  C1464   1.409   .     S
C1463  O1510   1.311   .     A
C1463  C1465   1.409   .     S
C1463  O1511   1.308   .     A
C1465  C168    1.190   1_556 S
C1466  H1471   1.084   .     S
C1467  H1482   1.083   .     S
C1467  C1298   1.379   1_655 S
C1468  H1493   1.084   .     S
C1468  C1322   1.387   1_655 S
Cu1469 N1503   2.066   .     S
Cu1469 O1505   1.952   .     S
Cu1469 O1509   1.929   .     S
Cu1469 Cu1470  2.750   .     S
Cu1469 O1507   1.950   .     S
Cu1469 O1511   1.925   .     S
Cu1470 O1508   1.950   .     S
Cu1470 N1504   2.066   .     S
Cu1470 O1506   1.952   .     S
Cu1470 O1512   1.925   .     S
Cu1470 O1510   1.929   .     S
H1483  C1674   1.110   .     S
C1513  C1516   1.447   .     S
C1513  O1580   1.309   .     A
C1513  O1577   1.315   .     A
C1514  C1516   1.397   .     A
C1514  H1569   1.071   .     S
C1514  C1683   1.379   1_455 S
C1515  C1539   1.394   .     A
C1515  C1540   1.400   .     A
C1515  C1524   1.439   .     S
C1516  C1538   1.401   .     A
C1517  C1521   1.539   .     S
C1517  N1576   1.390   .     A
C1518  N1575   1.395   .     A
C1518  C1525   1.525   .     S
C1518  C1735   1.433   .     S
C1519  C1528   1.521   .     S
C1519  N1576   1.379   .     A
C1520  N1575   1.395   .     A
C1520  C1531   1.528   .     S
C1520  C1733   1.437   .     S
C1521  C1522   1.546   .     S
C1521  H1545   1.102   .     S
C1521  H1544   1.100   .     S
C1522  H1574   1.105   .     S
C1522  H1573   1.111   .     S
C1522  C1523   1.527   .     S
C1523  H1570   1.109   .     S
C1523  H1572   1.111   .     S
C1523  H1571   1.107   .     S
C1524  O1579   1.312   .     A
C1524  O1578   1.308   .     A
C1525  H1551   1.098   .     S
C1525  H1552   1.111   .     S
C1525  C1526   1.541   .     S
C1526  H1550   1.101   .     S
C1526  H1549   1.109   .     S
C1526  C1527   1.528   .     S
C1527  H1548   1.111   .     S
C1527  H1546   1.111   .     S
C1527  H1547   1.111   .     S
C1528  H1560   1.098   .     S
C1528  H1559   1.104   .     S
C1528  C1529   1.552   .     S
C1529  C1530   1.536   .     S
C1529  H1558   1.110   .     S
C1529  H1557   1.111   .     S
C1530  H1556   1.102   .     S
C1530  H1553   1.108   .     S
C1531  H1568   1.107   .     S
C1531  C1532   1.550   .     S
C1531  H1567   1.096   .     S
C1532  H1564   1.111   .     S
C1532  C1533   1.531   .     S
C1532  H1566   1.104   .     S
C1533  H1561   1.110   .     S
C1533  H1563   1.111   .     S
C1533  H1562   1.108   .     S
C1534  O1581   1.311   .     A
C1534  O1584   1.308   .     A
C1534  C1536   1.409   .     S
C1535  O1582   1.311   .     A
C1535  C1537   1.409   .     S
C1535  O1583   1.308   .     A
C1537  C240    1.190   1_556 S
C1538  H1543   1.084   .     S
C1538  C1684   1.387   1_455 S
C1539  H1554   1.083   .     S
C1539  C1586   1.379   .     S
C1540  H1565   1.084   .     S
C1540  C1610   1.387   .     S
Cu1541 N1575   2.066   .     S
Cu1541 O1577   1.952   .     S
Cu1541 O1581   1.929   .     S
Cu1541 Cu1542  2.750   .     S
Cu1541 O1579   1.950   .     S
Cu1541 O1583   1.925   .     S
Cu1542 O1580   1.950   .     S
Cu1542 N1576   2.066   .     S
Cu1542 O1578   1.952   .     S
Cu1542 O1584   1.925   .     S
Cu1542 O1582   1.929   .     S
H1555  C1746   1.110   .     S
C1585  C1588   1.447   .     S
C1585  O1652   1.309   .     A
C1585  O1649   1.315   .     A
C1586  C1588   1.397   .     A
C1586  H1641   1.071   .     S
C1587  C1611   1.394   .     A
C1587  C1612   1.400   .     A
C1587  C1596   1.439   .     S
C1588  C1610   1.401   .     A
C1589  C1593   1.539   .     S
C1589  N1648   1.390   .     A
C1590  N1647   1.395   .     A
C1590  C1597   1.525   .     S
C1590  C1807   1.433   .     S
C1591  C1600   1.521   .     S
C1591  N1648   1.379   .     A
C1592  N1647   1.395   .     A
C1592  C1603   1.528   .     S
C1592  C1805   1.437   .     S
C1593  C1594   1.546   .     S
C1593  H1617   1.102   .     S
C1593  H1616   1.100   .     S
C1594  H1646   1.105   .     S
C1594  H1645   1.111   .     S
C1594  C1595   1.527   .     S
C1595  H1642   1.109   .     S
C1595  H1644   1.111   .     S
C1595  H1643   1.107   .     S
C1596  O1651   1.312   .     A
C1596  O1650   1.308   .     A
C1597  H1623   1.098   .     S
C1597  H1624   1.111   .     S
C1597  C1598   1.541   .     S
C1598  H1622   1.101   .     S
C1598  H1621   1.109   .     S
C1598  C1599   1.528   .     S
C1599  H1620   1.111   .     S
C1599  H1618   1.111   .     S
C1599  H1619   1.111   .     S
C1600  H1632   1.098   .     S
C1600  H1631   1.104   .     S
C1600  C1601   1.552   .     S
C1601  C1602   1.536   .     S
C1601  H1630   1.110   .     S
C1601  H1629   1.111   .     S
C1602  H1628   1.102   .     S
C1602  H1625   1.108   .     S
C1603  H1640   1.107   .     S
C1603  C1604   1.550   .     S
C1603  H1639   1.096   .     S
C1604  H1636   1.111   .     S
C1604  C1605   1.531   .     S
C1604  H1638   1.104   .     S
C1605  H1633   1.110   .     S
C1605  H1635   1.111   .     S
C1605  H1634   1.108   .     S
C1606  O1653   1.311   .     A
C1606  O1656   1.308   .     A
C1606  C1608   1.409   .     S
C1607  O1654   1.311   .     A
C1607  C1609   1.409   .     S
C1607  O1655   1.308   .     A
C1609  C312    1.190   1_556 S
C1610  H1615   1.084   .     S
C1611  H1626   1.083   .     S
C1611  C1658   1.379   .     S
C1612  H1637   1.084   .     S
C1612  C1682   1.387   .     S
Cu1613 N1647   2.066   .     S
Cu1613 O1649   1.952   .     S
Cu1613 O1653   1.929   .     S
Cu1613 Cu1614  2.750   .     S
Cu1613 O1651   1.950   .     S
Cu1613 O1655   1.925   .     S
Cu1614 O1652   1.950   .     S
Cu1614 N1648   2.066   .     S
Cu1614 O1650   1.952   .     S
Cu1614 O1656   1.925   .     S
Cu1614 O1654   1.929   .     S
H1627  C1818   1.110   .     S
C1657  C1660   1.447   .     S
C1657  O1724   1.309   .     A
C1657  O1721   1.315   .     A
C1658  C1660   1.397   .     A
C1658  H1713   1.071   .     S
C1659  C1683   1.394   .     A
C1659  C1684   1.400   .     A
C1659  C1668   1.439   .     S
C1660  C1682   1.401   .     A
C1661  C1665   1.539   .     S
C1661  N1720   1.390   .     A
C1662  N1719   1.395   .     A
C1662  C1669   1.525   .     S
C1662  C1879   1.433   .     S
C1663  C1672   1.521   .     S
C1663  N1720   1.379   .     A
C1664  N1719   1.395   .     A
C1664  C1675   1.528   .     S
C1664  C1877   1.437   .     S
C1665  C1666   1.546   .     S
C1665  H1689   1.102   .     S
C1665  H1688   1.100   .     S
C1666  H1718   1.105   .     S
C1666  H1717   1.111   .     S
C1666  C1667   1.527   .     S
C1667  H1714   1.109   .     S
C1667  H1716   1.111   .     S
C1667  H1715   1.107   .     S
C1668  O1723   1.312   .     A
C1668  O1722   1.308   .     A
C1669  H1695   1.098   .     S
C1669  H1696   1.111   .     S
C1669  C1670   1.541   .     S
C1670  H1694   1.101   .     S
C1670  H1693   1.109   .     S
C1670  C1671   1.528   .     S
C1671  H1692   1.111   .     S
C1671  H1690   1.111   .     S
C1671  H1691   1.111   .     S
C1672  H1704   1.098   .     S
C1672  H1703   1.104   .     S
C1672  C1673   1.552   .     S
C1673  C1674   1.536   .     S
C1673  H1702   1.110   .     S
C1673  H1701   1.111   .     S
C1674  H1700   1.102   .     S
C1674  H1697   1.108   .     S
C1675  H1712   1.107   .     S
C1675  C1676   1.550   .     S
C1675  H1711   1.096   .     S
C1676  H1708   1.111   .     S
C1676  C1677   1.531   .     S
C1676  H1710   1.104   .     S
C1677  H1705   1.110   .     S
C1677  H1707   1.111   .     S
C1677  H1706   1.108   .     S
C1678  O1725   1.311   .     A
C1678  O1728   1.308   .     A
C1678  C1680   1.409   .     S
C1679  O1726   1.311   .     A
C1679  C1681   1.409   .     S
C1679  O1727   1.308   .     A
C1681  C384    1.190   1_556 S
C1682  H1687   1.084   .     S
C1683  H1698   1.083   .     S
C1683  C1514   1.379   1_655 S
C1684  H1709   1.084   .     S
C1684  C1538   1.387   1_655 S
Cu1685 N1719   2.066   .     S
Cu1685 O1721   1.952   .     S
Cu1685 O1725   1.929   .     S
Cu1685 Cu1686  2.750   .     S
Cu1685 O1723   1.950   .     S
Cu1685 O1727   1.925   .     S
Cu1686 O1724   1.950   .     S
Cu1686 N1720   2.066   .     S
Cu1686 O1722   1.952   .     S
Cu1686 O1728   1.925   .     S
Cu1686 O1726   1.929   .     S
H1699  C1890   1.110   .     S
C1729  C1732   1.447   .     S
C1729  O1796   1.309   .     A
C1729  O1793   1.315   .     A
C1730  C1732   1.397   .     A
C1730  H1785   1.071   .     S
C1730  C1899   1.379   1_455 S
C1731  C1755   1.394   .     A
C1731  C1756   1.400   .     A
C1731  C1740   1.439   .     S
C1732  C1754   1.401   .     A
C1733  C1737   1.539   .     S
C1733  N1792   1.390   .     A
C1734  N1791   1.395   .     A
C1734  C1741   1.525   .     S
C1734  C1303   1.433   1_565 S
C1735  C1744   1.521   .     S
C1735  N1792   1.379   .     A
C1736  N1791   1.395   .     A
C1736  C1747   1.528   .     S
C1736  C1301   1.437   1_565 S
C1737  C1738   1.546   .     S
C1737  H1761   1.102   .     S
C1737  H1760   1.100   .     S
C1738  H1790   1.105   .     S
C1738  H1789   1.111   .     S
C1738  C1739   1.527   .     S
C1739  H1786   1.109   .     S
C1739  H1788   1.111   .     S
C1739  H1787   1.107   .     S
C1740  O1795   1.312   .     A
C1740  O1794   1.308   .     A
C1741  H1767   1.098   .     S
C1741  H1768   1.111   .     S
C1741  C1742   1.541   .     S
C1742  H1766   1.101   .     S
C1742  H1765   1.109   .     S
C1742  C1743   1.528   .     S
C1743  H1764   1.111   .     S
C1743  H1762   1.111   .     S
C1743  H1763   1.111   .     S
C1744  H1776   1.098   .     S
C1744  H1775   1.104   .     S
C1744  C1745   1.552   .     S
C1745  C1746   1.536   .     S
C1745  H1774   1.110   .     S
C1745  H1773   1.111   .     S
C1746  H1772   1.102   .     S
C1746  H1769   1.108   .     S
C1747  H1784   1.107   .     S
C1747  C1748   1.550   .     S
C1747  H1783   1.096   .     S
C1748  H1780   1.111   .     S
C1748  C1749   1.531   .     S
C1748  H1782   1.104   .     S
C1749  H1777   1.110   .     S
C1749  H1779   1.111   .     S
C1749  H1778   1.108   .     S
C1750  O1797   1.311   .     A
C1750  O1800   1.308   .     A
C1750  C1752   1.409   .     S
C1751  O1798   1.311   .     A
C1751  C1753   1.409   .     S
C1751  O1799   1.308   .     A
C1753  C456    1.190   1_556 S
C1754  H1759   1.084   .     S
C1754  C1900   1.387   1_455 S
C1755  H1770   1.083   .     S
C1755  C1802   1.379   .     S
C1756  H1781   1.084   .     S
C1756  C1826   1.387   .     S
Cu1757 N1791   2.066   .     S
Cu1757 O1793   1.952   .     S
Cu1757 O1797   1.929   .     S
Cu1757 Cu1758  2.750   .     S
Cu1757 O1795   1.950   .     S
Cu1757 O1799   1.925   .     S
Cu1758 O1796   1.950   .     S
Cu1758 N1792   2.066   .     S
Cu1758 O1794   1.952   .     S
Cu1758 O1800   1.925   .     S
Cu1758 O1798   1.929   .     S
H1771  C1314   1.110   1_565 S
C1801  C1804   1.447   .     S
C1801  O1868   1.309   .     A
C1801  O1865   1.315   .     A
C1802  C1804   1.397   .     A
C1802  H1857   1.071   .     S
C1803  C1827   1.394   .     A
C1803  C1828   1.400   .     A
C1803  C1812   1.439   .     S
C1804  C1826   1.401   .     A
C1805  C1809   1.539   .     S
C1805  N1864   1.390   .     A
C1806  N1863   1.395   .     A
C1806  C1813   1.525   .     S
C1806  C1375   1.433   1_565 S
C1807  C1816   1.521   .     S
C1807  N1864   1.379   .     A
C1808  N1863   1.395   .     A
C1808  C1819   1.528   .     S
C1808  C1373   1.437   1_565 S
C1809  C1810   1.546   .     S
C1809  H1833   1.102   .     S
C1809  H1832   1.100   .     S
C1810  H1862   1.105   .     S
C1810  H1861   1.111   .     S
C1810  C1811   1.527   .     S
C1811  H1858   1.109   .     S
C1811  H1860   1.111   .     S
C1811  H1859   1.107   .     S
C1812  O1867   1.312   .     A
C1812  O1866   1.308   .     A
C1813  H1839   1.098   .     S
C1813  H1840   1.111   .     S
C1813  C1814   1.541   .     S
C1814  H1838   1.101   .     S
C1814  H1837   1.109   .     S
C1814  C1815   1.528   .     S
C1815  H1836   1.111   .     S
C1815  H1834   1.111   .     S
C1815  H1835   1.111   .     S
C1816  H1848   1.098   .     S
C1816  H1847   1.104   .     S
C1816  C1817   1.552   .     S
C1817  C1818   1.536   .     S
C1817  H1846   1.110   .     S
C1817  H1845   1.111   .     S
C1818  H1844   1.102   .     S
C1818  H1841   1.108   .     S
C1819  H1856   1.107   .     S
C1819  C1820   1.550   .     S
C1819  H1855   1.096   .     S
C1820  H1852   1.111   .     S
C1820  C1821   1.531   .     S
C1820  H1854   1.104   .     S
C1821  H1849   1.110   .     S
C1821  H1851   1.111   .     S
C1821  H1850   1.108   .     S
C1822  O1869   1.311   .     A
C1822  O1872   1.308   .     A
C1822  C1824   1.409   .     S
C1823  O1870   1.311   .     A
C1823  C1825   1.409   .     S
C1823  O1871   1.308   .     A
C1825  C528    1.190   1_556 S
C1826  H1831   1.084   .     S
C1827  H1842   1.083   .     S
C1827  C1874   1.379   .     S
C1828  H1853   1.084   .     S
C1828  C1898   1.387   .     S
Cu1829 N1863   2.066   .     S
Cu1829 O1865   1.952   .     S
Cu1829 O1869   1.929   .     S
Cu1829 Cu1830  2.750   .     S
Cu1829 O1867   1.950   .     S
Cu1829 O1871   1.925   .     S
Cu1830 O1868   1.950   .     S
Cu1830 N1864   2.066   .     S
Cu1830 O1866   1.952   .     S
Cu1830 O1872   1.925   .     S
Cu1830 O1870   1.929   .     S
H1843  C1386   1.110   1_565 S
C1873  C1876   1.447   .     S
C1873  O1940   1.309   .     A
C1873  O1937   1.315   .     A
C1874  C1876   1.397   .     A
C1874  H1929   1.071   .     S
C1875  C1899   1.394   .     A
C1875  C1900   1.400   .     A
C1875  C1884   1.439   .     S
C1876  C1898   1.401   .     A
C1877  C1881   1.539   .     S
C1877  N1936   1.390   .     A
C1878  N1935   1.395   .     A
C1878  C1885   1.525   .     S
C1878  C1447   1.433   1_565 S
C1879  C1888   1.521   .     S
C1879  N1936   1.379   .     A
C1880  N1935   1.395   .     A
C1880  C1891   1.528   .     S
C1880  C1445   1.437   1_565 S
C1881  C1882   1.546   .     S
C1881  H1905   1.102   .     S
C1881  H1904   1.100   .     S
C1882  H1934   1.105   .     S
C1882  H1933   1.111   .     S
C1882  C1883   1.527   .     S
C1883  H1930   1.109   .     S
C1883  H1932   1.111   .     S
C1883  H1931   1.107   .     S
C1884  O1939   1.312   .     A
C1884  O1938   1.308   .     A
C1885  H1911   1.098   .     S
C1885  H1912   1.111   .     S
C1885  C1886   1.541   .     S
C1886  H1910   1.101   .     S
C1886  H1909   1.109   .     S
C1886  C1887   1.528   .     S
C1887  H1908   1.111   .     S
C1887  H1906   1.111   .     S
C1887  H1907   1.111   .     S
C1888  H1920   1.098   .     S
C1888  H1919   1.104   .     S
C1888  C1889   1.552   .     S
C1889  C1890   1.536   .     S
C1889  H1918   1.110   .     S
C1889  H1917   1.111   .     S
C1890  H1916   1.102   .     S
C1890  H1913   1.108   .     S
C1891  H1928   1.107   .     S
C1891  C1892   1.550   .     S
C1891  H1927   1.096   .     S
C1892  H1924   1.111   .     S
C1892  C1893   1.531   .     S
C1892  H1926   1.104   .     S
C1893  H1921   1.110   .     S
C1893  H1923   1.111   .     S
C1893  H1922   1.108   .     S
C1894  O1941   1.311   .     A
C1894  O1944   1.308   .     A
C1894  C1896   1.409   .     S
C1895  O1942   1.311   .     A
C1895  C1897   1.409   .     S
C1895  O1943   1.308   .     A
C1897  C600    1.190   1_556 S
C1898  H1903   1.084   .     S
C1899  H1914   1.083   .     S
C1899  C1730   1.379   1_655 S
C1900  H1925   1.084   .     S
C1900  C1754   1.387   1_655 S
Cu1901 N1935   2.066   .     S
Cu1901 O1937   1.952   .     S
Cu1901 O1941   1.929   .     S
Cu1901 Cu1902  2.750   .     S
Cu1901 O1939   1.950   .     S
Cu1901 O1943   1.925   .     S
Cu1902 O1940   1.950   .     S
Cu1902 N1936   2.066   .     S
Cu1902 O1938   1.952   .     S
Cu1902 O1944   1.925   .     S
Cu1902 O1942   1.929   .     S
H1915  C1458   1.110   1_565 S
