data_str_m2_o1_o16_pcu_sym.11
_audit_creation_date              2020-01-03
_audit_creation_method            'Materials Studio'
_symmetry_space_group_name_H-M    'P1'
_symmetry_Int_Tables_number       1
_symmetry_cell_setting            triclinic
loop_
_symmetry_equiv_pos_as_xyz
  x,y,z
_cell_length_a                    28.5623
_cell_length_b                    32.4022
_cell_length_c                    26.8955
_cell_angle_alpha                 90.1985
_cell_angle_beta                  72.4900
_cell_angle_gamma                 90.0951
loop_
_atom_site_label
_atom_site_type_symbol
_atom_site_fract_x
_atom_site_fract_y
_atom_site_fract_z
_atom_site_U_iso_or_equiv
_atom_site_adp_type
_atom_site_occupancy
C1     C     0.16668   0.24598   0.25005   0.00000  Uiso   1.00
C2     C     0.12450   0.16566   0.40745   0.00000  Uiso   1.00
C3     C     0.18994   0.31259   0.28149   0.00000  Uiso   1.00
C4     C     0.14042   0.16518   0.35009   0.00000  Uiso   1.00
C5     C     0.19037   0.02201   0.28058   0.00000  Uiso   1.00
C6     C     0.16657   0.04306   0.25003   0.00000  Uiso   1.00
C7     C     0.14271   0.02172   0.21957   0.00000  Uiso   1.00
C8     C     0.14318   0.31228   0.21870   0.00000  Uiso   1.00
C9     C     0.16666   0.29073   0.25004   0.00000  Uiso   1.00
C10    C     0.29857   0.18962   0.28551   0.00000  Uiso   1.00
C11    C     0.01483   0.18964   0.28548   0.00000  Uiso   1.00
C12    C     0.14489   0.16415   0.48962   0.00000  Uiso   1.00
C13    C     0.03475   0.14359   0.21458   0.00000  Uiso   1.00
C14    C     0.31849   0.14364   0.21456   0.00000  Uiso   1.00
C15    C     0.16663   0.08748   0.24997   0.00000  Uiso   1.00
C16    C     0.19289   0.16597   0.15003   0.00000  Uiso   1.00
C17    C     0.25964   0.12742   0.01580   0.00000  Uiso   1.00
C18    C     0.20760   0.16010   0.09358   0.00000  Uiso   1.00
C19    C     0.07911   0.18377   0.43332   0.00000  Uiso   1.00
C20    C     0.06590   0.19126   0.48656   0.00000  Uiso   1.00
C21    C     0.09852   0.18229   0.01442   0.00000  Uiso   1.00
C22    C     0.15601   0.15273   0.43635   0.00000  Uiso   1.00
C23    C     0.18044   0.15666   0.01600   0.00000  Uiso   1.00
C24    C     0.22431   0.13503   0.49025   0.00000  Uiso   1.00
C25    C     0.23192   0.12025   0.43979   0.00000  Uiso   1.00
C26    C     0.19799   0.12835   0.41353   0.00000  Uiso   1.00
C27    C     0.17385   0.17007   0.06727   0.00000  Uiso   1.00
C28    C     0.25114   0.13961   0.06744   0.00000  Uiso   1.00
Cl29   Cl    0.11606   0.28733   0.17578   0.00000  Uiso   1.00
Cl30   Cl    0.00913   0.21435   0.01814   0.00000  Uiso   1.00
Cl31   Cl    0.21657   0.28809   0.32486   0.00000  Uiso   1.00
Cu32   Cu    0.11978   0.16666   0.25000   0.00000  Uiso   1.00
Cu33   Cu    0.21355   0.16667   0.25000   0.00000  Uiso   1.00
H34    H     0.12483   0.03837   0.19543   0.00000  Uiso   1.00
H35    H     0.02553   0.20807   0.31388   0.00000  Uiso   1.00
H36    H     0.30777   0.12515   0.18622   0.00000  Uiso   1.00
H37    H     0.29319   0.11096   0.49629   0.00000  Uiso   1.00
H38    H     0.20473   0.11433   0.37553   0.00000  Uiso   1.00
H39    H     0.27192   0.20795   0.31405   0.00000  Uiso   1.00
H40    H     0.06137   0.12501   0.18628   0.00000  Uiso   1.00
H41    H     0.26426   0.10221   0.42051   0.00000  Uiso   1.00
H42    H     0.14226   0.18783   0.08837   0.00000  Uiso   1.00
H43    H     0.05438   0.19339   0.41191   0.00000  Uiso   1.00
H44    H     0.08593   0.18923   0.05547   0.00000  Uiso   1.00
H45    H     0.27755   0.13156   0.08748   0.00000  Uiso   1.00
H46    H     0.20812   0.03889   0.30480   0.00000  Uiso   1.00
N47    N     0.04931   0.16666   0.24998   0.00000  Uiso   1.00
N48    N     0.28402   0.16669   0.24999   0.00000  Uiso   1.00
O49    O     0.12708   0.22678   0.25000   0.00000  Uiso   1.00
O50    O     0.20627   0.22679   0.25000   0.00000  Uiso   1.00
O51    O     0.10775   0.16665   0.32549   0.00000  Uiso   1.00
O52    O     0.18694   0.16666   0.32549   0.00000  Uiso   1.00
O53    O     0.12706   0.10654   0.24999   0.00000  Uiso   1.00
O54    O     0.20625   0.10655   0.24999   0.00000  Uiso   1.00
O55    O     0.14640   0.16667   0.17451   0.00000  Uiso   1.00
O56    O     0.22559   0.16668   0.17451   0.00000  Uiso   1.00
C57    C     0.50001   0.24598   0.25005   0.00000  Uiso   1.00
C58    C     0.45784   0.16566   0.40745   0.00000  Uiso   1.00
C59    C     0.52328   0.31259   0.28149   0.00000  Uiso   1.00
C60    C     0.47376   0.16518   0.35009   0.00000  Uiso   1.00
C61    C     0.52370   0.02201   0.28058   0.00000  Uiso   1.00
C62    C     0.49990   0.04306   0.25003   0.00000  Uiso   1.00
C63    C     0.47604   0.02172   0.21957   0.00000  Uiso   1.00
C64    C     0.47651   0.31228   0.21870   0.00000  Uiso   1.00
C65    C     0.49999   0.29073   0.25004   0.00000  Uiso   1.00
C66    C     0.63190   0.18962   0.28551   0.00000  Uiso   1.00
C67    C     0.34816   0.18964   0.28548   0.00000  Uiso   1.00
C68    C     0.47822   0.16415   0.48962   0.00000  Uiso   1.00
C69    C     0.36808   0.14359   0.21458   0.00000  Uiso   1.00
C70    C     0.65182   0.14364   0.21456   0.00000  Uiso   1.00
C71    C     0.49997   0.08748   0.24997   0.00000  Uiso   1.00
C72    C     0.52622   0.16597   0.15003   0.00000  Uiso   1.00
C73    C     0.59297   0.12742   0.01580   0.00000  Uiso   1.00
C74    C     0.54093   0.16010   0.09358   0.00000  Uiso   1.00
C75    C     0.41245   0.18377   0.43332   0.00000  Uiso   1.00
C76    C     0.39923   0.19126   0.48656   0.00000  Uiso   1.00
C77    C     0.43186   0.18229   0.01442   0.00000  Uiso   1.00
C78    C     0.48935   0.15273   0.43635   0.00000  Uiso   1.00
C79    C     0.51377   0.15666   0.01600   0.00000  Uiso   1.00
C80    C     0.55764   0.13503   0.49025   0.00000  Uiso   1.00
C81    C     0.56525   0.12025   0.43979   0.00000  Uiso   1.00
C82    C     0.53132   0.12835   0.41353   0.00000  Uiso   1.00
C83    C     0.50718   0.17007   0.06727   0.00000  Uiso   1.00
C84    C     0.58447   0.13961   0.06744   0.00000  Uiso   1.00
Cl85   Cl    0.44939   0.28733   0.17578   0.00000  Uiso   1.00
Cl86   Cl    0.34246   0.21435   0.01814   0.00000  Uiso   1.00
Cl87   Cl    0.54991   0.28809   0.32486   0.00000  Uiso   1.00
Cu88   Cu    0.45311   0.16666   0.25000   0.00000  Uiso   1.00
Cu89   Cu    0.54689   0.16667   0.25000   0.00000  Uiso   1.00
H90    H     0.45817   0.03837   0.19543   0.00000  Uiso   1.00
H91    H     0.35886   0.20807   0.31388   0.00000  Uiso   1.00
H92    H     0.64110   0.12515   0.18622   0.00000  Uiso   1.00
H93    H     0.62652   0.11096   0.49629   0.00000  Uiso   1.00
H94    H     0.53806   0.11433   0.37553   0.00000  Uiso   1.00
H95    H     0.60525   0.20795   0.31405   0.00000  Uiso   1.00
H96    H     0.39470   0.12501   0.18628   0.00000  Uiso   1.00
H97    H     0.59759   0.10221   0.42051   0.00000  Uiso   1.00
H98    H     0.47560   0.18783   0.08837   0.00000  Uiso   1.00
H99    H     0.38772   0.19339   0.41191   0.00000  Uiso   1.00
H100   H     0.41926   0.18923   0.05547   0.00000  Uiso   1.00
H101   H     0.61088   0.13156   0.08748   0.00000  Uiso   1.00
H102   H     0.54146   0.03889   0.30480   0.00000  Uiso   1.00
N103   N     0.38265   0.16666   0.24998   0.00000  Uiso   1.00
N104   N     0.61735   0.16669   0.24999   0.00000  Uiso   1.00
O105   O     0.46042   0.22678   0.25000   0.00000  Uiso   1.00
O106   O     0.53961   0.22679   0.25000   0.00000  Uiso   1.00
O107   O     0.44108   0.16665   0.32549   0.00000  Uiso   1.00
O108   O     0.52027   0.16666   0.32549   0.00000  Uiso   1.00
O109   O     0.46039   0.10654   0.24999   0.00000  Uiso   1.00
O110   O     0.53958   0.10655   0.24999   0.00000  Uiso   1.00
O111   O     0.47973   0.16667   0.17451   0.00000  Uiso   1.00
O112   O     0.55892   0.16668   0.17451   0.00000  Uiso   1.00
C113   C     0.83335   0.24598   0.25005   0.00000  Uiso   1.00
C114   C     0.79117   0.16566   0.40745   0.00000  Uiso   1.00
C115   C     0.85661   0.31259   0.28149   0.00000  Uiso   1.00
C116   C     0.80709   0.16518   0.35009   0.00000  Uiso   1.00
C117   C     0.85704   0.02201   0.28058   0.00000  Uiso   1.00
C118   C     0.83324   0.04306   0.25003   0.00000  Uiso   1.00
C119   C     0.80937   0.02172   0.21957   0.00000  Uiso   1.00
C120   C     0.80985   0.31228   0.21870   0.00000  Uiso   1.00
C121   C     0.83332   0.29073   0.25004   0.00000  Uiso   1.00
C122   C     0.96523   0.18962   0.28551   0.00000  Uiso   1.00
C123   C     0.68150   0.18964   0.28548   0.00000  Uiso   1.00
C124   C     0.81155   0.16415   0.48962   0.00000  Uiso   1.00
C125   C     0.70142   0.14359   0.21458   0.00000  Uiso   1.00
C126   C     0.98516   0.14364   0.21456   0.00000  Uiso   1.00
C127   C     0.83330   0.08748   0.24997   0.00000  Uiso   1.00
C128   C     0.85955   0.16597   0.15003   0.00000  Uiso   1.00
C129   C     0.92631   0.12742   0.01580   0.00000  Uiso   1.00
C130   C     0.87427   0.16010   0.09358   0.00000  Uiso   1.00
C131   C     0.74578   0.18377   0.43332   0.00000  Uiso   1.00
C132   C     0.73257   0.19126   0.48656   0.00000  Uiso   1.00
C133   C     0.76519   0.18229   0.01442   0.00000  Uiso   1.00
C134   C     0.82268   0.15273   0.43635   0.00000  Uiso   1.00
C135   C     0.84710   0.15666   0.01600   0.00000  Uiso   1.00
C136   C     0.89098   0.13503   0.49025   0.00000  Uiso   1.00
C137   C     0.89859   0.12025   0.43979   0.00000  Uiso   1.00
C138   C     0.86465   0.12835   0.41353   0.00000  Uiso   1.00
C139   C     0.84052   0.17007   0.06727   0.00000  Uiso   1.00
C140   C     0.91780   0.13961   0.06744   0.00000  Uiso   1.00
Cl141  Cl    0.78273   0.28733   0.17578   0.00000  Uiso   1.00
Cl142  Cl    0.67579   0.21435   0.01814   0.00000  Uiso   1.00
Cl143  Cl    0.88324   0.28809   0.32486   0.00000  Uiso   1.00
Cu144  Cu    0.78645   0.16666   0.25000   0.00000  Uiso   1.00
Cu145  Cu    0.88022   0.16667   0.25000   0.00000  Uiso   1.00
H146   H     0.79150   0.03837   0.19543   0.00000  Uiso   1.00
H147   H     0.69220   0.20807   0.31388   0.00000  Uiso   1.00
H148   H     0.97444   0.12515   0.18622   0.00000  Uiso   1.00
H149   H     0.95986   0.11096   0.49629   0.00000  Uiso   1.00
H150   H     0.87140   0.11433   0.37553   0.00000  Uiso   1.00
H151   H     0.93859   0.20795   0.31405   0.00000  Uiso   1.00
H152   H     0.72803   0.12501   0.18628   0.00000  Uiso   1.00
H153   H     0.93092   0.10221   0.42051   0.00000  Uiso   1.00
H154   H     0.80893   0.18783   0.08837   0.00000  Uiso   1.00
H155   H     0.72105   0.19339   0.41191   0.00000  Uiso   1.00
H156   H     0.75260   0.18923   0.05547   0.00000  Uiso   1.00
H157   H     0.94421   0.13156   0.08748   0.00000  Uiso   1.00
H158   H     0.87479   0.03889   0.30480   0.00000  Uiso   1.00
N159   N     0.71598   0.16666   0.24998   0.00000  Uiso   1.00
N160   N     0.95069   0.16669   0.24999   0.00000  Uiso   1.00
O161   O     0.79375   0.22678   0.25000   0.00000  Uiso   1.00
O162   O     0.87294   0.22679   0.25000   0.00000  Uiso   1.00
O163   O     0.77441   0.16665   0.32549   0.00000  Uiso   1.00
O164   O     0.85360   0.16666   0.32549   0.00000  Uiso   1.00
O165   O     0.79373   0.10654   0.24999   0.00000  Uiso   1.00
O166   O     0.87292   0.10655   0.24999   0.00000  Uiso   1.00
O167   O     0.81306   0.16667   0.17451   0.00000  Uiso   1.00
O168   O     0.89225   0.16668   0.17451   0.00000  Uiso   1.00
C169   C     0.16668   0.57931   0.25005   0.00000  Uiso   1.00
C170   C     0.12450   0.49899   0.40745   0.00000  Uiso   1.00
C171   C     0.18994   0.64593   0.28149   0.00000  Uiso   1.00
C172   C     0.14042   0.49851   0.35009   0.00000  Uiso   1.00
C173   C     0.19037   0.35535   0.28058   0.00000  Uiso   1.00
C174   C     0.16657   0.37640   0.25003   0.00000  Uiso   1.00
C175   C     0.14271   0.35505   0.21957   0.00000  Uiso   1.00
C176   C     0.14318   0.64562   0.21870   0.00000  Uiso   1.00
C177   C     0.16666   0.62406   0.25004   0.00000  Uiso   1.00
C178   C     0.29857   0.52296   0.28551   0.00000  Uiso   1.00
C179   C     0.01483   0.52297   0.28548   0.00000  Uiso   1.00
C180   C     0.14489   0.49748   0.48962   0.00000  Uiso   1.00
C181   C     0.03475   0.47693   0.21458   0.00000  Uiso   1.00
C182   C     0.31849   0.47697   0.21456   0.00000  Uiso   1.00
C183   C     0.16663   0.42081   0.24997   0.00000  Uiso   1.00
C184   C     0.19289   0.49930   0.15003   0.00000  Uiso   1.00
C185   C     0.25964   0.46076   0.01580   0.00000  Uiso   1.00
C186   C     0.20760   0.49344   0.09358   0.00000  Uiso   1.00
C187   C     0.07911   0.51710   0.43332   0.00000  Uiso   1.00
C188   C     0.06590   0.52459   0.48656   0.00000  Uiso   1.00
C189   C     0.09852   0.51562   0.01442   0.00000  Uiso   1.00
C190   C     0.15601   0.48606   0.43635   0.00000  Uiso   1.00
C191   C     0.18044   0.48999   0.01600   0.00000  Uiso   1.00
C192   C     0.22431   0.46837   0.49025   0.00000  Uiso   1.00
C193   C     0.23192   0.45359   0.43979   0.00000  Uiso   1.00
C194   C     0.19799   0.46168   0.41353   0.00000  Uiso   1.00
C195   C     0.17385   0.50341   0.06727   0.00000  Uiso   1.00
C196   C     0.25114   0.47295   0.06744   0.00000  Uiso   1.00
Cl197  Cl    0.11606   0.62066   0.17578   0.00000  Uiso   1.00
Cl198  Cl    0.00913   0.54769   0.01814   0.00000  Uiso   1.00
Cl199  Cl    0.21657   0.62142   0.32486   0.00000  Uiso   1.00
Cu200  Cu    0.11978   0.49999   0.25000   0.00000  Uiso   1.00
Cu201  Cu    0.21355   0.50001   0.25000   0.00000  Uiso   1.00
H202   H     0.12483   0.37170   0.19543   0.00000  Uiso   1.00
H203   H     0.02553   0.54140   0.31388   0.00000  Uiso   1.00
H204   H     0.30777   0.45849   0.18622   0.00000  Uiso   1.00
H205   H     0.29319   0.44430   0.49629   0.00000  Uiso   1.00
H206   H     0.20473   0.44766   0.37553   0.00000  Uiso   1.00
H207   H     0.27192   0.54128   0.31405   0.00000  Uiso   1.00
H208   H     0.06137   0.45834   0.18628   0.00000  Uiso   1.00
H209   H     0.26426   0.43555   0.42051   0.00000  Uiso   1.00
H210   H     0.14226   0.52116   0.08837   0.00000  Uiso   1.00
H211   H     0.05438   0.52672   0.41191   0.00000  Uiso   1.00
H212   H     0.08593   0.52257   0.05547   0.00000  Uiso   1.00
H213   H     0.27755   0.46489   0.08748   0.00000  Uiso   1.00
H214   H     0.20812   0.37222   0.30480   0.00000  Uiso   1.00
N215   N     0.04931   0.49999   0.24998   0.00000  Uiso   1.00
N216   N     0.28402   0.50002   0.24999   0.00000  Uiso   1.00
O217   O     0.12708   0.56011   0.25000   0.00000  Uiso   1.00
O218   O     0.20627   0.56012   0.25000   0.00000  Uiso   1.00
O219   O     0.10775   0.49998   0.32549   0.00000  Uiso   1.00
O220   O     0.18694   0.49999   0.32549   0.00000  Uiso   1.00
O221   O     0.12706   0.43988   0.24999   0.00000  Uiso   1.00
O222   O     0.20625   0.43989   0.24999   0.00000  Uiso   1.00
O223   O     0.14640   0.50001   0.17451   0.00000  Uiso   1.00
O224   O     0.22559   0.50002   0.17451   0.00000  Uiso   1.00
C225   C     0.50001   0.57931   0.25005   0.00000  Uiso   1.00
C226   C     0.45784   0.49899   0.40745   0.00000  Uiso   1.00
C227   C     0.52328   0.64593   0.28149   0.00000  Uiso   1.00
C228   C     0.47376   0.49851   0.35009   0.00000  Uiso   1.00
C229   C     0.52370   0.35535   0.28058   0.00000  Uiso   1.00
C230   C     0.49990   0.37640   0.25003   0.00000  Uiso   1.00
C231   C     0.47604   0.35505   0.21957   0.00000  Uiso   1.00
C232   C     0.47651   0.64562   0.21870   0.00000  Uiso   1.00
C233   C     0.49999   0.62406   0.25004   0.00000  Uiso   1.00
C234   C     0.63190   0.52296   0.28551   0.00000  Uiso   1.00
C235   C     0.34816   0.52297   0.28548   0.00000  Uiso   1.00
C236   C     0.47822   0.49748   0.48962   0.00000  Uiso   1.00
C237   C     0.36808   0.47693   0.21458   0.00000  Uiso   1.00
C238   C     0.65182   0.47697   0.21456   0.00000  Uiso   1.00
C239   C     0.49997   0.42081   0.24997   0.00000  Uiso   1.00
C240   C     0.52622   0.49930   0.15003   0.00000  Uiso   1.00
C241   C     0.59297   0.46076   0.01580   0.00000  Uiso   1.00
C242   C     0.54093   0.49344   0.09358   0.00000  Uiso   1.00
C243   C     0.41245   0.51710   0.43332   0.00000  Uiso   1.00
C244   C     0.39923   0.52459   0.48656   0.00000  Uiso   1.00
C245   C     0.43186   0.51562   0.01442   0.00000  Uiso   1.00
C246   C     0.48935   0.48606   0.43635   0.00000  Uiso   1.00
C247   C     0.51377   0.48999   0.01600   0.00000  Uiso   1.00
C248   C     0.55764   0.46837   0.49025   0.00000  Uiso   1.00
C249   C     0.56525   0.45359   0.43979   0.00000  Uiso   1.00
C250   C     0.53132   0.46168   0.41353   0.00000  Uiso   1.00
C251   C     0.50718   0.50341   0.06727   0.00000  Uiso   1.00
C252   C     0.58447   0.47295   0.06744   0.00000  Uiso   1.00
Cl253  Cl    0.44939   0.62066   0.17578   0.00000  Uiso   1.00
Cl254  Cl    0.34246   0.54769   0.01814   0.00000  Uiso   1.00
Cl255  Cl    0.54991   0.62142   0.32486   0.00000  Uiso   1.00
Cu256  Cu    0.45311   0.49999   0.25000   0.00000  Uiso   1.00
Cu257  Cu    0.54689   0.50001   0.25000   0.00000  Uiso   1.00
H258   H     0.45817   0.37170   0.19543   0.00000  Uiso   1.00
H259   H     0.35886   0.54140   0.31388   0.00000  Uiso   1.00
H260   H     0.64110   0.45849   0.18622   0.00000  Uiso   1.00
H261   H     0.62652   0.44430   0.49629   0.00000  Uiso   1.00
H262   H     0.53806   0.44766   0.37553   0.00000  Uiso   1.00
H263   H     0.60525   0.54128   0.31405   0.00000  Uiso   1.00
H264   H     0.39470   0.45834   0.18628   0.00000  Uiso   1.00
H265   H     0.59759   0.43555   0.42051   0.00000  Uiso   1.00
H266   H     0.47560   0.52116   0.08837   0.00000  Uiso   1.00
H267   H     0.38772   0.52672   0.41191   0.00000  Uiso   1.00
H268   H     0.41926   0.52257   0.05547   0.00000  Uiso   1.00
H269   H     0.61088   0.46489   0.08748   0.00000  Uiso   1.00
H270   H     0.54146   0.37222   0.30480   0.00000  Uiso   1.00
N271   N     0.38265   0.49999   0.24998   0.00000  Uiso   1.00
N272   N     0.61735   0.50002   0.24999   0.00000  Uiso   1.00
O273   O     0.46042   0.56011   0.25000   0.00000  Uiso   1.00
O274   O     0.53961   0.56012   0.25000   0.00000  Uiso   1.00
O275   O     0.44108   0.49998   0.32549   0.00000  Uiso   1.00
O276   O     0.52027   0.49999   0.32549   0.00000  Uiso   1.00
O277   O     0.46039   0.43988   0.24999   0.00000  Uiso   1.00
O278   O     0.53958   0.43989   0.24999   0.00000  Uiso   1.00
O279   O     0.47973   0.50001   0.17451   0.00000  Uiso   1.00
O280   O     0.55892   0.50002   0.17451   0.00000  Uiso   1.00
C281   C     0.83335   0.57931   0.25005   0.00000  Uiso   1.00
C282   C     0.79117   0.49899   0.40745   0.00000  Uiso   1.00
C283   C     0.85661   0.64593   0.28149   0.00000  Uiso   1.00
C284   C     0.80709   0.49851   0.35009   0.00000  Uiso   1.00
C285   C     0.85704   0.35535   0.28058   0.00000  Uiso   1.00
C286   C     0.83324   0.37640   0.25003   0.00000  Uiso   1.00
C287   C     0.80937   0.35505   0.21957   0.00000  Uiso   1.00
C288   C     0.80985   0.64562   0.21870   0.00000  Uiso   1.00
C289   C     0.83332   0.62406   0.25004   0.00000  Uiso   1.00
C290   C     0.96523   0.52296   0.28551   0.00000  Uiso   1.00
C291   C     0.68150   0.52297   0.28548   0.00000  Uiso   1.00
C292   C     0.81155   0.49748   0.48962   0.00000  Uiso   1.00
C293   C     0.70142   0.47693   0.21458   0.00000  Uiso   1.00
C294   C     0.98516   0.47697   0.21456   0.00000  Uiso   1.00
C295   C     0.83330   0.42081   0.24997   0.00000  Uiso   1.00
C296   C     0.85955   0.49930   0.15003   0.00000  Uiso   1.00
C297   C     0.92631   0.46076   0.01580   0.00000  Uiso   1.00
C298   C     0.87427   0.49344   0.09358   0.00000  Uiso   1.00
C299   C     0.74578   0.51710   0.43332   0.00000  Uiso   1.00
C300   C     0.73257   0.52459   0.48656   0.00000  Uiso   1.00
C301   C     0.76519   0.51562   0.01442   0.00000  Uiso   1.00
C302   C     0.82268   0.48606   0.43635   0.00000  Uiso   1.00
C303   C     0.84710   0.48999   0.01600   0.00000  Uiso   1.00
C304   C     0.89098   0.46837   0.49025   0.00000  Uiso   1.00
C305   C     0.89859   0.45359   0.43979   0.00000  Uiso   1.00
C306   C     0.86465   0.46168   0.41353   0.00000  Uiso   1.00
C307   C     0.84052   0.50341   0.06727   0.00000  Uiso   1.00
C308   C     0.91780   0.47295   0.06744   0.00000  Uiso   1.00
Cl309  Cl    0.78273   0.62066   0.17578   0.00000  Uiso   1.00
Cl310  Cl    0.67579   0.54769   0.01814   0.00000  Uiso   1.00
Cl311  Cl    0.88324   0.62142   0.32486   0.00000  Uiso   1.00
Cu312  Cu    0.78645   0.49999   0.25000   0.00000  Uiso   1.00
Cu313  Cu    0.88022   0.50001   0.25000   0.00000  Uiso   1.00
H314   H     0.79150   0.37170   0.19543   0.00000  Uiso   1.00
H315   H     0.69220   0.54140   0.31388   0.00000  Uiso   1.00
H316   H     0.97444   0.45849   0.18622   0.00000  Uiso   1.00
H317   H     0.95986   0.44430   0.49629   0.00000  Uiso   1.00
H318   H     0.87140   0.44766   0.37553   0.00000  Uiso   1.00
H319   H     0.93859   0.54128   0.31405   0.00000  Uiso   1.00
H320   H     0.72803   0.45834   0.18628   0.00000  Uiso   1.00
H321   H     0.93092   0.43555   0.42051   0.00000  Uiso   1.00
H322   H     0.80893   0.52116   0.08837   0.00000  Uiso   1.00
H323   H     0.72105   0.52672   0.41191   0.00000  Uiso   1.00
H324   H     0.75260   0.52257   0.05547   0.00000  Uiso   1.00
H325   H     0.94421   0.46489   0.08748   0.00000  Uiso   1.00
H326   H     0.87479   0.37222   0.30480   0.00000  Uiso   1.00
N327   N     0.71598   0.49999   0.24998   0.00000  Uiso   1.00
N328   N     0.95069   0.50002   0.24999   0.00000  Uiso   1.00
O329   O     0.79375   0.56011   0.25000   0.00000  Uiso   1.00
O330   O     0.87294   0.56012   0.25000   0.00000  Uiso   1.00
O331   O     0.77441   0.49998   0.32549   0.00000  Uiso   1.00
O332   O     0.85360   0.49999   0.32549   0.00000  Uiso   1.00
O333   O     0.79373   0.43988   0.24999   0.00000  Uiso   1.00
O334   O     0.87292   0.43989   0.24999   0.00000  Uiso   1.00
O335   O     0.81306   0.50001   0.17451   0.00000  Uiso   1.00
O336   O     0.89225   0.50002   0.17451   0.00000  Uiso   1.00
C337   C     0.16668   0.91264   0.25005   0.00000  Uiso   1.00
C338   C     0.12450   0.83232   0.40745   0.00000  Uiso   1.00
C339   C     0.18994   0.97926   0.28149   0.00000  Uiso   1.00
C340   C     0.14042   0.83185   0.35009   0.00000  Uiso   1.00
C341   C     0.19037   0.68868   0.28058   0.00000  Uiso   1.00
C342   C     0.16657   0.70973   0.25003   0.00000  Uiso   1.00
C343   C     0.14271   0.68839   0.21957   0.00000  Uiso   1.00
C344   C     0.14318   0.97895   0.21870   0.00000  Uiso   1.00
C345   C     0.16666   0.95739   0.25004   0.00000  Uiso   1.00
C346   C     0.29857   0.85629   0.28551   0.00000  Uiso   1.00
C347   C     0.01483   0.85630   0.28548   0.00000  Uiso   1.00
C348   C     0.14489   0.83082   0.48962   0.00000  Uiso   1.00
C349   C     0.03475   0.81026   0.21458   0.00000  Uiso   1.00
C350   C     0.31849   0.81030   0.21456   0.00000  Uiso   1.00
C351   C     0.16663   0.75415   0.24997   0.00000  Uiso   1.00
C352   C     0.19289   0.83263   0.15003   0.00000  Uiso   1.00
C353   C     0.25964   0.79409   0.01580   0.00000  Uiso   1.00
C354   C     0.20760   0.82677   0.09358   0.00000  Uiso   1.00
C355   C     0.07911   0.85044   0.43332   0.00000  Uiso   1.00
C356   C     0.06590   0.85793   0.48656   0.00000  Uiso   1.00
C357   C     0.09852   0.84895   0.01442   0.00000  Uiso   1.00
C358   C     0.15601   0.81939   0.43635   0.00000  Uiso   1.00
C359   C     0.18044   0.82333   0.01600   0.00000  Uiso   1.00
C360   C     0.22431   0.80170   0.49025   0.00000  Uiso   1.00
C361   C     0.23192   0.78692   0.43979   0.00000  Uiso   1.00
C362   C     0.19799   0.79502   0.41353   0.00000  Uiso   1.00
C363   C     0.17385   0.83674   0.06727   0.00000  Uiso   1.00
C364   C     0.25114   0.80628   0.06744   0.00000  Uiso   1.00
Cl365  Cl    0.11606   0.95399   0.17578   0.00000  Uiso   1.00
Cl366  Cl    0.00913   0.88102   0.01814   0.00000  Uiso   1.00
Cl367  Cl    0.21657   0.95475   0.32486   0.00000  Uiso   1.00
Cu368  Cu    0.11978   0.83333   0.25000   0.00000  Uiso   1.00
Cu369  Cu    0.21355   0.83334   0.25000   0.00000  Uiso   1.00
H370   H     0.12483   0.70503   0.19543   0.00000  Uiso   1.00
H371   H     0.02553   0.87474   0.31388   0.00000  Uiso   1.00
H372   H     0.30777   0.79182   0.18622   0.00000  Uiso   1.00
H373   H     0.29319   0.77763   0.49629   0.00000  Uiso   1.00
H374   H     0.20473   0.78099   0.37553   0.00000  Uiso   1.00
H375   H     0.27192   0.87462   0.31405   0.00000  Uiso   1.00
H376   H     0.06137   0.79168   0.18628   0.00000  Uiso   1.00
H377   H     0.26426   0.76888   0.42051   0.00000  Uiso   1.00
H378   H     0.14226   0.85450   0.08837   0.00000  Uiso   1.00
H379   H     0.05438   0.86006   0.41191   0.00000  Uiso   1.00
H380   H     0.08593   0.85590   0.05547   0.00000  Uiso   1.00
H381   H     0.27755   0.79823   0.08748   0.00000  Uiso   1.00
H382   H     0.20812   0.70555   0.30480   0.00000  Uiso   1.00
N383   N     0.04931   0.83332   0.24998   0.00000  Uiso   1.00
N384   N     0.28402   0.83335   0.24999   0.00000  Uiso   1.00
O385   O     0.12708   0.89345   0.25000   0.00000  Uiso   1.00
O386   O     0.20627   0.89346   0.25000   0.00000  Uiso   1.00
O387   O     0.10775   0.83332   0.32549   0.00000  Uiso   1.00
O388   O     0.18694   0.83333   0.32549   0.00000  Uiso   1.00
O389   O     0.12706   0.77321   0.24999   0.00000  Uiso   1.00
O390   O     0.20625   0.77322   0.24999   0.00000  Uiso   1.00
O391   O     0.14640   0.83334   0.17451   0.00000  Uiso   1.00
O392   O     0.22559   0.83335   0.17451   0.00000  Uiso   1.00
C393   C     0.50001   0.91264   0.25005   0.00000  Uiso   1.00
C394   C     0.45784   0.83232   0.40745   0.00000  Uiso   1.00
C395   C     0.52328   0.97926   0.28149   0.00000  Uiso   1.00
C396   C     0.47376   0.83185   0.35009   0.00000  Uiso   1.00
C397   C     0.52370   0.68868   0.28058   0.00000  Uiso   1.00
C398   C     0.49990   0.70973   0.25003   0.00000  Uiso   1.00
C399   C     0.47604   0.68839   0.21957   0.00000  Uiso   1.00
C400   C     0.47651   0.97895   0.21870   0.00000  Uiso   1.00
C401   C     0.49999   0.95739   0.25004   0.00000  Uiso   1.00
C402   C     0.63190   0.85629   0.28551   0.00000  Uiso   1.00
C403   C     0.34816   0.85630   0.28548   0.00000  Uiso   1.00
C404   C     0.47822   0.83082   0.48962   0.00000  Uiso   1.00
C405   C     0.36808   0.81026   0.21458   0.00000  Uiso   1.00
C406   C     0.65182   0.81030   0.21456   0.00000  Uiso   1.00
C407   C     0.49997   0.75415   0.24997   0.00000  Uiso   1.00
C408   C     0.52622   0.83263   0.15003   0.00000  Uiso   1.00
C409   C     0.59297   0.79409   0.01580   0.00000  Uiso   1.00
C410   C     0.54093   0.82677   0.09358   0.00000  Uiso   1.00
C411   C     0.41245   0.85044   0.43332   0.00000  Uiso   1.00
C412   C     0.39923   0.85793   0.48656   0.00000  Uiso   1.00
C413   C     0.43186   0.84895   0.01442   0.00000  Uiso   1.00
C414   C     0.48935   0.81939   0.43635   0.00000  Uiso   1.00
C415   C     0.51377   0.82333   0.01600   0.00000  Uiso   1.00
C416   C     0.55764   0.80170   0.49025   0.00000  Uiso   1.00
C417   C     0.56525   0.78692   0.43979   0.00000  Uiso   1.00
C418   C     0.53132   0.79502   0.41353   0.00000  Uiso   1.00
C419   C     0.50718   0.83674   0.06727   0.00000  Uiso   1.00
C420   C     0.58447   0.80628   0.06744   0.00000  Uiso   1.00
Cl421  Cl    0.44939   0.95399   0.17578   0.00000  Uiso   1.00
Cl422  Cl    0.34246   0.88102   0.01814   0.00000  Uiso   1.00
Cl423  Cl    0.54991   0.95475   0.32486   0.00000  Uiso   1.00
Cu424  Cu    0.45311   0.83333   0.25000   0.00000  Uiso   1.00
Cu425  Cu    0.54689   0.83334   0.25000   0.00000  Uiso   1.00
H426   H     0.45817   0.70503   0.19543   0.00000  Uiso   1.00
H427   H     0.35886   0.87474   0.31388   0.00000  Uiso   1.00
H428   H     0.64110   0.79182   0.18622   0.00000  Uiso   1.00
H429   H     0.62652   0.77763   0.49629   0.00000  Uiso   1.00
H430   H     0.53806   0.78099   0.37553   0.00000  Uiso   1.00
H431   H     0.60525   0.87462   0.31405   0.00000  Uiso   1.00
H432   H     0.39470   0.79168   0.18628   0.00000  Uiso   1.00
H433   H     0.59759   0.76888   0.42051   0.00000  Uiso   1.00
H434   H     0.47560   0.85450   0.08837   0.00000  Uiso   1.00
H435   H     0.38772   0.86006   0.41191   0.00000  Uiso   1.00
H436   H     0.41926   0.85590   0.05547   0.00000  Uiso   1.00
H437   H     0.61088   0.79823   0.08748   0.00000  Uiso   1.00
H438   H     0.54146   0.70555   0.30480   0.00000  Uiso   1.00
N439   N     0.38265   0.83332   0.24998   0.00000  Uiso   1.00
N440   N     0.61735   0.83335   0.24999   0.00000  Uiso   1.00
O441   O     0.46042   0.89345   0.25000   0.00000  Uiso   1.00
O442   O     0.53961   0.89346   0.25000   0.00000  Uiso   1.00
O443   O     0.44108   0.83332   0.32549   0.00000  Uiso   1.00
O444   O     0.52027   0.83333   0.32549   0.00000  Uiso   1.00
O445   O     0.46039   0.77321   0.24999   0.00000  Uiso   1.00
O446   O     0.53958   0.77322   0.24999   0.00000  Uiso   1.00
O447   O     0.47973   0.83334   0.17451   0.00000  Uiso   1.00
O448   O     0.55892   0.83335   0.17451   0.00000  Uiso   1.00
C449   C     0.83335   0.91264   0.25005   0.00000  Uiso   1.00
C450   C     0.79117   0.83232   0.40745   0.00000  Uiso   1.00
C451   C     0.85661   0.97926   0.28149   0.00000  Uiso   1.00
C452   C     0.80709   0.83185   0.35009   0.00000  Uiso   1.00
C453   C     0.85704   0.68868   0.28058   0.00000  Uiso   1.00
C454   C     0.83324   0.70973   0.25003   0.00000  Uiso   1.00
C455   C     0.80937   0.68839   0.21957   0.00000  Uiso   1.00
C456   C     0.80985   0.97895   0.21870   0.00000  Uiso   1.00
C457   C     0.83332   0.95739   0.25004   0.00000  Uiso   1.00
C458   C     0.96523   0.85629   0.28551   0.00000  Uiso   1.00
C459   C     0.68150   0.85630   0.28548   0.00000  Uiso   1.00
C460   C     0.81155   0.83082   0.48962   0.00000  Uiso   1.00
C461   C     0.70142   0.81026   0.21458   0.00000  Uiso   1.00
C462   C     0.98516   0.81030   0.21456   0.00000  Uiso   1.00
C463   C     0.83330   0.75415   0.24997   0.00000  Uiso   1.00
C464   C     0.85955   0.83263   0.15003   0.00000  Uiso   1.00
C465   C     0.92631   0.79409   0.01580   0.00000  Uiso   1.00
C466   C     0.87427   0.82677   0.09358   0.00000  Uiso   1.00
C467   C     0.74578   0.85044   0.43332   0.00000  Uiso   1.00
C468   C     0.73257   0.85793   0.48656   0.00000  Uiso   1.00
C469   C     0.76519   0.84895   0.01442   0.00000  Uiso   1.00
C470   C     0.82268   0.81939   0.43635   0.00000  Uiso   1.00
C471   C     0.84710   0.82333   0.01600   0.00000  Uiso   1.00
C472   C     0.89098   0.80170   0.49025   0.00000  Uiso   1.00
C473   C     0.89859   0.78692   0.43979   0.00000  Uiso   1.00
C474   C     0.86465   0.79502   0.41353   0.00000  Uiso   1.00
C475   C     0.84052   0.83674   0.06727   0.00000  Uiso   1.00
C476   C     0.91780   0.80628   0.06744   0.00000  Uiso   1.00
Cl477  Cl    0.78273   0.95399   0.17578   0.00000  Uiso   1.00
Cl478  Cl    0.67579   0.88102   0.01814   0.00000  Uiso   1.00
Cl479  Cl    0.88324   0.95475   0.32486   0.00000  Uiso   1.00
Cu480  Cu    0.78645   0.83333   0.25000   0.00000  Uiso   1.00
Cu481  Cu    0.88022   0.83334   0.25000   0.00000  Uiso   1.00
H482   H     0.79150   0.70503   0.19543   0.00000  Uiso   1.00
H483   H     0.69220   0.87474   0.31388   0.00000  Uiso   1.00
H484   H     0.97444   0.79182   0.18622   0.00000  Uiso   1.00
H485   H     0.95986   0.77763   0.49629   0.00000  Uiso   1.00
H486   H     0.87140   0.78099   0.37553   0.00000  Uiso   1.00
H487   H     0.93859   0.87462   0.31405   0.00000  Uiso   1.00
H488   H     0.72803   0.79168   0.18628   0.00000  Uiso   1.00
H489   H     0.93092   0.76888   0.42051   0.00000  Uiso   1.00
H490   H     0.80893   0.85450   0.08837   0.00000  Uiso   1.00
H491   H     0.72105   0.86006   0.41191   0.00000  Uiso   1.00
H492   H     0.75260   0.85590   0.05547   0.00000  Uiso   1.00
H493   H     0.94421   0.79823   0.08748   0.00000  Uiso   1.00
H494   H     0.87479   0.70555   0.30480   0.00000  Uiso   1.00
N495   N     0.71598   0.83332   0.24998   0.00000  Uiso   1.00
N496   N     0.95069   0.83335   0.24999   0.00000  Uiso   1.00
O497   O     0.79375   0.89345   0.25000   0.00000  Uiso   1.00
O498   O     0.87294   0.89346   0.25000   0.00000  Uiso   1.00
O499   O     0.77441   0.83332   0.32549   0.00000  Uiso   1.00
O500   O     0.85360   0.83333   0.32549   0.00000  Uiso   1.00
O501   O     0.79373   0.77321   0.24999   0.00000  Uiso   1.00
O502   O     0.87292   0.77322   0.24999   0.00000  Uiso   1.00
O503   O     0.81306   0.83334   0.17451   0.00000  Uiso   1.00
O504   O     0.89225   0.83335   0.17451   0.00000  Uiso   1.00
C505   C     0.16668   0.24598   0.75005   0.00000  Uiso   1.00
C506   C     0.12450   0.16566   0.90745   0.00000  Uiso   1.00
C507   C     0.18994   0.31259   0.78149   0.00000  Uiso   1.00
C508   C     0.14042   0.16518   0.85009   0.00000  Uiso   1.00
C509   C     0.19037   0.02201   0.78058   0.00000  Uiso   1.00
C510   C     0.16657   0.04306   0.75003   0.00000  Uiso   1.00
C511   C     0.14271   0.02172   0.71957   0.00000  Uiso   1.00
C512   C     0.14318   0.31228   0.71870   0.00000  Uiso   1.00
C513   C     0.16666   0.29073   0.75004   0.00000  Uiso   1.00
C514   C     0.29857   0.18962   0.78551   0.00000  Uiso   1.00
C515   C     0.01483   0.18964   0.78548   0.00000  Uiso   1.00
C516   C     0.14489   0.16415   0.98962   0.00000  Uiso   1.00
C517   C     0.03475   0.14359   0.71458   0.00000  Uiso   1.00
C518   C     0.31849   0.14364   0.71456   0.00000  Uiso   1.00
C519   C     0.16663   0.08748   0.74997   0.00000  Uiso   1.00
C520   C     0.19289   0.16597   0.65003   0.00000  Uiso   1.00
C521   C     0.25964   0.12742   0.51580   0.00000  Uiso   1.00
C522   C     0.20760   0.16010   0.59358   0.00000  Uiso   1.00
C523   C     0.07911   0.18377   0.93332   0.00000  Uiso   1.00
C524   C     0.06590   0.19126   0.98656   0.00000  Uiso   1.00
C525   C     0.09852   0.18229   0.51442   0.00000  Uiso   1.00
C526   C     0.15601   0.15273   0.93635   0.00000  Uiso   1.00
C527   C     0.18044   0.15666   0.51600   0.00000  Uiso   1.00
C528   C     0.22431   0.13503   0.99025   0.00000  Uiso   1.00
C529   C     0.23192   0.12025   0.93979   0.00000  Uiso   1.00
C530   C     0.19799   0.12835   0.91353   0.00000  Uiso   1.00
C531   C     0.17385   0.17007   0.56727   0.00000  Uiso   1.00
C532   C     0.25114   0.13961   0.56744   0.00000  Uiso   1.00
Cl533  Cl    0.11606   0.28733   0.67578   0.00000  Uiso   1.00
Cl534  Cl    0.00913   0.21435   0.51814   0.00000  Uiso   1.00
Cl535  Cl    0.21657   0.28809   0.82486   0.00000  Uiso   1.00
Cu536  Cu    0.11978   0.16666   0.75000   0.00000  Uiso   1.00
Cu537  Cu    0.21355   0.16667   0.75000   0.00000  Uiso   1.00
H538   H     0.12483   0.03837   0.69543   0.00000  Uiso   1.00
H539   H     0.02553   0.20807   0.81388   0.00000  Uiso   1.00
H540   H     0.30777   0.12515   0.68622   0.00000  Uiso   1.00
H541   H     0.29319   0.11096   0.99629   0.00000  Uiso   1.00
H542   H     0.20473   0.11433   0.87553   0.00000  Uiso   1.00
H543   H     0.27192   0.20795   0.81405   0.00000  Uiso   1.00
H544   H     0.06137   0.12501   0.68628   0.00000  Uiso   1.00
H545   H     0.26426   0.10221   0.92051   0.00000  Uiso   1.00
H546   H     0.14226   0.18783   0.58837   0.00000  Uiso   1.00
H547   H     0.05438   0.19339   0.91191   0.00000  Uiso   1.00
H548   H     0.08593   0.18923   0.55547   0.00000  Uiso   1.00
H549   H     0.27755   0.13156   0.58748   0.00000  Uiso   1.00
H550   H     0.20812   0.03889   0.80480   0.00000  Uiso   1.00
N551   N     0.04931   0.16666   0.74998   0.00000  Uiso   1.00
N552   N     0.28402   0.16669   0.74999   0.00000  Uiso   1.00
O553   O     0.12708   0.22678   0.75000   0.00000  Uiso   1.00
O554   O     0.20627   0.22679   0.75000   0.00000  Uiso   1.00
O555   O     0.10775   0.16665   0.82549   0.00000  Uiso   1.00
O556   O     0.18694   0.16666   0.82549   0.00000  Uiso   1.00
O557   O     0.12706   0.10654   0.74999   0.00000  Uiso   1.00
O558   O     0.20625   0.10655   0.74999   0.00000  Uiso   1.00
O559   O     0.14640   0.16667   0.67451   0.00000  Uiso   1.00
O560   O     0.22559   0.16668   0.67451   0.00000  Uiso   1.00
C561   C     0.50001   0.24598   0.75005   0.00000  Uiso   1.00
C562   C     0.45784   0.16566   0.90745   0.00000  Uiso   1.00
C563   C     0.52328   0.31259   0.78149   0.00000  Uiso   1.00
C564   C     0.47376   0.16518   0.85009   0.00000  Uiso   1.00
C565   C     0.52370   0.02201   0.78058   0.00000  Uiso   1.00
C566   C     0.49990   0.04306   0.75003   0.00000  Uiso   1.00
C567   C     0.47604   0.02172   0.71957   0.00000  Uiso   1.00
C568   C     0.47651   0.31228   0.71870   0.00000  Uiso   1.00
C569   C     0.49999   0.29073   0.75004   0.00000  Uiso   1.00
C570   C     0.63190   0.18962   0.78551   0.00000  Uiso   1.00
C571   C     0.34816   0.18964   0.78548   0.00000  Uiso   1.00
C572   C     0.47822   0.16415   0.98962   0.00000  Uiso   1.00
C573   C     0.36808   0.14359   0.71458   0.00000  Uiso   1.00
C574   C     0.65182   0.14364   0.71456   0.00000  Uiso   1.00
C575   C     0.49997   0.08748   0.74997   0.00000  Uiso   1.00
C576   C     0.52622   0.16597   0.65003   0.00000  Uiso   1.00
C577   C     0.59297   0.12742   0.51580   0.00000  Uiso   1.00
C578   C     0.54093   0.16010   0.59358   0.00000  Uiso   1.00
C579   C     0.41245   0.18377   0.93332   0.00000  Uiso   1.00
C580   C     0.39923   0.19126   0.98656   0.00000  Uiso   1.00
C581   C     0.43186   0.18229   0.51442   0.00000  Uiso   1.00
C582   C     0.48935   0.15273   0.93635   0.00000  Uiso   1.00
C583   C     0.51377   0.15666   0.51600   0.00000  Uiso   1.00
C584   C     0.55764   0.13503   0.99025   0.00000  Uiso   1.00
C585   C     0.56525   0.12025   0.93979   0.00000  Uiso   1.00
C586   C     0.53132   0.12835   0.91353   0.00000  Uiso   1.00
C587   C     0.50718   0.17007   0.56727   0.00000  Uiso   1.00
C588   C     0.58447   0.13961   0.56744   0.00000  Uiso   1.00
Cl589  Cl    0.44939   0.28733   0.67578   0.00000  Uiso   1.00
Cl590  Cl    0.34246   0.21435   0.51814   0.00000  Uiso   1.00
Cl591  Cl    0.54991   0.28809   0.82486   0.00000  Uiso   1.00
Cu592  Cu    0.45311   0.16666   0.75000   0.00000  Uiso   1.00
Cu593  Cu    0.54689   0.16667   0.75000   0.00000  Uiso   1.00
H594   H     0.45817   0.03837   0.69543   0.00000  Uiso   1.00
H595   H     0.35886   0.20807   0.81388   0.00000  Uiso   1.00
H596   H     0.64110   0.12515   0.68622   0.00000  Uiso   1.00
H597   H     0.62652   0.11096   0.99629   0.00000  Uiso   1.00
H598   H     0.53806   0.11433   0.87553   0.00000  Uiso   1.00
H599   H     0.60525   0.20795   0.81405   0.00000  Uiso   1.00
H600   H     0.39470   0.12501   0.68628   0.00000  Uiso   1.00
H601   H     0.59759   0.10221   0.92051   0.00000  Uiso   1.00
H602   H     0.47560   0.18783   0.58837   0.00000  Uiso   1.00
H603   H     0.38772   0.19339   0.91191   0.00000  Uiso   1.00
H604   H     0.41926   0.18923   0.55547   0.00000  Uiso   1.00
H605   H     0.61088   0.13156   0.58748   0.00000  Uiso   1.00
H606   H     0.54146   0.03889   0.80480   0.00000  Uiso   1.00
N607   N     0.38265   0.16666   0.74998   0.00000  Uiso   1.00
N608   N     0.61735   0.16669   0.74999   0.00000  Uiso   1.00
O609   O     0.46042   0.22678   0.75000   0.00000  Uiso   1.00
O610   O     0.53961   0.22679   0.75000   0.00000  Uiso   1.00
O611   O     0.44108   0.16665   0.82549   0.00000  Uiso   1.00
O612   O     0.52027   0.16666   0.82549   0.00000  Uiso   1.00
O613   O     0.46039   0.10654   0.74999   0.00000  Uiso   1.00
O614   O     0.53958   0.10655   0.74999   0.00000  Uiso   1.00
O615   O     0.47973   0.16667   0.67451   0.00000  Uiso   1.00
O616   O     0.55892   0.16668   0.67451   0.00000  Uiso   1.00
C617   C     0.83335   0.24598   0.75005   0.00000  Uiso   1.00
C618   C     0.79117   0.16566   0.90745   0.00000  Uiso   1.00
C619   C     0.85661   0.31259   0.78149   0.00000  Uiso   1.00
C620   C     0.80709   0.16518   0.85009   0.00000  Uiso   1.00
C621   C     0.85704   0.02201   0.78058   0.00000  Uiso   1.00
C622   C     0.83324   0.04306   0.75003   0.00000  Uiso   1.00
C623   C     0.80937   0.02172   0.71957   0.00000  Uiso   1.00
C624   C     0.80985   0.31228   0.71870   0.00000  Uiso   1.00
C625   C     0.83332   0.29073   0.75004   0.00000  Uiso   1.00
C626   C     0.96523   0.18962   0.78551   0.00000  Uiso   1.00
C627   C     0.68150   0.18964   0.78548   0.00000  Uiso   1.00
C628   C     0.81155   0.16415   0.98962   0.00000  Uiso   1.00
C629   C     0.70142   0.14359   0.71458   0.00000  Uiso   1.00
C630   C     0.98516   0.14364   0.71456   0.00000  Uiso   1.00
C631   C     0.83330   0.08748   0.74997   0.00000  Uiso   1.00
C632   C     0.85955   0.16597   0.65003   0.00000  Uiso   1.00
C633   C     0.92631   0.12742   0.51580   0.00000  Uiso   1.00
C634   C     0.87427   0.16010   0.59358   0.00000  Uiso   1.00
C635   C     0.74578   0.18377   0.93332   0.00000  Uiso   1.00
C636   C     0.73257   0.19126   0.98656   0.00000  Uiso   1.00
C637   C     0.76519   0.18229   0.51442   0.00000  Uiso   1.00
C638   C     0.82268   0.15273   0.93635   0.00000  Uiso   1.00
C639   C     0.84710   0.15666   0.51600   0.00000  Uiso   1.00
C640   C     0.89098   0.13503   0.99025   0.00000  Uiso   1.00
C641   C     0.89859   0.12025   0.93979   0.00000  Uiso   1.00
C642   C     0.86465   0.12835   0.91353   0.00000  Uiso   1.00
C643   C     0.84052   0.17007   0.56727   0.00000  Uiso   1.00
C644   C     0.91780   0.13961   0.56744   0.00000  Uiso   1.00
Cl645  Cl    0.78273   0.28733   0.67578   0.00000  Uiso   1.00
Cl646  Cl    0.67579   0.21435   0.51814   0.00000  Uiso   1.00
Cl647  Cl    0.88324   0.28809   0.82486   0.00000  Uiso   1.00
Cu648  Cu    0.78645   0.16666   0.75000   0.00000  Uiso   1.00
Cu649  Cu    0.88022   0.16667   0.75000   0.00000  Uiso   1.00
H650   H     0.79150   0.03837   0.69543   0.00000  Uiso   1.00
H651   H     0.69220   0.20807   0.81388   0.00000  Uiso   1.00
H652   H     0.97444   0.12515   0.68622   0.00000  Uiso   1.00
H653   H     0.95986   0.11096   0.99629   0.00000  Uiso   1.00
H654   H     0.87140   0.11433   0.87553   0.00000  Uiso   1.00
H655   H     0.93859   0.20795   0.81405   0.00000  Uiso   1.00
H656   H     0.72803   0.12501   0.68628   0.00000  Uiso   1.00
H657   H     0.93092   0.10221   0.92051   0.00000  Uiso   1.00
H658   H     0.80893   0.18783   0.58837   0.00000  Uiso   1.00
H659   H     0.72105   0.19339   0.91191   0.00000  Uiso   1.00
H660   H     0.75260   0.18923   0.55547   0.00000  Uiso   1.00
H661   H     0.94421   0.13156   0.58748   0.00000  Uiso   1.00
H662   H     0.87479   0.03889   0.80480   0.00000  Uiso   1.00
N663   N     0.71598   0.16666   0.74998   0.00000  Uiso   1.00
N664   N     0.95069   0.16669   0.74999   0.00000  Uiso   1.00
O665   O     0.79375   0.22678   0.75000   0.00000  Uiso   1.00
O666   O     0.87294   0.22679   0.75000   0.00000  Uiso   1.00
O667   O     0.77441   0.16665   0.82549   0.00000  Uiso   1.00
O668   O     0.85360   0.16666   0.82549   0.00000  Uiso   1.00
O669   O     0.79373   0.10654   0.74999   0.00000  Uiso   1.00
O670   O     0.87292   0.10655   0.74999   0.00000  Uiso   1.00
O671   O     0.81306   0.16667   0.67451   0.00000  Uiso   1.00
O672   O     0.89225   0.16668   0.67451   0.00000  Uiso   1.00
C673   C     0.16668   0.57931   0.75005   0.00000  Uiso   1.00
C674   C     0.12450   0.49899   0.90745   0.00000  Uiso   1.00
C675   C     0.18994   0.64593   0.78149   0.00000  Uiso   1.00
C676   C     0.14042   0.49851   0.85009   0.00000  Uiso   1.00
C677   C     0.19037   0.35535   0.78058   0.00000  Uiso   1.00
C678   C     0.16657   0.37640   0.75003   0.00000  Uiso   1.00
C679   C     0.14271   0.35505   0.71957   0.00000  Uiso   1.00
C680   C     0.14318   0.64562   0.71870   0.00000  Uiso   1.00
C681   C     0.16666   0.62406   0.75004   0.00000  Uiso   1.00
C682   C     0.29857   0.52296   0.78551   0.00000  Uiso   1.00
C683   C     0.01483   0.52297   0.78548   0.00000  Uiso   1.00
C684   C     0.14489   0.49748   0.98962   0.00000  Uiso   1.00
C685   C     0.03475   0.47693   0.71458   0.00000  Uiso   1.00
C686   C     0.31849   0.47697   0.71456   0.00000  Uiso   1.00
C687   C     0.16663   0.42081   0.74997   0.00000  Uiso   1.00
C688   C     0.19289   0.49930   0.65003   0.00000  Uiso   1.00
C689   C     0.25964   0.46076   0.51580   0.00000  Uiso   1.00
C690   C     0.20760   0.49344   0.59358   0.00000  Uiso   1.00
C691   C     0.07911   0.51710   0.93332   0.00000  Uiso   1.00
C692   C     0.06590   0.52459   0.98656   0.00000  Uiso   1.00
C693   C     0.09852   0.51562   0.51442   0.00000  Uiso   1.00
C694   C     0.15601   0.48606   0.93635   0.00000  Uiso   1.00
C695   C     0.18044   0.48999   0.51600   0.00000  Uiso   1.00
C696   C     0.22431   0.46837   0.99025   0.00000  Uiso   1.00
C697   C     0.23192   0.45359   0.93979   0.00000  Uiso   1.00
C698   C     0.19799   0.46168   0.91353   0.00000  Uiso   1.00
C699   C     0.17385   0.50341   0.56727   0.00000  Uiso   1.00
C700   C     0.25114   0.47295   0.56744   0.00000  Uiso   1.00
Cl701  Cl    0.11606   0.62066   0.67578   0.00000  Uiso   1.00
Cl702  Cl    0.00913   0.54769   0.51814   0.00000  Uiso   1.00
Cl703  Cl    0.21657   0.62142   0.82486   0.00000  Uiso   1.00
Cu704  Cu    0.11978   0.49999   0.75000   0.00000  Uiso   1.00
Cu705  Cu    0.21355   0.50001   0.75000   0.00000  Uiso   1.00
H706   H     0.12483   0.37170   0.69543   0.00000  Uiso   1.00
H707   H     0.02553   0.54140   0.81388   0.00000  Uiso   1.00
H708   H     0.30777   0.45849   0.68622   0.00000  Uiso   1.00
H709   H     0.29319   0.44430   0.99629   0.00000  Uiso   1.00
H710   H     0.20473   0.44766   0.87553   0.00000  Uiso   1.00
H711   H     0.27192   0.54128   0.81405   0.00000  Uiso   1.00
H712   H     0.06137   0.45834   0.68628   0.00000  Uiso   1.00
H713   H     0.26426   0.43555   0.92051   0.00000  Uiso   1.00
H714   H     0.14226   0.52116   0.58837   0.00000  Uiso   1.00
H715   H     0.05438   0.52672   0.91191   0.00000  Uiso   1.00
H716   H     0.08593   0.52257   0.55547   0.00000  Uiso   1.00
H717   H     0.27755   0.46489   0.58748   0.00000  Uiso   1.00
H718   H     0.20812   0.37222   0.80480   0.00000  Uiso   1.00
N719   N     0.04931   0.49999   0.74998   0.00000  Uiso   1.00
N720   N     0.28402   0.50002   0.74999   0.00000  Uiso   1.00
O721   O     0.12708   0.56011   0.75000   0.00000  Uiso   1.00
O722   O     0.20627   0.56012   0.75000   0.00000  Uiso   1.00
O723   O     0.10775   0.49998   0.82549   0.00000  Uiso   1.00
O724   O     0.18694   0.49999   0.82549   0.00000  Uiso   1.00
O725   O     0.12706   0.43988   0.74999   0.00000  Uiso   1.00
O726   O     0.20625   0.43989   0.74999   0.00000  Uiso   1.00
O727   O     0.14640   0.50001   0.67451   0.00000  Uiso   1.00
O728   O     0.22559   0.50002   0.67451   0.00000  Uiso   1.00
C729   C     0.50001   0.57931   0.75005   0.00000  Uiso   1.00
C730   C     0.45784   0.49899   0.90745   0.00000  Uiso   1.00
C731   C     0.52328   0.64593   0.78149   0.00000  Uiso   1.00
C732   C     0.47376   0.49851   0.85009   0.00000  Uiso   1.00
C733   C     0.52370   0.35535   0.78058   0.00000  Uiso   1.00
C734   C     0.49990   0.37640   0.75003   0.00000  Uiso   1.00
C735   C     0.47604   0.35505   0.71957   0.00000  Uiso   1.00
C736   C     0.47651   0.64562   0.71870   0.00000  Uiso   1.00
C737   C     0.49999   0.62406   0.75004   0.00000  Uiso   1.00
C738   C     0.63190   0.52296   0.78551   0.00000  Uiso   1.00
C739   C     0.34816   0.52297   0.78548   0.00000  Uiso   1.00
C740   C     0.47822   0.49748   0.98962   0.00000  Uiso   1.00
C741   C     0.36808   0.47693   0.71458   0.00000  Uiso   1.00
C742   C     0.65182   0.47697   0.71456   0.00000  Uiso   1.00
C743   C     0.49997   0.42081   0.74997   0.00000  Uiso   1.00
C744   C     0.52622   0.49930   0.65003   0.00000  Uiso   1.00
C745   C     0.59297   0.46076   0.51580   0.00000  Uiso   1.00
C746   C     0.54093   0.49344   0.59358   0.00000  Uiso   1.00
C747   C     0.41245   0.51710   0.93332   0.00000  Uiso   1.00
C748   C     0.39923   0.52459   0.98656   0.00000  Uiso   1.00
C749   C     0.43186   0.51562   0.51442   0.00000  Uiso   1.00
C750   C     0.48935   0.48606   0.93635   0.00000  Uiso   1.00
C751   C     0.51377   0.48999   0.51600   0.00000  Uiso   1.00
C752   C     0.55764   0.46837   0.99025   0.00000  Uiso   1.00
C753   C     0.56525   0.45359   0.93979   0.00000  Uiso   1.00
C754   C     0.53132   0.46168   0.91353   0.00000  Uiso   1.00
C755   C     0.50718   0.50341   0.56727   0.00000  Uiso   1.00
C756   C     0.58447   0.47295   0.56744   0.00000  Uiso   1.00
Cl757  Cl    0.44939   0.62066   0.67578   0.00000  Uiso   1.00
Cl758  Cl    0.34246   0.54769   0.51814   0.00000  Uiso   1.00
Cl759  Cl    0.54991   0.62142   0.82486   0.00000  Uiso   1.00
Cu760  Cu    0.45311   0.49999   0.75000   0.00000  Uiso   1.00
Cu761  Cu    0.54689   0.50001   0.75000   0.00000  Uiso   1.00
H762   H     0.45817   0.37170   0.69543   0.00000  Uiso   1.00
H763   H     0.35886   0.54140   0.81388   0.00000  Uiso   1.00
H764   H     0.64110   0.45849   0.68622   0.00000  Uiso   1.00
H765   H     0.62652   0.44430   0.99629   0.00000  Uiso   1.00
H766   H     0.53806   0.44766   0.87553   0.00000  Uiso   1.00
H767   H     0.60525   0.54128   0.81405   0.00000  Uiso   1.00
H768   H     0.39470   0.45834   0.68628   0.00000  Uiso   1.00
H769   H     0.59759   0.43555   0.92051   0.00000  Uiso   1.00
H770   H     0.47560   0.52116   0.58837   0.00000  Uiso   1.00
H771   H     0.38772   0.52672   0.91191   0.00000  Uiso   1.00
H772   H     0.41926   0.52257   0.55547   0.00000  Uiso   1.00
H773   H     0.61088   0.46489   0.58748   0.00000  Uiso   1.00
H774   H     0.54146   0.37222   0.80480   0.00000  Uiso   1.00
N775   N     0.38265   0.49999   0.74998   0.00000  Uiso   1.00
N776   N     0.61735   0.50002   0.74999   0.00000  Uiso   1.00
O777   O     0.46042   0.56011   0.75000   0.00000  Uiso   1.00
O778   O     0.53961   0.56012   0.75000   0.00000  Uiso   1.00
O779   O     0.44108   0.49998   0.82549   0.00000  Uiso   1.00
O780   O     0.52027   0.49999   0.82549   0.00000  Uiso   1.00
O781   O     0.46039   0.43988   0.74999   0.00000  Uiso   1.00
O782   O     0.53958   0.43989   0.74999   0.00000  Uiso   1.00
O783   O     0.47973   0.50001   0.67451   0.00000  Uiso   1.00
O784   O     0.55892   0.50002   0.67451   0.00000  Uiso   1.00
C785   C     0.83335   0.57931   0.75005   0.00000  Uiso   1.00
C786   C     0.79117   0.49899   0.90745   0.00000  Uiso   1.00
C787   C     0.85661   0.64593   0.78149   0.00000  Uiso   1.00
C788   C     0.80709   0.49851   0.85009   0.00000  Uiso   1.00
C789   C     0.85704   0.35535   0.78058   0.00000  Uiso   1.00
C790   C     0.83324   0.37640   0.75003   0.00000  Uiso   1.00
C791   C     0.80937   0.35505   0.71957   0.00000  Uiso   1.00
C792   C     0.80985   0.64562   0.71870   0.00000  Uiso   1.00
C793   C     0.83332   0.62406   0.75004   0.00000  Uiso   1.00
C794   C     0.96523   0.52296   0.78551   0.00000  Uiso   1.00
C795   C     0.68150   0.52297   0.78548   0.00000  Uiso   1.00
C796   C     0.81155   0.49748   0.98962   0.00000  Uiso   1.00
C797   C     0.70142   0.47693   0.71458   0.00000  Uiso   1.00
C798   C     0.98516   0.47697   0.71456   0.00000  Uiso   1.00
C799   C     0.83330   0.42081   0.74997   0.00000  Uiso   1.00
C800   C     0.85955   0.49930   0.65003   0.00000  Uiso   1.00
C801   C     0.92631   0.46076   0.51580   0.00000  Uiso   1.00
C802   C     0.87427   0.49344   0.59358   0.00000  Uiso   1.00
C803   C     0.74578   0.51710   0.93332   0.00000  Uiso   1.00
C804   C     0.73257   0.52459   0.98656   0.00000  Uiso   1.00
C805   C     0.76519   0.51562   0.51442   0.00000  Uiso   1.00
C806   C     0.82268   0.48606   0.93635   0.00000  Uiso   1.00
C807   C     0.84710   0.48999   0.51600   0.00000  Uiso   1.00
C808   C     0.89098   0.46837   0.99025   0.00000  Uiso   1.00
C809   C     0.89859   0.45359   0.93979   0.00000  Uiso   1.00
C810   C     0.86465   0.46168   0.91353   0.00000  Uiso   1.00
C811   C     0.84052   0.50341   0.56727   0.00000  Uiso   1.00
C812   C     0.91780   0.47295   0.56744   0.00000  Uiso   1.00
Cl813  Cl    0.78273   0.62066   0.67578   0.00000  Uiso   1.00
Cl814  Cl    0.67579   0.54769   0.51814   0.00000  Uiso   1.00
Cl815  Cl    0.88324   0.62142   0.82486   0.00000  Uiso   1.00
Cu816  Cu    0.78645   0.49999   0.75000   0.00000  Uiso   1.00
Cu817  Cu    0.88022   0.50001   0.75000   0.00000  Uiso   1.00
H818   H     0.79150   0.37170   0.69543   0.00000  Uiso   1.00
H819   H     0.69220   0.54140   0.81388   0.00000  Uiso   1.00
H820   H     0.97444   0.45849   0.68622   0.00000  Uiso   1.00
H821   H     0.95986   0.44430   0.99629   0.00000  Uiso   1.00
H822   H     0.87140   0.44766   0.87553   0.00000  Uiso   1.00
H823   H     0.93859   0.54128   0.81405   0.00000  Uiso   1.00
H824   H     0.72803   0.45834   0.68628   0.00000  Uiso   1.00
H825   H     0.93092   0.43555   0.92051   0.00000  Uiso   1.00
H826   H     0.80893   0.52116   0.58837   0.00000  Uiso   1.00
H827   H     0.72105   0.52672   0.91191   0.00000  Uiso   1.00
H828   H     0.75260   0.52257   0.55547   0.00000  Uiso   1.00
H829   H     0.94421   0.46489   0.58748   0.00000  Uiso   1.00
H830   H     0.87479   0.37222   0.80480   0.00000  Uiso   1.00
N831   N     0.71598   0.49999   0.74998   0.00000  Uiso   1.00
N832   N     0.95069   0.50002   0.74999   0.00000  Uiso   1.00
O833   O     0.79375   0.56011   0.75000   0.00000  Uiso   1.00
O834   O     0.87294   0.56012   0.75000   0.00000  Uiso   1.00
O835   O     0.77441   0.49998   0.82549   0.00000  Uiso   1.00
O836   O     0.85360   0.49999   0.82549   0.00000  Uiso   1.00
O837   O     0.79373   0.43988   0.74999   0.00000  Uiso   1.00
O838   O     0.87292   0.43989   0.74999   0.00000  Uiso   1.00
O839   O     0.81306   0.50001   0.67451   0.00000  Uiso   1.00
O840   O     0.89225   0.50002   0.67451   0.00000  Uiso   1.00
C841   C     0.16668   0.91264   0.75005   0.00000  Uiso   1.00
C842   C     0.12450   0.83232   0.90745   0.00000  Uiso   1.00
C843   C     0.18994   0.97926   0.78149   0.00000  Uiso   1.00
C844   C     0.14042   0.83185   0.85009   0.00000  Uiso   1.00
C845   C     0.19037   0.68868   0.78058   0.00000  Uiso   1.00
C846   C     0.16657   0.70973   0.75003   0.00000  Uiso   1.00
C847   C     0.14271   0.68839   0.71957   0.00000  Uiso   1.00
C848   C     0.14318   0.97895   0.71870   0.00000  Uiso   1.00
C849   C     0.16666   0.95739   0.75004   0.00000  Uiso   1.00
C850   C     0.29857   0.85629   0.78551   0.00000  Uiso   1.00
C851   C     0.01483   0.85630   0.78548   0.00000  Uiso   1.00
C852   C     0.14489   0.83082   0.98962   0.00000  Uiso   1.00
C853   C     0.03475   0.81026   0.71458   0.00000  Uiso   1.00
C854   C     0.31849   0.81030   0.71456   0.00000  Uiso   1.00
C855   C     0.16663   0.75415   0.74997   0.00000  Uiso   1.00
C856   C     0.19289   0.83263   0.65003   0.00000  Uiso   1.00
C857   C     0.25964   0.79409   0.51580   0.00000  Uiso   1.00
C858   C     0.20760   0.82677   0.59358   0.00000  Uiso   1.00
C859   C     0.07911   0.85044   0.93332   0.00000  Uiso   1.00
C860   C     0.06590   0.85793   0.98656   0.00000  Uiso   1.00
C861   C     0.09852   0.84895   0.51442   0.00000  Uiso   1.00
C862   C     0.15601   0.81939   0.93635   0.00000  Uiso   1.00
C863   C     0.18044   0.82333   0.51600   0.00000  Uiso   1.00
C864   C     0.22431   0.80170   0.99025   0.00000  Uiso   1.00
C865   C     0.23192   0.78692   0.93979   0.00000  Uiso   1.00
C866   C     0.19799   0.79502   0.91353   0.00000  Uiso   1.00
C867   C     0.17385   0.83674   0.56727   0.00000  Uiso   1.00
C868   C     0.25114   0.80628   0.56744   0.00000  Uiso   1.00
Cl869  Cl    0.11606   0.95399   0.67578   0.00000  Uiso   1.00
Cl870  Cl    0.00913   0.88102   0.51814   0.00000  Uiso   1.00
Cl871  Cl    0.21657   0.95475   0.82486   0.00000  Uiso   1.00
Cu872  Cu    0.11978   0.83333   0.75000   0.00000  Uiso   1.00
Cu873  Cu    0.21355   0.83334   0.75000   0.00000  Uiso   1.00
H874   H     0.12483   0.70503   0.69543   0.00000  Uiso   1.00
H875   H     0.02553   0.87474   0.81388   0.00000  Uiso   1.00
H876   H     0.30777   0.79182   0.68622   0.00000  Uiso   1.00
H877   H     0.29319   0.77763   0.99629   0.00000  Uiso   1.00
H878   H     0.20473   0.78099   0.87553   0.00000  Uiso   1.00
H879   H     0.27192   0.87462   0.81405   0.00000  Uiso   1.00
H880   H     0.06137   0.79168   0.68628   0.00000  Uiso   1.00
H881   H     0.26426   0.76888   0.92051   0.00000  Uiso   1.00
H882   H     0.14226   0.85450   0.58837   0.00000  Uiso   1.00
H883   H     0.05438   0.86006   0.91191   0.00000  Uiso   1.00
H884   H     0.08593   0.85590   0.55547   0.00000  Uiso   1.00
H885   H     0.27755   0.79823   0.58748   0.00000  Uiso   1.00
H886   H     0.20812   0.70555   0.80480   0.00000  Uiso   1.00
N887   N     0.04931   0.83332   0.74998   0.00000  Uiso   1.00
N888   N     0.28402   0.83335   0.74999   0.00000  Uiso   1.00
O889   O     0.12708   0.89345   0.75000   0.00000  Uiso   1.00
O890   O     0.20627   0.89346   0.75000   0.00000  Uiso   1.00
O891   O     0.10775   0.83332   0.82549   0.00000  Uiso   1.00
O892   O     0.18694   0.83333   0.82549   0.00000  Uiso   1.00
O893   O     0.12706   0.77321   0.74999   0.00000  Uiso   1.00
O894   O     0.20625   0.77322   0.74999   0.00000  Uiso   1.00
O895   O     0.14640   0.83334   0.67451   0.00000  Uiso   1.00
O896   O     0.22559   0.83335   0.67451   0.00000  Uiso   1.00
C897   C     0.50001   0.91264   0.75005   0.00000  Uiso   1.00
C898   C     0.45784   0.83232   0.90745   0.00000  Uiso   1.00
C899   C     0.52328   0.97926   0.78149   0.00000  Uiso   1.00
C900   C     0.47376   0.83185   0.85009   0.00000  Uiso   1.00
C901   C     0.52370   0.68868   0.78058   0.00000  Uiso   1.00
C902   C     0.49990   0.70973   0.75003   0.00000  Uiso   1.00
C903   C     0.47604   0.68839   0.71957   0.00000  Uiso   1.00
C904   C     0.47651   0.97895   0.71870   0.00000  Uiso   1.00
C905   C     0.49999   0.95739   0.75004   0.00000  Uiso   1.00
C906   C     0.63190   0.85629   0.78551   0.00000  Uiso   1.00
C907   C     0.34816   0.85630   0.78548   0.00000  Uiso   1.00
C908   C     0.47822   0.83082   0.98962   0.00000  Uiso   1.00
C909   C     0.36808   0.81026   0.71458   0.00000  Uiso   1.00
C910   C     0.65182   0.81030   0.71456   0.00000  Uiso   1.00
C911   C     0.49997   0.75415   0.74997   0.00000  Uiso   1.00
C912   C     0.52622   0.83263   0.65003   0.00000  Uiso   1.00
C913   C     0.59297   0.79409   0.51580   0.00000  Uiso   1.00
C914   C     0.54093   0.82677   0.59358   0.00000  Uiso   1.00
C915   C     0.41245   0.85044   0.93332   0.00000  Uiso   1.00
C916   C     0.39923   0.85793   0.98656   0.00000  Uiso   1.00
C917   C     0.43186   0.84895   0.51442   0.00000  Uiso   1.00
C918   C     0.48935   0.81939   0.93635   0.00000  Uiso   1.00
C919   C     0.51377   0.82333   0.51600   0.00000  Uiso   1.00
C920   C     0.55764   0.80170   0.99025   0.00000  Uiso   1.00
C921   C     0.56525   0.78692   0.93979   0.00000  Uiso   1.00
C922   C     0.53132   0.79502   0.91353   0.00000  Uiso   1.00
C923   C     0.50718   0.83674   0.56727   0.00000  Uiso   1.00
C924   C     0.58447   0.80628   0.56744   0.00000  Uiso   1.00
Cl925  Cl    0.44939   0.95399   0.67578   0.00000  Uiso   1.00
Cl926  Cl    0.34246   0.88102   0.51814   0.00000  Uiso   1.00
Cl927  Cl    0.54991   0.95475   0.82486   0.00000  Uiso   1.00
Cu928  Cu    0.45311   0.83333   0.75000   0.00000  Uiso   1.00
Cu929  Cu    0.54689   0.83334   0.75000   0.00000  Uiso   1.00
H930   H     0.45817   0.70503   0.69543   0.00000  Uiso   1.00
H931   H     0.35886   0.87474   0.81388   0.00000  Uiso   1.00
H932   H     0.64110   0.79182   0.68622   0.00000  Uiso   1.00
H933   H     0.62652   0.77763   0.99629   0.00000  Uiso   1.00
H934   H     0.53806   0.78099   0.87553   0.00000  Uiso   1.00
H935   H     0.60525   0.87462   0.81405   0.00000  Uiso   1.00
H936   H     0.39470   0.79168   0.68628   0.00000  Uiso   1.00
H937   H     0.59759   0.76888   0.92051   0.00000  Uiso   1.00
H938   H     0.47560   0.85450   0.58837   0.00000  Uiso   1.00
H939   H     0.38772   0.86006   0.91191   0.00000  Uiso   1.00
H940   H     0.41926   0.85590   0.55547   0.00000  Uiso   1.00
H941   H     0.61088   0.79823   0.58748   0.00000  Uiso   1.00
H942   H     0.54146   0.70555   0.80480   0.00000  Uiso   1.00
N943   N     0.38265   0.83332   0.74998   0.00000  Uiso   1.00
N944   N     0.61735   0.83335   0.74999   0.00000  Uiso   1.00
O945   O     0.46042   0.89345   0.75000   0.00000  Uiso   1.00
O946   O     0.53961   0.89346   0.75000   0.00000  Uiso   1.00
O947   O     0.44108   0.83332   0.82549   0.00000  Uiso   1.00
O948   O     0.52027   0.83333   0.82549   0.00000  Uiso   1.00
O949   O     0.46039   0.77321   0.74999   0.00000  Uiso   1.00
O950   O     0.53958   0.77322   0.74999   0.00000  Uiso   1.00
O951   O     0.47973   0.83334   0.67451   0.00000  Uiso   1.00
O952   O     0.55892   0.83335   0.67451   0.00000  Uiso   1.00
C953   C     0.83335   0.91264   0.75005   0.00000  Uiso   1.00
C954   C     0.79117   0.83232   0.90745   0.00000  Uiso   1.00
C955   C     0.85661   0.97926   0.78149   0.00000  Uiso   1.00
C956   C     0.80709   0.83185   0.85009   0.00000  Uiso   1.00
C957   C     0.85704   0.68868   0.78058   0.00000  Uiso   1.00
C958   C     0.83324   0.70973   0.75003   0.00000  Uiso   1.00
C959   C     0.80937   0.68839   0.71957   0.00000  Uiso   1.00
C960   C     0.80985   0.97895   0.71870   0.00000  Uiso   1.00
C961   C     0.83332   0.95739   0.75004   0.00000  Uiso   1.00
C962   C     0.96523   0.85629   0.78551   0.00000  Uiso   1.00
C963   C     0.68150   0.85630   0.78548   0.00000  Uiso   1.00
C964   C     0.81155   0.83082   0.98962   0.00000  Uiso   1.00
C965   C     0.70142   0.81026   0.71458   0.00000  Uiso   1.00
C966   C     0.98516   0.81030   0.71456   0.00000  Uiso   1.00
C967   C     0.83330   0.75415   0.74997   0.00000  Uiso   1.00
C968   C     0.85955   0.83263   0.65003   0.00000  Uiso   1.00
C969   C     0.92631   0.79409   0.51580   0.00000  Uiso   1.00
C970   C     0.87427   0.82677   0.59358   0.00000  Uiso   1.00
C971   C     0.74578   0.85044   0.93332   0.00000  Uiso   1.00
C972   C     0.73257   0.85793   0.98656   0.00000  Uiso   1.00
C973   C     0.76519   0.84895   0.51442   0.00000  Uiso   1.00
C974   C     0.82268   0.81939   0.93635   0.00000  Uiso   1.00
C975   C     0.84710   0.82333   0.51600   0.00000  Uiso   1.00
C976   C     0.89098   0.80170   0.99025   0.00000  Uiso   1.00
C977   C     0.89859   0.78692   0.93979   0.00000  Uiso   1.00
C978   C     0.86465   0.79502   0.91353   0.00000  Uiso   1.00
C979   C     0.84052   0.83674   0.56727   0.00000  Uiso   1.00
C980   C     0.91780   0.80628   0.56744   0.00000  Uiso   1.00
Cl981  Cl    0.78273   0.95399   0.67578   0.00000  Uiso   1.00
Cl982  Cl    0.67579   0.88102   0.51814   0.00000  Uiso   1.00
Cl983  Cl    0.88324   0.95475   0.82486   0.00000  Uiso   1.00
Cu984  Cu    0.78645   0.83333   0.75000   0.00000  Uiso   1.00
Cu985  Cu    0.88022   0.83334   0.75000   0.00000  Uiso   1.00
H986   H     0.79150   0.70503   0.69543   0.00000  Uiso   1.00
H987   H     0.69220   0.87474   0.81388   0.00000  Uiso   1.00
H988   H     0.97444   0.79182   0.68622   0.00000  Uiso   1.00
H989   H     0.95986   0.77763   0.99629   0.00000  Uiso   1.00
H990   H     0.87140   0.78099   0.87553   0.00000  Uiso   1.00
H991   H     0.93859   0.87462   0.81405   0.00000  Uiso   1.00
H992   H     0.72803   0.79168   0.68628   0.00000  Uiso   1.00
H993   H     0.93092   0.76888   0.92051   0.00000  Uiso   1.00
H994   H     0.80893   0.85450   0.58837   0.00000  Uiso   1.00
H995   H     0.72105   0.86006   0.91191   0.00000  Uiso   1.00
H996   H     0.75260   0.85590   0.55547   0.00000  Uiso   1.00
H997   H     0.94421   0.79823   0.58748   0.00000  Uiso   1.00
H998   H     0.87479   0.70555   0.80480   0.00000  Uiso   1.00
N999   N     0.71598   0.83332   0.74998   0.00000  Uiso   1.00
N1000  N     0.95069   0.83335   0.74999   0.00000  Uiso   1.00
O1001  O     0.79375   0.89345   0.75000   0.00000  Uiso   1.00
O1002  O     0.87294   0.89346   0.75000   0.00000  Uiso   1.00
O1003  O     0.77441   0.83332   0.82549   0.00000  Uiso   1.00
O1004  O     0.85360   0.83333   0.82549   0.00000  Uiso   1.00
O1005  O     0.79373   0.77321   0.74999   0.00000  Uiso   1.00
O1006  O     0.87292   0.77322   0.74999   0.00000  Uiso   1.00
O1007  O     0.81306   0.83334   0.67451   0.00000  Uiso   1.00
O1008  O     0.89225   0.83335   0.67451   0.00000  Uiso   1.00
loop_
_geom_bond_atom_site_label_1
_geom_bond_atom_site_label_2
_geom_bond_distance
_geom_bond_site_symmetry_2
_ccdc_geom_bond_type
C1     O50     1.291   .     A
C1     C9      1.450   .     S
C1     O49     1.290   .     A
C2     C22     1.419   .     A
C2     C4      1.471   .     S
C2     C19     1.402   .     A
C3     C9      1.412   .     A
C3     Cl31    1.764   .     S
C3     C173    1.386   .     S
C4     O52     1.295   .     A
C4     O51     1.297   .     A
C5     H46     1.084   .     S
C5     C6      1.394   .     A
C5     C339    1.386   1_545 S
C6     C7      1.394   .     A
C6     C15     1.439   .     S
C7     H34     1.084   .     S
C7     C344    1.386   1_545 S
C8     Cl29    1.765   .     S
C8     C9      1.412   .     A
C8     C175    1.386   .     S
C10    N48     1.367   .     A
C10    H39     1.081   .     S
C10    C67     1.416   .     S
C11    N47     1.367   .     A
C11    H35     1.082   .     S
C11    C122    1.416   1_455 S
C12    C22     1.419   .     A
C12    C525    1.419   .     S
C12    C527    1.424   .     S
C13    N47     1.368   .     A
C13    H40     1.082   .     S
C13    C126    1.417   1_455 S
C14    H36     1.082   .     S
C14    N48     1.367   .     A
C14    C69     1.417   .     S
C15    O53     1.289   .     A
C15    O54     1.289   .     A
C16    O56     1.295   .     A
C16    O55     1.293   .     A
C16    C18     1.460   .     S
C17    C28     1.392   .     A
C17    C528    1.404   1_554 S
C17    H541    1.084   1_554 S
C18    C28     1.398   .     A
C18    C27     1.395   .     A
C19    C20     1.387   .     A
C19    H43     1.084   .     S
C20    C525    1.392   .     S
C20    Cl534   1.756   .     S
C21    H44     1.076   .     S
C21    C524    1.392   1_554 S
C21    C516    1.419   1_554 S
C22    C26     1.412   .     A
C23    C27     1.402   .     A
C23    C516    1.424   1_554 S
C23    C528    1.421   1_554 S
C24    C25     1.391   .     A
C24    C521    1.404   .     S
C24    C527    1.421   .     S
C25    C26     1.386   .     A
C25    H41     1.084   .     S
C26    H38     1.080   .     S
C27    H42     1.076   .     S
C28    H45     1.083   .     S
Cl30   C524    1.756   1_554 S
Cu32   O51     1.955   .     S
Cu32   O55     1.942   .     S
Cu32   Cu33    2.678   .     S
Cu32   N47     2.013   .     S
Cu32   O49     1.959   .     S
Cu32   O53     1.959   .     S
Cu33   O56     1.955   .     S
Cu33   O52     1.942   .     S
Cu33   O54     1.959   .     S
Cu33   N48     2.013   .     S
Cu33   O50     1.959   .     S
H37    C521    1.084   .     S
C57    O106    1.291   .     A
C57    C65     1.450   .     S
C57    O105    1.290   .     A
C58    C78     1.419   .     A
C58    C60     1.471   .     S
C58    C75     1.402   .     A
C59    C65     1.412   .     A
C59    Cl87    1.764   .     S
C59    C229    1.386   .     S
C60    O108    1.295   .     A
C60    O107    1.297   .     A
C61    H102    1.084   .     S
C61    C62     1.394   .     A
C61    C395    1.386   1_545 S
C62    C63     1.394   .     A
C62    C71     1.439   .     S
C63    H90     1.084   .     S
C63    C400    1.386   1_545 S
C64    Cl85    1.765   .     S
C64    C65     1.412   .     A
C64    C231    1.386   .     S
C66    N104    1.367   .     A
C66    H95     1.081   .     S
C66    C123    1.416   .     S
C67    N103    1.367   .     A
C67    H91     1.082   .     S
C68    C78     1.419   .     A
C68    C581    1.419   .     S
C68    C583    1.424   .     S
C69    N103    1.368   .     A
C69    H96     1.082   .     S
C70    H92     1.082   .     S
C70    N104    1.367   .     A
C70    C125    1.417   .     S
C71    O109    1.289   .     A
C71    O110    1.289   .     A
C72    O112    1.295   .     A
C72    O111    1.293   .     A
C72    C74     1.460   .     S
C73    C84     1.392   .     A
C73    C584    1.404   1_554 S
C73    H597    1.084   1_554 S
C74    C84     1.398   .     A
C74    C83     1.395   .     A
C75    C76     1.387   .     A
C75    H99     1.084   .     S
C76    C581    1.392   .     S
C76    Cl590   1.756   .     S
C77    H100    1.076   .     S
C77    C580    1.392   1_554 S
C77    C572    1.419   1_554 S
C78    C82     1.412   .     A
C79    C83     1.402   .     A
C79    C572    1.424   1_554 S
C79    C584    1.421   1_554 S
C80    C81     1.391   .     A
C80    C577    1.404   .     S
C80    C583    1.421   .     S
C81    C82     1.386   .     A
C81    H97     1.084   .     S
C82    H94     1.080   .     S
C83    H98     1.076   .     S
C84    H101    1.083   .     S
Cl86   C580    1.756   1_554 S
Cu88   O107    1.955   .     S
Cu88   O111    1.942   .     S
Cu88   Cu89    2.678   .     S
Cu88   N103    2.013   .     S
Cu88   O105    1.959   .     S
Cu88   O109    1.959   .     S
Cu89   O112    1.955   .     S
Cu89   O108    1.942   .     S
Cu89   O110    1.959   .     S
Cu89   N104    2.013   .     S
Cu89   O106    1.959   .     S
H93    C577    1.084   .     S
C113   O162    1.291   .     A
C113   C121    1.450   .     S
C113   O161    1.290   .     A
C114   C134    1.419   .     A
C114   C116    1.471   .     S
C114   C131    1.402   .     A
C115   C121    1.412   .     A
C115   Cl143   1.764   .     S
C115   C285    1.386   .     S
C116   O164    1.295   .     A
C116   O163    1.297   .     A
C117   H158    1.084   .     S
C117   C118    1.394   .     A
C117   C451    1.386   1_545 S
C118   C119    1.394   .     A
C118   C127    1.439   .     S
C119   H146    1.084   .     S
C119   C456    1.386   1_545 S
C120   Cl141   1.765   .     S
C120   C121    1.412   .     A
C120   C287    1.386   .     S
C122   N160    1.367   .     A
C122   H151    1.081   .     S
C122   C11     1.416   1_655 S
C123   N159    1.367   .     A
C123   H147    1.082   .     S
C124   C134    1.419   .     A
C124   C637    1.419   .     S
C124   C639    1.424   .     S
C125   N159    1.368   .     A
C125   H152    1.082   .     S
C126   H148    1.082   .     S
C126   N160    1.367   .     A
C126   C13     1.417   1_655 S
C127   O165    1.289   .     A
C127   O166    1.289   .     A
C128   O168    1.295   .     A
C128   O167    1.293   .     A
C128   C130    1.460   .     S
C129   C140    1.392   .     A
C129   C640    1.404   1_554 S
C129   H653    1.084   1_554 S
C130   C140    1.398   .     A
C130   C139    1.395   .     A
C131   C132    1.387   .     A
C131   H155    1.084   .     S
C132   C637    1.392   .     S
C132   Cl646   1.756   .     S
C133   H156    1.076   .     S
C133   C636    1.392   1_554 S
C133   C628    1.419   1_554 S
C134   C138    1.412   .     A
C135   C139    1.402   .     A
C135   C628    1.424   1_554 S
C135   C640    1.421   1_554 S
C136   C137    1.391   .     A
C136   C633    1.404   .     S
C136   C639    1.421   .     S
C137   C138    1.386   .     A
C137   H153    1.084   .     S
C138   H150    1.080   .     S
C139   H154    1.076   .     S
C140   H157    1.083   .     S
Cl142  C636    1.756   1_554 S
Cu144  O163    1.955   .     S
Cu144  O167    1.942   .     S
Cu144  Cu145   2.678   .     S
Cu144  N159    2.013   .     S
Cu144  O161    1.959   .     S
Cu144  O165    1.959   .     S
Cu145  O168    1.955   .     S
Cu145  O164    1.942   .     S
Cu145  O166    1.959   .     S
Cu145  N160    2.013   .     S
Cu145  O162    1.959   .     S
H149   C633    1.084   .     S
C169   O218    1.291   .     A
C169   C177    1.450   .     S
C169   O217    1.290   .     A
C170   C190    1.419   .     A
C170   C172    1.471   .     S
C170   C187    1.402   .     A
C171   C177    1.412   .     A
C171   Cl199   1.764   .     S
C171   C341    1.386   .     S
C172   O220    1.295   .     A
C172   O219    1.297   .     A
C173   H214    1.084   .     S
C173   C174    1.394   .     A
C174   C175    1.394   .     A
C174   C183    1.439   .     S
C175   H202    1.084   .     S
C176   Cl197   1.765   .     S
C176   C177    1.412   .     A
C176   C343    1.386   .     S
C178   N216    1.367   .     A
C178   H207    1.081   .     S
C178   C235    1.416   .     S
C179   N215    1.367   .     A
C179   H203    1.082   .     S
C179   C290    1.416   1_455 S
C180   C190    1.419   .     A
C180   C693    1.419   .     S
C180   C695    1.424   .     S
C181   N215    1.368   .     A
C181   H208    1.082   .     S
C181   C294    1.417   1_455 S
C182   H204    1.082   .     S
C182   N216    1.367   .     A
C182   C237    1.417   .     S
C183   O221    1.289   .     A
C183   O222    1.289   .     A
C184   O224    1.295   .     A
C184   O223    1.293   .     A
C184   C186    1.460   .     S
C185   C196    1.392   .     A
C185   C696    1.404   1_554 S
C185   H709    1.084   1_554 S
C186   C196    1.398   .     A
C186   C195    1.395   .     A
C187   C188    1.387   .     A
C187   H211    1.084   .     S
C188   C693    1.392   .     S
C188   Cl702   1.756   .     S
C189   H212    1.076   .     S
C189   C692    1.392   1_554 S
C189   C684    1.419   1_554 S
C190   C194    1.412   .     A
C191   C195    1.402   .     A
C191   C684    1.424   1_554 S
C191   C696    1.421   1_554 S
C192   C193    1.391   .     A
C192   C689    1.404   .     S
C192   C695    1.421   .     S
C193   C194    1.386   .     A
C193   H209    1.084   .     S
C194   H206    1.080   .     S
C195   H210    1.076   .     S
C196   H213    1.083   .     S
Cl198  C692    1.756   1_554 S
Cu200  O219    1.955   .     S
Cu200  O223    1.942   .     S
Cu200  Cu201   2.678   .     S
Cu200  N215    2.013   .     S
Cu200  O217    1.959   .     S
Cu200  O221    1.959   .     S
Cu201  O224    1.955   .     S
Cu201  O220    1.942   .     S
Cu201  O222    1.959   .     S
Cu201  N216    2.013   .     S
Cu201  O218    1.959   .     S
H205   C689    1.084   .     S
C225   O274    1.291   .     A
C225   C233    1.450   .     S
C225   O273    1.290   .     A
C226   C246    1.419   .     A
C226   C228    1.471   .     S
C226   C243    1.402   .     A
C227   C233    1.412   .     A
C227   Cl255   1.764   .     S
C227   C397    1.386   .     S
C228   O276    1.295   .     A
C228   O275    1.297   .     A
C229   H270    1.084   .     S
C229   C230    1.394   .     A
C230   C231    1.394   .     A
C230   C239    1.439   .     S
C231   H258    1.084   .     S
C232   Cl253   1.765   .     S
C232   C233    1.412   .     A
C232   C399    1.386   .     S
C234   N272    1.367   .     A
C234   H263    1.081   .     S
C234   C291    1.416   .     S
C235   N271    1.367   .     A
C235   H259    1.082   .     S
C236   C246    1.419   .     A
C236   C749    1.419   .     S
C236   C751    1.424   .     S
C237   N271    1.368   .     A
C237   H264    1.082   .     S
C238   H260    1.082   .     S
C238   N272    1.367   .     A
C238   C293    1.417   .     S
C239   O277    1.289   .     A
C239   O278    1.289   .     A
C240   O280    1.295   .     A
C240   O279    1.293   .     A
C240   C242    1.460   .     S
C241   C252    1.392   .     A
C241   C752    1.404   1_554 S
C241   H765    1.084   1_554 S
C242   C252    1.398   .     A
C242   C251    1.395   .     A
C243   C244    1.387   .     A
C243   H267    1.084   .     S
C244   C749    1.392   .     S
C244   Cl758   1.756   .     S
C245   H268    1.076   .     S
C245   C748    1.392   1_554 S
C245   C740    1.419   1_554 S
C246   C250    1.412   .     A
C247   C251    1.402   .     A
C247   C740    1.424   1_554 S
C247   C752    1.421   1_554 S
C248   C249    1.391   .     A
C248   C745    1.404   .     S
C248   C751    1.421   .     S
C249   C250    1.386   .     A
C249   H265    1.084   .     S
C250   H262    1.080   .     S
C251   H266    1.076   .     S
C252   H269    1.083   .     S
Cl254  C748    1.756   1_554 S
Cu256  O275    1.955   .     S
Cu256  O279    1.942   .     S
Cu256  Cu257   2.678   .     S
Cu256  N271    2.013   .     S
Cu256  O273    1.959   .     S
Cu256  O277    1.959   .     S
Cu257  O280    1.955   .     S
Cu257  O276    1.942   .     S
Cu257  O278    1.959   .     S
Cu257  N272    2.013   .     S
Cu257  O274    1.959   .     S
H261   C745    1.084   .     S
C281   O330    1.291   .     A
C281   C289    1.450   .     S
C281   O329    1.290   .     A
C282   C302    1.419   .     A
C282   C284    1.471   .     S
C282   C299    1.402   .     A
C283   C289    1.412   .     A
C283   Cl311   1.764   .     S
C283   C453    1.386   .     S
C284   O332    1.295   .     A
C284   O331    1.297   .     A
C285   H326    1.084   .     S
C285   C286    1.394   .     A
C286   C287    1.394   .     A
C286   C295    1.439   .     S
C287   H314    1.084   .     S
C288   Cl309   1.765   .     S
C288   C289    1.412   .     A
C288   C455    1.386   .     S
C290   N328    1.367   .     A
C290   H319    1.081   .     S
C290   C179    1.416   1_655 S
C291   N327    1.367   .     A
C291   H315    1.082   .     S
C292   C302    1.419   .     A
C292   C805    1.419   .     S
C292   C807    1.424   .     S
C293   N327    1.368   .     A
C293   H320    1.082   .     S
C294   H316    1.082   .     S
C294   N328    1.367   .     A
C294   C181    1.417   1_655 S
C295   O333    1.289   .     A
C295   O334    1.289   .     A
C296   O336    1.295   .     A
C296   O335    1.293   .     A
C296   C298    1.460   .     S
C297   C308    1.392   .     A
C297   C808    1.404   1_554 S
C297   H821    1.084   1_554 S
C298   C308    1.398   .     A
C298   C307    1.395   .     A
C299   C300    1.387   .     A
C299   H323    1.084   .     S
C300   C805    1.392   .     S
C300   Cl814   1.756   .     S
C301   H324    1.076   .     S
C301   C804    1.392   1_554 S
C301   C796    1.419   1_554 S
C302   C306    1.412   .     A
C303   C307    1.402   .     A
C303   C796    1.424   1_554 S
C303   C808    1.421   1_554 S
C304   C305    1.391   .     A
C304   C801    1.404   .     S
C304   C807    1.421   .     S
C305   C306    1.386   .     A
C305   H321    1.084   .     S
C306   H318    1.080   .     S
C307   H322    1.076   .     S
C308   H325    1.083   .     S
Cl310  C804    1.756   1_554 S
Cu312  O331    1.955   .     S
Cu312  O335    1.942   .     S
Cu312  Cu313   2.678   .     S
Cu312  N327    2.013   .     S
Cu312  O329    1.959   .     S
Cu312  O333    1.959   .     S
Cu313  O336    1.955   .     S
Cu313  O332    1.942   .     S
Cu313  O334    1.959   .     S
Cu313  N328    2.013   .     S
Cu313  O330    1.959   .     S
H317   C801    1.084   .     S
C337   O386    1.291   .     A
C337   C345    1.450   .     S
C337   O385    1.290   .     A
C338   C358    1.419   .     A
C338   C340    1.471   .     S
C338   C355    1.402   .     A
C339   C345    1.412   .     A
C339   Cl367   1.764   .     S
C339   C5      1.386   1_565 S
C340   O388    1.295   .     A
C340   O387    1.297   .     A
C341   H382    1.084   .     S
C341   C342    1.394   .     A
C342   C343    1.394   .     A
C342   C351    1.439   .     S
C343   H370    1.084   .     S
C344   Cl365   1.765   .     S
C344   C345    1.412   .     A
C344   C7      1.386   1_565 S
C346   N384    1.367   .     A
C346   H375    1.081   .     S
C346   C403    1.416   .     S
C347   N383    1.367   .     A
C347   H371    1.082   .     S
C347   C458    1.416   1_455 S
C348   C358    1.419   .     A
C348   C861    1.419   .     S
C348   C863    1.424   .     S
C349   N383    1.368   .     A
C349   H376    1.082   .     S
C349   C462    1.417   1_455 S
C350   H372    1.082   .     S
C350   N384    1.367   .     A
C350   C405    1.417   .     S
C351   O389    1.289   .     A
C351   O390    1.289   .     A
C352   O392    1.295   .     A
C352   O391    1.293   .     A
C352   C354    1.460   .     S
C353   C364    1.392   .     A
C353   C864    1.404   1_554 S
C353   H877    1.084   1_554 S
C354   C364    1.398   .     A
C354   C363    1.395   .     A
C355   C356    1.387   .     A
C355   H379    1.084   .     S
C356   C861    1.392   .     S
C356   Cl870   1.756   .     S
C357   H380    1.076   .     S
C357   C860    1.392   1_554 S
C357   C852    1.419   1_554 S
C358   C362    1.412   .     A
C359   C363    1.402   .     A
C359   C852    1.424   1_554 S
C359   C864    1.421   1_554 S
C360   C361    1.391   .     A
C360   C857    1.404   .     S
C360   C863    1.421   .     S
C361   C362    1.386   .     A
C361   H377    1.084   .     S
C362   H374    1.080   .     S
C363   H378    1.076   .     S
C364   H381    1.083   .     S
Cl366  C860    1.756   1_554 S
Cu368  O387    1.955   .     S
Cu368  O391    1.942   .     S
Cu368  Cu369   2.678   .     S
Cu368  N383    2.013   .     S
Cu368  O385    1.959   .     S
Cu368  O389    1.959   .     S
Cu369  O392    1.955   .     S
Cu369  O388    1.942   .     S
Cu369  O390    1.959   .     S
Cu369  N384    2.013   .     S
Cu369  O386    1.959   .     S
H373   C857    1.084   .     S
C393   O442    1.291   .     A
C393   C401    1.450   .     S
C393   O441    1.290   .     A
C394   C414    1.419   .     A
C394   C396    1.471   .     S
C394   C411    1.402   .     A
C395   C401    1.412   .     A
C395   Cl423   1.764   .     S
C395   C61     1.386   1_565 S
C396   O444    1.295   .     A
C396   O443    1.297   .     A
C397   H438    1.084   .     S
C397   C398    1.394   .     A
C398   C399    1.394   .     A
C398   C407    1.439   .     S
C399   H426    1.084   .     S
C400   Cl421   1.765   .     S
C400   C401    1.412   .     A
C400   C63     1.386   1_565 S
C402   N440    1.367   .     A
C402   H431    1.081   .     S
C402   C459    1.416   .     S
C403   N439    1.367   .     A
C403   H427    1.082   .     S
C404   C414    1.419   .     A
C404   C917    1.419   .     S
C404   C919    1.424   .     S
C405   N439    1.368   .     A
C405   H432    1.082   .     S
C406   H428    1.082   .     S
C406   N440    1.367   .     A
C406   C461    1.417   .     S
C407   O445    1.289   .     A
C407   O446    1.289   .     A
C408   O448    1.295   .     A
C408   O447    1.293   .     A
C408   C410    1.460   .     S
C409   C420    1.392   .     A
C409   C920    1.404   1_554 S
C409   H933    1.084   1_554 S
C410   C420    1.398   .     A
C410   C419    1.395   .     A
C411   C412    1.387   .     A
C411   H435    1.084   .     S
C412   C917    1.392   .     S
C412   Cl926   1.756   .     S
C413   H436    1.076   .     S
C413   C916    1.392   1_554 S
C413   C908    1.419   1_554 S
C414   C418    1.412   .     A
C415   C419    1.402   .     A
C415   C908    1.424   1_554 S
C415   C920    1.421   1_554 S
C416   C417    1.391   .     A
C416   C913    1.404   .     S
C416   C919    1.421   .     S
C417   C418    1.386   .     A
C417   H433    1.084   .     S
C418   H430    1.080   .     S
C419   H434    1.076   .     S
C420   H437    1.083   .     S
Cl422  C916    1.756   1_554 S
Cu424  O443    1.955   .     S
Cu424  O447    1.942   .     S
Cu424  Cu425   2.678   .     S
Cu424  N439    2.013   .     S
Cu424  O441    1.959   .     S
Cu424  O445    1.959   .     S
Cu425  O448    1.955   .     S
Cu425  O444    1.942   .     S
Cu425  O446    1.959   .     S
Cu425  N440    2.013   .     S
Cu425  O442    1.959   .     S
H429   C913    1.084   .     S
C449   O498    1.291   .     A
C449   C457    1.450   .     S
C449   O497    1.290   .     A
C450   C470    1.419   .     A
C450   C452    1.471   .     S
C450   C467    1.402   .     A
C451   C457    1.412   .     A
C451   Cl479   1.764   .     S
C451   C117    1.386   1_565 S
C452   O500    1.295   .     A
C452   O499    1.297   .     A
C453   H494    1.084   .     S
C453   C454    1.394   .     A
C454   C455    1.394   .     A
C454   C463    1.439   .     S
C455   H482    1.084   .     S
C456   Cl477   1.765   .     S
C456   C457    1.412   .     A
C456   C119    1.386   1_565 S
C458   N496    1.367   .     A
C458   H487    1.081   .     S
C458   C347    1.416   1_655 S
C459   N495    1.367   .     A
C459   H483    1.082   .     S
C460   C470    1.419   .     A
C460   C973    1.419   .     S
C460   C975    1.424   .     S
C461   N495    1.368   .     A
C461   H488    1.082   .     S
C462   H484    1.082   .     S
C462   N496    1.367   .     A
C462   C349    1.417   1_655 S
C463   O501    1.289   .     A
C463   O502    1.289   .     A
C464   O504    1.295   .     A
C464   O503    1.293   .     A
C464   C466    1.460   .     S
C465   C476    1.392   .     A
C465   C976    1.404   1_554 S
C465   H989    1.084   1_554 S
C466   C476    1.398   .     A
C466   C475    1.395   .     A
C467   C468    1.387   .     A
C467   H491    1.084   .     S
C468   C973    1.392   .     S
C468   Cl982   1.756   .     S
C469   H492    1.076   .     S
C469   C972    1.392   1_554 S
C469   C964    1.419   1_554 S
C470   C474    1.412   .     A
C471   C475    1.402   .     A
C471   C964    1.424   1_554 S
C471   C976    1.421   1_554 S
C472   C473    1.391   .     A
C472   C969    1.404   .     S
C472   C975    1.421   .     S
C473   C474    1.386   .     A
C473   H489    1.084   .     S
C474   H486    1.080   .     S
C475   H490    1.076   .     S
C476   H493    1.083   .     S
Cl478  C972    1.756   1_554 S
Cu480  O499    1.955   .     S
Cu480  O503    1.942   .     S
Cu480  Cu481   2.678   .     S
Cu480  N495    2.013   .     S
Cu480  O497    1.959   .     S
Cu480  O501    1.959   .     S
Cu481  O504    1.955   .     S
Cu481  O500    1.942   .     S
Cu481  O502    1.959   .     S
Cu481  N496    2.013   .     S
Cu481  O498    1.959   .     S
H485   C969    1.084   .     S
C505   O554    1.291   .     A
C505   C513    1.450   .     S
C505   O553    1.290   .     A
C506   C526    1.419   .     A
C506   C508    1.471   .     S
C506   C523    1.402   .     A
C507   C513    1.412   .     A
C507   Cl535   1.764   .     S
C507   C677    1.386   .     S
C508   O556    1.295   .     A
C508   O555    1.297   .     A
C509   H550    1.084   .     S
C509   C510    1.394   .     A
C509   C843    1.386   1_545 S
C510   C511    1.394   .     A
C510   C519    1.439   .     S
C511   H538    1.084   .     S
C511   C848    1.386   1_545 S
C512   Cl533   1.765   .     S
C512   C513    1.412   .     A
C512   C679    1.386   .     S
C514   N552    1.367   .     A
C514   H543    1.081   .     S
C514   C571    1.416   .     S
C515   N551    1.367   .     A
C515   H539    1.082   .     S
C515   C626    1.416   1_455 S
C516   C526    1.419   .     A
C516   C21     1.419   1_556 S
C516   C23     1.424   1_556 S
C517   N551    1.368   .     A
C517   H544    1.082   .     S
C517   C630    1.417   1_455 S
C518   H540    1.082   .     S
C518   N552    1.367   .     A
C518   C573    1.417   .     S
C519   O557    1.289   .     A
C519   O558    1.289   .     A
C520   O560    1.295   .     A
C520   O559    1.293   .     A
C520   C522    1.460   .     S
C521   C532    1.392   .     A
C522   C532    1.398   .     A
C522   C531    1.395   .     A
C523   C524    1.387   .     A
C523   H547    1.084   .     S
C524   C21     1.392   1_556 S
C524   Cl30    1.756   1_556 S
C525   H548    1.076   .     S
C526   C530    1.412   .     A
C527   C531    1.402   .     A
C528   C529    1.391   .     A
C528   C17     1.404   1_556 S
C528   C23     1.421   1_556 S
C529   C530    1.386   .     A
C529   H545    1.084   .     S
C530   H542    1.080   .     S
C531   H546    1.076   .     S
C532   H549    1.083   .     S
Cu536  O555    1.955   .     S
Cu536  O559    1.942   .     S
Cu536  Cu537   2.678   .     S
Cu536  N551    2.013   .     S
Cu536  O553    1.959   .     S
Cu536  O557    1.959   .     S
Cu537  O560    1.955   .     S
Cu537  O556    1.942   .     S
Cu537  O558    1.959   .     S
Cu537  N552    2.013   .     S
Cu537  O554    1.959   .     S
H541   C17     1.084   1_556 S
C561   O610    1.291   .     A
C561   C569    1.450   .     S
C561   O609    1.290   .     A
C562   C582    1.419   .     A
C562   C564    1.471   .     S
C562   C579    1.402   .     A
C563   C569    1.412   .     A
C563   Cl591   1.764   .     S
C563   C733    1.386   .     S
C564   O612    1.295   .     A
C564   O611    1.297   .     A
C565   H606    1.084   .     S
C565   C566    1.394   .     A
C565   C899    1.386   1_545 S
C566   C567    1.394   .     A
C566   C575    1.439   .     S
C567   H594    1.084   .     S
C567   C904    1.386   1_545 S
C568   Cl589   1.765   .     S
C568   C569    1.412   .     A
C568   C735    1.386   .     S
C570   N608    1.367   .     A
C570   H599    1.081   .     S
C570   C627    1.416   .     S
C571   N607    1.367   .     A
C571   H595    1.082   .     S
C572   C582    1.419   .     A
C572   C77     1.419   1_556 S
C572   C79     1.424   1_556 S
C573   N607    1.368   .     A
C573   H600    1.082   .     S
C574   H596    1.082   .     S
C574   N608    1.367   .     A
C574   C629    1.417   .     S
C575   O613    1.289   .     A
C575   O614    1.289   .     A
C576   O616    1.295   .     A
C576   O615    1.293   .     A
C576   C578    1.460   .     S
C577   C588    1.392   .     A
C578   C588    1.398   .     A
C578   C587    1.395   .     A
C579   C580    1.387   .     A
C579   H603    1.084   .     S
C580   C77     1.392   1_556 S
C580   Cl86    1.756   1_556 S
C581   H604    1.076   .     S
C582   C586    1.412   .     A
C583   C587    1.402   .     A
C584   C585    1.391   .     A
C584   C73     1.404   1_556 S
C584   C79     1.421   1_556 S
C585   C586    1.386   .     A
C585   H601    1.084   .     S
C586   H598    1.080   .     S
C587   H602    1.076   .     S
C588   H605    1.083   .     S
Cu592  O611    1.955   .     S
Cu592  O615    1.942   .     S
Cu592  Cu593   2.678   .     S
Cu592  N607    2.013   .     S
Cu592  O609    1.959   .     S
Cu592  O613    1.959   .     S
Cu593  O616    1.955   .     S
Cu593  O612    1.942   .     S
Cu593  O614    1.959   .     S
Cu593  N608    2.013   .     S
Cu593  O610    1.959   .     S
H597   C73     1.084   1_556 S
C617   O666    1.291   .     A
C617   C625    1.450   .     S
C617   O665    1.290   .     A
C618   C638    1.419   .     A
C618   C620    1.471   .     S
C618   C635    1.402   .     A
C619   C625    1.412   .     A
C619   Cl647   1.764   .     S
C619   C789    1.386   .     S
C620   O668    1.295   .     A
C620   O667    1.297   .     A
C621   H662    1.084   .     S
C621   C622    1.394   .     A
C621   C955    1.386   1_545 S
C622   C623    1.394   .     A
C622   C631    1.439   .     S
C623   H650    1.084   .     S
C623   C960    1.386   1_545 S
C624   Cl645   1.765   .     S
C624   C625    1.412   .     A
C624   C791    1.386   .     S
C626   N664    1.367   .     A
C626   H655    1.081   .     S
C626   C515    1.416   1_655 S
C627   N663    1.367   .     A
C627   H651    1.082   .     S
C628   C638    1.419   .     A
C628   C133    1.419   1_556 S
C628   C135    1.424   1_556 S
C629   N663    1.368   .     A
C629   H656    1.082   .     S
C630   H652    1.082   .     S
C630   N664    1.367   .     A
C630   C517    1.417   1_655 S
C631   O669    1.289   .     A
C631   O670    1.289   .     A
C632   O672    1.295   .     A
C632   O671    1.293   .     A
C632   C634    1.460   .     S
C633   C644    1.392   .     A
C634   C644    1.398   .     A
C634   C643    1.395   .     A
C635   C636    1.387   .     A
C635   H659    1.084   .     S
C636   C133    1.392   1_556 S
C636   Cl142   1.756   1_556 S
C637   H660    1.076   .     S
C638   C642    1.412   .     A
C639   C643    1.402   .     A
C640   C641    1.391   .     A
C640   C129    1.404   1_556 S
C640   C135    1.421   1_556 S
C641   C642    1.386   .     A
C641   H657    1.084   .     S
C642   H654    1.080   .     S
C643   H658    1.076   .     S
C644   H661    1.083   .     S
Cu648  O667    1.955   .     S
Cu648  O671    1.942   .     S
Cu648  Cu649   2.678   .     S
Cu648  N663    2.013   .     S
Cu648  O665    1.959   .     S
Cu648  O669    1.959   .     S
Cu649  O672    1.955   .     S
Cu649  O668    1.942   .     S
Cu649  O670    1.959   .     S
Cu649  N664    2.013   .     S
Cu649  O666    1.959   .     S
H653   C129    1.084   1_556 S
C673   O722    1.291   .     A
C673   C681    1.450   .     S
C673   O721    1.290   .     A
C674   C694    1.419   .     A
C674   C676    1.471   .     S
C674   C691    1.402   .     A
C675   C681    1.412   .     A
C675   Cl703   1.764   .     S
C675   C845    1.386   .     S
C676   O724    1.295   .     A
C676   O723    1.297   .     A
C677   H718    1.084   .     S
C677   C678    1.394   .     A
C678   C679    1.394   .     A
C678   C687    1.439   .     S
C679   H706    1.084   .     S
C680   Cl701   1.765   .     S
C680   C681    1.412   .     A
C680   C847    1.386   .     S
C682   N720    1.367   .     A
C682   H711    1.081   .     S
C682   C739    1.416   .     S
C683   N719    1.367   .     A
C683   H707    1.082   .     S
C683   C794    1.416   1_455 S
C684   C694    1.419   .     A
C684   C189    1.419   1_556 S
C684   C191    1.424   1_556 S
C685   N719    1.368   .     A
C685   H712    1.082   .     S
C685   C798    1.417   1_455 S
C686   H708    1.082   .     S
C686   N720    1.367   .     A
C686   C741    1.417   .     S
C687   O725    1.289   .     A
C687   O726    1.289   .     A
C688   O728    1.295   .     A
C688   O727    1.293   .     A
C688   C690    1.460   .     S
C689   C700    1.392   .     A
C690   C700    1.398   .     A
C690   C699    1.395   .     A
C691   C692    1.387   .     A
C691   H715    1.084   .     S
C692   C189    1.392   1_556 S
C692   Cl198   1.756   1_556 S
C693   H716    1.076   .     S
C694   C698    1.412   .     A
C695   C699    1.402   .     A
C696   C697    1.391   .     A
C696   C185    1.404   1_556 S
C696   C191    1.421   1_556 S
C697   C698    1.386   .     A
C697   H713    1.084   .     S
C698   H710    1.080   .     S
C699   H714    1.076   .     S
C700   H717    1.083   .     S
Cu704  O723    1.955   .     S
Cu704  O727    1.942   .     S
Cu704  Cu705   2.678   .     S
Cu704  N719    2.013   .     S
Cu704  O721    1.959   .     S
Cu704  O725    1.959   .     S
Cu705  O728    1.955   .     S
Cu705  O724    1.942   .     S
Cu705  O726    1.959   .     S
Cu705  N720    2.013   .     S
Cu705  O722    1.959   .     S
H709   C185    1.084   1_556 S
C729   O778    1.291   .     A
C729   C737    1.450   .     S
C729   O777    1.290   .     A
C730   C750    1.419   .     A
C730   C732    1.471   .     S
C730   C747    1.402   .     A
C731   C737    1.412   .     A
C731   Cl759   1.764   .     S
C731   C901    1.386   .     S
C732   O780    1.295   .     A
C732   O779    1.297   .     A
C733   H774    1.084   .     S
C733   C734    1.394   .     A
C734   C735    1.394   .     A
C734   C743    1.439   .     S
C735   H762    1.084   .     S
C736   Cl757   1.765   .     S
C736   C737    1.412   .     A
C736   C903    1.386   .     S
C738   N776    1.367   .     A
C738   H767    1.081   .     S
C738   C795    1.416   .     S
C739   N775    1.367   .     A
C739   H763    1.082   .     S
C740   C750    1.419   .     A
C740   C245    1.419   1_556 S
C740   C247    1.424   1_556 S
C741   N775    1.368   .     A
C741   H768    1.082   .     S
C742   H764    1.082   .     S
C742   N776    1.367   .     A
C742   C797    1.417   .     S
C743   O781    1.289   .     A
C743   O782    1.289   .     A
C744   O784    1.295   .     A
C744   O783    1.293   .     A
C744   C746    1.460   .     S
C745   C756    1.392   .     A
C746   C756    1.398   .     A
C746   C755    1.395   .     A
C747   C748    1.387   .     A
C747   H771    1.084   .     S
C748   C245    1.392   1_556 S
C748   Cl254   1.756   1_556 S
C749   H772    1.076   .     S
C750   C754    1.412   .     A
C751   C755    1.402   .     A
C752   C753    1.391   .     A
C752   C241    1.404   1_556 S
C752   C247    1.421   1_556 S
C753   C754    1.386   .     A
C753   H769    1.084   .     S
C754   H766    1.080   .     S
C755   H770    1.076   .     S
C756   H773    1.083   .     S
Cu760  O779    1.955   .     S
Cu760  O783    1.942   .     S
Cu760  Cu761   2.678   .     S
Cu760  N775    2.013   .     S
Cu760  O777    1.959   .     S
Cu760  O781    1.959   .     S
Cu761  O784    1.955   .     S
Cu761  O780    1.942   .     S
Cu761  O782    1.959   .     S
Cu761  N776    2.013   .     S
Cu761  O778    1.959   .     S
H765   C241    1.084   1_556 S
C785   O834    1.291   .     A
C785   C793    1.450   .     S
C785   O833    1.290   .     A
C786   C806    1.419   .     A
C786   C788    1.471   .     S
C786   C803    1.402   .     A
C787   C793    1.412   .     A
C787   Cl815   1.764   .     S
C787   C957    1.386   .     S
C788   O836    1.295   .     A
C788   O835    1.297   .     A
C789   H830    1.084   .     S
C789   C790    1.394   .     A
C790   C791    1.394   .     A
C790   C799    1.439   .     S
C791   H818    1.084   .     S
C792   Cl813   1.765   .     S
C792   C793    1.412   .     A
C792   C959    1.386   .     S
C794   N832    1.367   .     A
C794   H823    1.081   .     S
C794   C683    1.416   1_655 S
C795   N831    1.367   .     A
C795   H819    1.082   .     S
C796   C806    1.419   .     A
C796   C301    1.419   1_556 S
C796   C303    1.424   1_556 S
C797   N831    1.368   .     A
C797   H824    1.082   .     S
C798   H820    1.082   .     S
C798   N832    1.367   .     A
C798   C685    1.417   1_655 S
C799   O837    1.289   .     A
C799   O838    1.289   .     A
C800   O840    1.295   .     A
C800   O839    1.293   .     A
C800   C802    1.460   .     S
C801   C812    1.392   .     A
C802   C812    1.398   .     A
C802   C811    1.395   .     A
C803   C804    1.387   .     A
C803   H827    1.084   .     S
C804   C301    1.392   1_556 S
C804   Cl310   1.756   1_556 S
C805   H828    1.076   .     S
C806   C810    1.412   .     A
C807   C811    1.402   .     A
C808   C809    1.391   .     A
C808   C297    1.404   1_556 S
C808   C303    1.421   1_556 S
C809   C810    1.386   .     A
C809   H825    1.084   .     S
C810   H822    1.080   .     S
C811   H826    1.076   .     S
C812   H829    1.083   .     S
Cu816  O835    1.955   .     S
Cu816  O839    1.942   .     S
Cu816  Cu817   2.678   .     S
Cu816  N831    2.013   .     S
Cu816  O833    1.959   .     S
Cu816  O837    1.959   .     S
Cu817  O840    1.955   .     S
Cu817  O836    1.942   .     S
Cu817  O838    1.959   .     S
Cu817  N832    2.013   .     S
Cu817  O834    1.959   .     S
H821   C297    1.084   1_556 S
C841   O890    1.291   .     A
C841   C849    1.450   .     S
C841   O889    1.290   .     A
C842   C862    1.419   .     A
C842   C844    1.471   .     S
C842   C859    1.402   .     A
C843   C849    1.412   .     A
C843   Cl871   1.764   .     S
C843   C509    1.386   1_565 S
C844   O892    1.295   .     A
C844   O891    1.297   .     A
C845   H886    1.084   .     S
C845   C846    1.394   .     A
C846   C847    1.394   .     A
C846   C855    1.439   .     S
C847   H874    1.084   .     S
C848   Cl869   1.765   .     S
C848   C849    1.412   .     A
C848   C511    1.386   1_565 S
C850   N888    1.367   .     A
C850   H879    1.081   .     S
C850   C907    1.416   .     S
C851   N887    1.367   .     A
C851   H875    1.082   .     S
C851   C962    1.416   1_455 S
C852   C862    1.419   .     A
C852   C357    1.419   1_556 S
C852   C359    1.424   1_556 S
C853   N887    1.368   .     A
C853   H880    1.082   .     S
C853   C966    1.417   1_455 S
C854   H876    1.082   .     S
C854   N888    1.367   .     A
C854   C909    1.417   .     S
C855   O893    1.289   .     A
C855   O894    1.289   .     A
C856   O896    1.295   .     A
C856   O895    1.293   .     A
C856   C858    1.460   .     S
C857   C868    1.392   .     A
C858   C868    1.398   .     A
C858   C867    1.395   .     A
C859   C860    1.387   .     A
C859   H883    1.084   .     S
C860   C357    1.392   1_556 S
C860   Cl366   1.756   1_556 S
C861   H884    1.076   .     S
C862   C866    1.412   .     A
C863   C867    1.402   .     A
C864   C865    1.391   .     A
C864   C353    1.404   1_556 S
C864   C359    1.421   1_556 S
C865   C866    1.386   .     A
C865   H881    1.084   .     S
C866   H878    1.080   .     S
C867   H882    1.076   .     S
C868   H885    1.083   .     S
Cu872  O891    1.955   .     S
Cu872  O895    1.942   .     S
Cu872  Cu873   2.678   .     S
Cu872  N887    2.013   .     S
Cu872  O889    1.959   .     S
Cu872  O893    1.959   .     S
Cu873  O896    1.955   .     S
Cu873  O892    1.942   .     S
Cu873  O894    1.959   .     S
Cu873  N888    2.013   .     S
Cu873  O890    1.959   .     S
H877   C353    1.084   1_556 S
C897   O946    1.291   .     A
C897   C905    1.450   .     S
C897   O945    1.290   .     A
C898   C918    1.419   .     A
C898   C900    1.471   .     S
C898   C915    1.402   .     A
C899   C905    1.412   .     A
C899   Cl927   1.764   .     S
C899   C565    1.386   1_565 S
C900   O948    1.295   .     A
C900   O947    1.297   .     A
C901   H942    1.084   .     S
C901   C902    1.394   .     A
C902   C903    1.394   .     A
C902   C911    1.439   .     S
C903   H930    1.084   .     S
C904   Cl925   1.765   .     S
C904   C905    1.412   .     A
C904   C567    1.386   1_565 S
C906   N944    1.367   .     A
C906   H935    1.081   .     S
C906   C963    1.416   .     S
C907   N943    1.367   .     A
C907   H931    1.082   .     S
C908   C918    1.419   .     A
C908   C413    1.419   1_556 S
C908   C415    1.424   1_556 S
C909   N943    1.368   .     A
C909   H936    1.082   .     S
C910   H932    1.082   .     S
C910   N944    1.367   .     A
C910   C965    1.417   .     S
C911   O949    1.289   .     A
C911   O950    1.289   .     A
C912   O952    1.295   .     A
C912   O951    1.293   .     A
C912   C914    1.460   .     S
C913   C924    1.392   .     A
C914   C924    1.398   .     A
C914   C923    1.395   .     A
C915   C916    1.387   .     A
C915   H939    1.084   .     S
C916   C413    1.392   1_556 S
C916   Cl422   1.756   1_556 S
C917   H940    1.076   .     S
C918   C922    1.412   .     A
C919   C923    1.402   .     A
C920   C921    1.391   .     A
C920   C409    1.404   1_556 S
C920   C415    1.421   1_556 S
C921   C922    1.386   .     A
C921   H937    1.084   .     S
C922   H934    1.080   .     S
C923   H938    1.076   .     S
C924   H941    1.083   .     S
Cu928  O947    1.955   .     S
Cu928  O951    1.942   .     S
Cu928  Cu929   2.678   .     S
Cu928  N943    2.013   .     S
Cu928  O945    1.959   .     S
Cu928  O949    1.959   .     S
Cu929  O952    1.955   .     S
Cu929  O948    1.942   .     S
Cu929  O950    1.959   .     S
Cu929  N944    2.013   .     S
Cu929  O946    1.959   .     S
H933   C409    1.084   1_556 S
C953   O1002   1.291   .     A
C953   C961    1.450   .     S
C953   O1001   1.290   .     A
C954   C974    1.419   .     A
C954   C956    1.471   .     S
C954   C971    1.402   .     A
C955   C961    1.412   .     A
C955   Cl983   1.764   .     S
C955   C621    1.386   1_565 S
C956   O1004   1.295   .     A
C956   O1003   1.297   .     A
C957   H998    1.084   .     S
C957   C958    1.394   .     A
C958   C959    1.394   .     A
C958   C967    1.439   .     S
C959   H986    1.084   .     S
C960   Cl981   1.765   .     S
C960   C961    1.412   .     A
C960   C623    1.386   1_565 S
C962   N1000   1.367   .     A
C962   H991    1.081   .     S
C962   C851    1.416   1_655 S
C963   N999    1.367   .     A
C963   H987    1.082   .     S
C964   C974    1.419   .     A
C964   C469    1.419   1_556 S
C964   C471    1.424   1_556 S
C965   N999    1.368   .     A
C965   H992    1.082   .     S
C966   H988    1.082   .     S
C966   N1000   1.367   .     A
C966   C853    1.417   1_655 S
C967   O1005   1.289   .     A
C967   O1006   1.289   .     A
C968   O1008   1.295   .     A
C968   O1007   1.293   .     A
C968   C970    1.460   .     S
C969   C980    1.392   .     A
C970   C980    1.398   .     A
C970   C979    1.395   .     A
C971   C972    1.387   .     A
C971   H995    1.084   .     S
C972   C469    1.392   1_556 S
C972   Cl478   1.756   1_556 S
C973   H996    1.076   .     S
C974   C978    1.412   .     A
C975   C979    1.402   .     A
C976   C977    1.391   .     A
C976   C465    1.404   1_556 S
C976   C471    1.421   1_556 S
C977   C978    1.386   .     A
C977   H993    1.084   .     S
C978   H990    1.080   .     S
C979   H994    1.076   .     S
C980   H997    1.083   .     S
Cu984  O1003   1.955   .     S
Cu984  O1007   1.942   .     S
Cu984  Cu985   2.678   .     S
Cu984  N999    2.013   .     S
Cu984  O1001   1.959   .     S
Cu984  O1005   1.959   .     S
Cu985  O1008   1.955   .     S
Cu985  O1004   1.942   .     S
Cu985  O1006   1.959   .     S
Cu985  N1000   2.013   .     S
Cu985  O1002   1.959   .     S
H989   C465    1.084   1_556 S
