data_str_m2_o10_o16_pcu_sym.83
_audit_creation_date              2020-01-03
_audit_creation_method            'Materials Studio'
_symmetry_space_group_name_H-M    'P1'
_symmetry_Int_Tables_number       1
_symmetry_cell_setting            triclinic
loop_
_symmetry_equiv_pos_as_xyz
  x,y,z
_cell_length_a                    22.2644
_cell_length_b                    26.0613
_cell_length_c                    26.9184
_cell_angle_alpha                 94.0806
_cell_angle_beta                  77.3231
_cell_angle_gamma                 103.1786
loop_
_atom_site_label
_atom_site_type_symbol
_atom_site_fract_x
_atom_site_fract_y
_atom_site_fract_z
_atom_site_U_iso_or_equiv
_atom_site_adp_type
_atom_site_occupancy
C1     C     0.18176   0.26675   0.25160   0.00000  Uiso   1.00
C2     C     0.11125   0.14898   0.40151   0.00000  Uiso   1.00
C3     C     0.19025   0.32272   0.25246   0.00000  Uiso   1.00
C4     C     0.13245   0.16239   0.34708   0.00000  Uiso   1.00
C5     C     0.14293   0.01062   0.24793   0.00000  Uiso   1.00
C6     C     0.15151   0.06658   0.24857   0.00000  Uiso   1.00
C7     C     0.20015   0.16773   0.15283   0.00000  Uiso   1.00
C8     C     0.28772   0.22082   0.02646   0.00000  Uiso   1.00
C9     C     0.21981   0.16992   0.09686   0.00000  Uiso   1.00
C10    C     0.06065   0.10501   0.41616   0.00000  Uiso   1.00
C11    C     0.06227   0.07440   0.45618   0.00000  Uiso   1.00
C12    C     0.14954   0.14002   0.47878   0.00000  Uiso   1.00
C13    C     0.10858   0.08985   0.48460   0.00000  Uiso   1.00
C14    C     0.11487   0.11334   0.08971   0.00000  Uiso   1.00
C15    C     0.00775   0.08846   0.38901   0.00000  Uiso   1.00
C16    C     0.15340   0.16839   0.43476   0.00000  Uiso   1.00
C17    C     0.18958   0.16150   0.01352   0.00000  Uiso   1.00
C18    C     0.24249   0.20306   0.49672   0.00000  Uiso   1.00
C19    C     0.24771   0.22896   0.45189   0.00000  Uiso   1.00
C20    C     0.20126   0.21436   0.42353   0.00000  Uiso   1.00
C21    C     0.17660   0.14667   0.06542   0.00000  Uiso   1.00
C22    C     0.27705   0.20345   0.07583   0.00000  Uiso   1.00
Cu23   Cu    0.10710   0.16105   0.24435   0.00000  Uiso   1.00
Cu24   Cu    0.22623   0.17228   0.25564   0.00000  Uiso   1.00
H25    H     0.31059   0.22085   0.09929   0.00000  Uiso   1.00
H26    H     0.23583   0.01323   0.25677   0.00000  Uiso   1.00
H27    H     0.11359   0.08046   0.11281   0.00000  Uiso   1.00
H28    H     0.32744   0.11679   0.36858   0.00000  Uiso   1.00
H29    H     0.09734   0.32011   0.24365   0.00000  Uiso   1.00
H30    H     0.00364   0.20576   0.28969   0.00000  Uiso   1.00
H31    H     0.32968   0.12754   0.21034   0.00000  Uiso   1.00
H32    H     0.28595   0.26267   0.44028   0.00000  Uiso   1.00
H33    H     0.32959   0.25083   0.01266   0.00000  Uiso   1.00
H34    H     0.11155   0.06179   0.01108   0.00000  Uiso   1.00
H35    H     0.02808   0.03766   0.46514   0.00000  Uiso   1.00
H36    H     0.20418   0.23881   0.39185   0.00000  Uiso   1.00
N37    N     0.31574   0.18074   0.26416   0.00000  Uiso   1.00
N38    N     0.01759   0.15259   0.23584   0.00000  Uiso   1.00
O39    O     0.12797   0.23807   0.24633   0.00000  Uiso   1.00
O40    O     0.31057   0.04305   0.39052   0.00000  Uiso   1.00
O41    O     0.22858   0.24755   0.25586   0.00000  Uiso   1.00
O42    O     0.09181   0.15960   0.31839   0.00000  Uiso   1.00
O43    O     0.19242   0.16908   0.32793   0.00000  Uiso   1.00
O44    O     0.10476   0.08578   0.24414   0.00000  Uiso   1.00
O45    O     0.20536   0.09526   0.25367   0.00000  Uiso   1.00
O46    O     0.14092   0.16425   0.17207   0.00000  Uiso   1.00
O47    O     0.24152   0.17373   0.18160   0.00000  Uiso   1.00
O48    O     0.06540   0.12442   0.08656   0.00000  Uiso   1.00
C49    C     0.51509   0.26675   0.25160   0.00000  Uiso   1.00
C50    C     0.44458   0.14898   0.40151   0.00000  Uiso   1.00
C51    C     0.52358   0.32272   0.25246   0.00000  Uiso   1.00
C52    C     0.46578   0.16239   0.34708   0.00000  Uiso   1.00
C53    C     0.47627   0.01062   0.24793   0.00000  Uiso   1.00
C54    C     0.48484   0.06658   0.24857   0.00000  Uiso   1.00
C55    C     0.53348   0.16773   0.15283   0.00000  Uiso   1.00
C56    C     0.62105   0.22082   0.02646   0.00000  Uiso   1.00
C57    C     0.55314   0.16992   0.09686   0.00000  Uiso   1.00
C58    C     0.39399   0.10501   0.41616   0.00000  Uiso   1.00
C59    C     0.39560   0.07440   0.45618   0.00000  Uiso   1.00
C60    C     0.48288   0.14002   0.47878   0.00000  Uiso   1.00
C61    C     0.44192   0.08985   0.48460   0.00000  Uiso   1.00
C62    C     0.44820   0.11334   0.08971   0.00000  Uiso   1.00
C63    C     0.34108   0.08846   0.38901   0.00000  Uiso   1.00
C64    C     0.48674   0.16839   0.43476   0.00000  Uiso   1.00
C65    C     0.52291   0.16150   0.01352   0.00000  Uiso   1.00
C66    C     0.57583   0.20306   0.49672   0.00000  Uiso   1.00
C67    C     0.58104   0.22896   0.45189   0.00000  Uiso   1.00
C68    C     0.53459   0.21436   0.42353   0.00000  Uiso   1.00
C69    C     0.50994   0.14667   0.06542   0.00000  Uiso   1.00
C70    C     0.61039   0.20345   0.07583   0.00000  Uiso   1.00
Cu71   Cu    0.44043   0.16105   0.24435   0.00000  Uiso   1.00
Cu72   Cu    0.55957   0.17228   0.25564   0.00000  Uiso   1.00
H73    H     0.64393   0.22085   0.09929   0.00000  Uiso   1.00
H74    H     0.56916   0.01323   0.25677   0.00000  Uiso   1.00
H75    H     0.44692   0.08046   0.11281   0.00000  Uiso   1.00
H76    H     0.66077   0.11679   0.36858   0.00000  Uiso   1.00
H77    H     0.43068   0.32011   0.24365   0.00000  Uiso   1.00
H78    H     0.33697   0.20576   0.28969   0.00000  Uiso   1.00
H79    H     0.66301   0.12754   0.21034   0.00000  Uiso   1.00
H80    H     0.61928   0.26267   0.44028   0.00000  Uiso   1.00
H81    H     0.66292   0.25083   0.01266   0.00000  Uiso   1.00
H82    H     0.44488   0.06179   0.01108   0.00000  Uiso   1.00
H83    H     0.36141   0.03766   0.46514   0.00000  Uiso   1.00
H84    H     0.53751   0.23881   0.39185   0.00000  Uiso   1.00
N85    N     0.64908   0.18074   0.26416   0.00000  Uiso   1.00
N86    N     0.35092   0.15259   0.23584   0.00000  Uiso   1.00
O87    O     0.46131   0.23807   0.24633   0.00000  Uiso   1.00
O88    O     0.64390   0.04305   0.39052   0.00000  Uiso   1.00
O89    O     0.56191   0.24755   0.25586   0.00000  Uiso   1.00
O90    O     0.42515   0.15960   0.31839   0.00000  Uiso   1.00
O91    O     0.52575   0.16908   0.32793   0.00000  Uiso   1.00
O92    O     0.43809   0.08578   0.24414   0.00000  Uiso   1.00
O93    O     0.53869   0.09526   0.25367   0.00000  Uiso   1.00
O94    O     0.47425   0.16425   0.17207   0.00000  Uiso   1.00
O95    O     0.57485   0.17373   0.18160   0.00000  Uiso   1.00
O96    O     0.39874   0.12442   0.08656   0.00000  Uiso   1.00
C97    C     0.84843   0.26675   0.25160   0.00000  Uiso   1.00
C98    C     0.77791   0.14898   0.40151   0.00000  Uiso   1.00
C99    C     0.85692   0.32272   0.25246   0.00000  Uiso   1.00
C100   C     0.79911   0.16239   0.34708   0.00000  Uiso   1.00
C101   C     0.80960   0.01062   0.24793   0.00000  Uiso   1.00
C102   C     0.81817   0.06658   0.24857   0.00000  Uiso   1.00
C103   C     0.86681   0.16773   0.15283   0.00000  Uiso   1.00
C104   C     0.95438   0.22082   0.02646   0.00000  Uiso   1.00
C105   C     0.88647   0.16992   0.09686   0.00000  Uiso   1.00
C106   C     0.72732   0.10501   0.41616   0.00000  Uiso   1.00
C107   C     0.72893   0.07440   0.45618   0.00000  Uiso   1.00
C108   C     0.81621   0.14002   0.47878   0.00000  Uiso   1.00
C109   C     0.77525   0.08985   0.48460   0.00000  Uiso   1.00
C110   C     0.78153   0.11334   0.08971   0.00000  Uiso   1.00
C111   C     0.67442   0.08846   0.38901   0.00000  Uiso   1.00
C112   C     0.82007   0.16839   0.43476   0.00000  Uiso   1.00
C113   C     0.85624   0.16150   0.01352   0.00000  Uiso   1.00
C114   C     0.90916   0.20306   0.49672   0.00000  Uiso   1.00
C115   C     0.91437   0.22896   0.45189   0.00000  Uiso   1.00
C116   C     0.86792   0.21436   0.42353   0.00000  Uiso   1.00
C117   C     0.84327   0.14667   0.06542   0.00000  Uiso   1.00
C118   C     0.94372   0.20345   0.07583   0.00000  Uiso   1.00
Cu119  Cu    0.77377   0.16105   0.24435   0.00000  Uiso   1.00
Cu120  Cu    0.89290   0.17228   0.25564   0.00000  Uiso   1.00
H121   H     0.97726   0.22085   0.09929   0.00000  Uiso   1.00
H122   H     0.90249   0.01323   0.25677   0.00000  Uiso   1.00
H123   H     0.78025   0.08046   0.11281   0.00000  Uiso   1.00
H124   H     0.99411   0.11679   0.36858   0.00000  Uiso   1.00
H125   H     0.76401   0.32011   0.24365   0.00000  Uiso   1.00
H126   H     0.67031   0.20576   0.28969   0.00000  Uiso   1.00
H127   H     0.99635   0.12754   0.21034   0.00000  Uiso   1.00
H128   H     0.95262   0.26267   0.44028   0.00000  Uiso   1.00
H129   H     0.99625   0.25083   0.01266   0.00000  Uiso   1.00
H130   H     0.77822   0.06179   0.01108   0.00000  Uiso   1.00
H131   H     0.69474   0.03766   0.46514   0.00000  Uiso   1.00
H132   H     0.87085   0.23881   0.39185   0.00000  Uiso   1.00
N133   N     0.98241   0.18074   0.26416   0.00000  Uiso   1.00
N134   N     0.68426   0.15259   0.23584   0.00000  Uiso   1.00
O135   O     0.79464   0.23807   0.24633   0.00000  Uiso   1.00
O136   O     0.97724   0.04305   0.39052   0.00000  Uiso   1.00
O137   O     0.89524   0.24755   0.25586   0.00000  Uiso   1.00
O138   O     0.75848   0.15960   0.31839   0.00000  Uiso   1.00
O139   O     0.85908   0.16908   0.32793   0.00000  Uiso   1.00
O140   O     0.77142   0.08578   0.24414   0.00000  Uiso   1.00
O141   O     0.87203   0.09526   0.25367   0.00000  Uiso   1.00
O142   O     0.80758   0.16425   0.17207   0.00000  Uiso   1.00
O143   O     0.90819   0.17373   0.18160   0.00000  Uiso   1.00
O144   O     0.73207   0.12442   0.08656   0.00000  Uiso   1.00
C145   C     0.18176   0.60008   0.25160   0.00000  Uiso   1.00
C146   C     0.11125   0.48231   0.40151   0.00000  Uiso   1.00
C147   C     0.19025   0.65605   0.25246   0.00000  Uiso   1.00
C148   C     0.13245   0.49572   0.34708   0.00000  Uiso   1.00
C149   C     0.14293   0.34395   0.24793   0.00000  Uiso   1.00
C150   C     0.15151   0.39992   0.24857   0.00000  Uiso   1.00
C151   C     0.20015   0.50107   0.15283   0.00000  Uiso   1.00
C152   C     0.28772   0.55415   0.02646   0.00000  Uiso   1.00
C153   C     0.21981   0.50325   0.09686   0.00000  Uiso   1.00
C154   C     0.06065   0.43834   0.41616   0.00000  Uiso   1.00
C155   C     0.06227   0.40773   0.45618   0.00000  Uiso   1.00
C156   C     0.14954   0.47335   0.47878   0.00000  Uiso   1.00
C157   C     0.10858   0.42319   0.48460   0.00000  Uiso   1.00
C158   C     0.11487   0.44668   0.08971   0.00000  Uiso   1.00
C159   C     0.00775   0.42180   0.38901   0.00000  Uiso   1.00
C160   C     0.15340   0.50172   0.43476   0.00000  Uiso   1.00
C161   C     0.18958   0.49484   0.01352   0.00000  Uiso   1.00
C162   C     0.24249   0.53639   0.49672   0.00000  Uiso   1.00
C163   C     0.24771   0.56229   0.45189   0.00000  Uiso   1.00
C164   C     0.20126   0.54770   0.42353   0.00000  Uiso   1.00
C165   C     0.17660   0.48000   0.06542   0.00000  Uiso   1.00
C166   C     0.27705   0.53678   0.07583   0.00000  Uiso   1.00
Cu167  Cu    0.10710   0.49439   0.24435   0.00000  Uiso   1.00
Cu168  Cu    0.22623   0.50561   0.25564   0.00000  Uiso   1.00
H169   H     0.31059   0.55419   0.09929   0.00000  Uiso   1.00
H170   H     0.23583   0.34656   0.25677   0.00000  Uiso   1.00
H171   H     0.11359   0.41379   0.11281   0.00000  Uiso   1.00
H172   H     0.32744   0.45013   0.36858   0.00000  Uiso   1.00
H173   H     0.09734   0.65345   0.24365   0.00000  Uiso   1.00
H174   H     0.00364   0.53909   0.28969   0.00000  Uiso   1.00
H175   H     0.32968   0.46087   0.21034   0.00000  Uiso   1.00
H176   H     0.28595   0.59600   0.44028   0.00000  Uiso   1.00
H177   H     0.32959   0.58416   0.01266   0.00000  Uiso   1.00
H178   H     0.11155   0.39512   0.01108   0.00000  Uiso   1.00
H179   H     0.02808   0.37099   0.46514   0.00000  Uiso   1.00
H180   H     0.20418   0.57214   0.39185   0.00000  Uiso   1.00
N181   N     0.31574   0.51407   0.26416   0.00000  Uiso   1.00
N182   N     0.01759   0.48593   0.23584   0.00000  Uiso   1.00
O183   O     0.12797   0.57141   0.24633   0.00000  Uiso   1.00
O184   O     0.31057   0.37638   0.39052   0.00000  Uiso   1.00
O185   O     0.22858   0.58089   0.25586   0.00000  Uiso   1.00
O186   O     0.09181   0.49293   0.31839   0.00000  Uiso   1.00
O187   O     0.19242   0.50241   0.32793   0.00000  Uiso   1.00
O188   O     0.10476   0.41911   0.24414   0.00000  Uiso   1.00
O189   O     0.20536   0.42859   0.25367   0.00000  Uiso   1.00
O190   O     0.14092   0.49759   0.17207   0.00000  Uiso   1.00
O191   O     0.24152   0.50707   0.18160   0.00000  Uiso   1.00
O192   O     0.06540   0.45775   0.08656   0.00000  Uiso   1.00
C193   C     0.51509   0.60008   0.25160   0.00000  Uiso   1.00
C194   C     0.44458   0.48231   0.40151   0.00000  Uiso   1.00
C195   C     0.52358   0.65605   0.25246   0.00000  Uiso   1.00
C196   C     0.46578   0.49572   0.34708   0.00000  Uiso   1.00
C197   C     0.47627   0.34395   0.24793   0.00000  Uiso   1.00
C198   C     0.48484   0.39992   0.24857   0.00000  Uiso   1.00
C199   C     0.53348   0.50107   0.15283   0.00000  Uiso   1.00
C200   C     0.62105   0.55415   0.02646   0.00000  Uiso   1.00
C201   C     0.55314   0.50325   0.09686   0.00000  Uiso   1.00
C202   C     0.39399   0.43834   0.41616   0.00000  Uiso   1.00
C203   C     0.39560   0.40773   0.45618   0.00000  Uiso   1.00
C204   C     0.48288   0.47335   0.47878   0.00000  Uiso   1.00
C205   C     0.44192   0.42319   0.48460   0.00000  Uiso   1.00
C206   C     0.44820   0.44668   0.08971   0.00000  Uiso   1.00
C207   C     0.34108   0.42180   0.38901   0.00000  Uiso   1.00
C208   C     0.48674   0.50172   0.43476   0.00000  Uiso   1.00
C209   C     0.52291   0.49484   0.01352   0.00000  Uiso   1.00
C210   C     0.57583   0.53639   0.49672   0.00000  Uiso   1.00
C211   C     0.58104   0.56229   0.45189   0.00000  Uiso   1.00
C212   C     0.53459   0.54770   0.42353   0.00000  Uiso   1.00
C213   C     0.50994   0.48000   0.06542   0.00000  Uiso   1.00
C214   C     0.61039   0.53678   0.07583   0.00000  Uiso   1.00
Cu215  Cu    0.44043   0.49439   0.24435   0.00000  Uiso   1.00
Cu216  Cu    0.55957   0.50561   0.25564   0.00000  Uiso   1.00
H217   H     0.64393   0.55419   0.09929   0.00000  Uiso   1.00
H218   H     0.56916   0.34656   0.25677   0.00000  Uiso   1.00
H219   H     0.44692   0.41379   0.11281   0.00000  Uiso   1.00
H220   H     0.66077   0.45013   0.36858   0.00000  Uiso   1.00
H221   H     0.43068   0.65345   0.24365   0.00000  Uiso   1.00
H222   H     0.33697   0.53909   0.28969   0.00000  Uiso   1.00
H223   H     0.66301   0.46087   0.21034   0.00000  Uiso   1.00
H224   H     0.61928   0.59600   0.44028   0.00000  Uiso   1.00
H225   H     0.66292   0.58416   0.01266   0.00000  Uiso   1.00
H226   H     0.44488   0.39512   0.01108   0.00000  Uiso   1.00
H227   H     0.36141   0.37099   0.46514   0.00000  Uiso   1.00
H228   H     0.53751   0.57214   0.39185   0.00000  Uiso   1.00
N229   N     0.64908   0.51407   0.26416   0.00000  Uiso   1.00
N230   N     0.35092   0.48593   0.23584   0.00000  Uiso   1.00
O231   O     0.46131   0.57141   0.24633   0.00000  Uiso   1.00
O232   O     0.64390   0.37638   0.39052   0.00000  Uiso   1.00
O233   O     0.56191   0.58089   0.25586   0.00000  Uiso   1.00
O234   O     0.42515   0.49293   0.31839   0.00000  Uiso   1.00
O235   O     0.52575   0.50241   0.32793   0.00000  Uiso   1.00
O236   O     0.43809   0.41911   0.24414   0.00000  Uiso   1.00
O237   O     0.53869   0.42859   0.25367   0.00000  Uiso   1.00
O238   O     0.47425   0.49759   0.17207   0.00000  Uiso   1.00
O239   O     0.57485   0.50707   0.18160   0.00000  Uiso   1.00
O240   O     0.39874   0.45775   0.08656   0.00000  Uiso   1.00
C241   C     0.84843   0.60008   0.25160   0.00000  Uiso   1.00
C242   C     0.77791   0.48231   0.40151   0.00000  Uiso   1.00
C243   C     0.85692   0.65605   0.25246   0.00000  Uiso   1.00
C244   C     0.79911   0.49572   0.34708   0.00000  Uiso   1.00
C245   C     0.80960   0.34395   0.24793   0.00000  Uiso   1.00
C246   C     0.81817   0.39992   0.24857   0.00000  Uiso   1.00
C247   C     0.86681   0.50107   0.15283   0.00000  Uiso   1.00
C248   C     0.95438   0.55415   0.02646   0.00000  Uiso   1.00
C249   C     0.88647   0.50325   0.09686   0.00000  Uiso   1.00
C250   C     0.72732   0.43834   0.41616   0.00000  Uiso   1.00
C251   C     0.72893   0.40773   0.45618   0.00000  Uiso   1.00
C252   C     0.81621   0.47335   0.47878   0.00000  Uiso   1.00
C253   C     0.77525   0.42319   0.48460   0.00000  Uiso   1.00
C254   C     0.78153   0.44668   0.08971   0.00000  Uiso   1.00
C255   C     0.67442   0.42180   0.38901   0.00000  Uiso   1.00
C256   C     0.82007   0.50172   0.43476   0.00000  Uiso   1.00
C257   C     0.85624   0.49484   0.01352   0.00000  Uiso   1.00
C258   C     0.90916   0.53639   0.49672   0.00000  Uiso   1.00
C259   C     0.91437   0.56229   0.45189   0.00000  Uiso   1.00
C260   C     0.86792   0.54770   0.42353   0.00000  Uiso   1.00
C261   C     0.84327   0.48000   0.06542   0.00000  Uiso   1.00
C262   C     0.94372   0.53678   0.07583   0.00000  Uiso   1.00
Cu263  Cu    0.77377   0.49439   0.24435   0.00000  Uiso   1.00
Cu264  Cu    0.89290   0.50561   0.25564   0.00000  Uiso   1.00
H265   H     0.97726   0.55419   0.09929   0.00000  Uiso   1.00
H266   H     0.90249   0.34656   0.25677   0.00000  Uiso   1.00
H267   H     0.78025   0.41379   0.11281   0.00000  Uiso   1.00
H268   H     0.99411   0.45013   0.36858   0.00000  Uiso   1.00
H269   H     0.76401   0.65345   0.24365   0.00000  Uiso   1.00
H270   H     0.67031   0.53909   0.28969   0.00000  Uiso   1.00
H271   H     0.99635   0.46087   0.21034   0.00000  Uiso   1.00
H272   H     0.95262   0.59600   0.44028   0.00000  Uiso   1.00
H273   H     0.99625   0.58416   0.01266   0.00000  Uiso   1.00
H274   H     0.77822   0.39512   0.01108   0.00000  Uiso   1.00
H275   H     0.69474   0.37099   0.46514   0.00000  Uiso   1.00
H276   H     0.87085   0.57214   0.39185   0.00000  Uiso   1.00
N277   N     0.98241   0.51407   0.26416   0.00000  Uiso   1.00
N278   N     0.68426   0.48593   0.23584   0.00000  Uiso   1.00
O279   O     0.79464   0.57141   0.24633   0.00000  Uiso   1.00
O280   O     0.97724   0.37638   0.39052   0.00000  Uiso   1.00
O281   O     0.89524   0.58089   0.25586   0.00000  Uiso   1.00
O282   O     0.75848   0.49293   0.31839   0.00000  Uiso   1.00
O283   O     0.85908   0.50241   0.32793   0.00000  Uiso   1.00
O284   O     0.77142   0.41911   0.24414   0.00000  Uiso   1.00
O285   O     0.87203   0.42859   0.25367   0.00000  Uiso   1.00
O286   O     0.80758   0.49759   0.17207   0.00000  Uiso   1.00
O287   O     0.90819   0.50707   0.18160   0.00000  Uiso   1.00
O288   O     0.73207   0.45775   0.08656   0.00000  Uiso   1.00
C289   C     0.18176   0.93342   0.25160   0.00000  Uiso   1.00
C290   C     0.11125   0.81564   0.40151   0.00000  Uiso   1.00
C291   C     0.19025   0.98939   0.25246   0.00000  Uiso   1.00
C292   C     0.13245   0.82906   0.34708   0.00000  Uiso   1.00
C293   C     0.14293   0.67729   0.24793   0.00000  Uiso   1.00
C294   C     0.15151   0.73325   0.24857   0.00000  Uiso   1.00
C295   C     0.20015   0.83440   0.15283   0.00000  Uiso   1.00
C296   C     0.28772   0.88748   0.02646   0.00000  Uiso   1.00
C297   C     0.21981   0.83658   0.09686   0.00000  Uiso   1.00
C298   C     0.06065   0.77168   0.41616   0.00000  Uiso   1.00
C299   C     0.06227   0.74106   0.45618   0.00000  Uiso   1.00
C300   C     0.14954   0.80669   0.47878   0.00000  Uiso   1.00
C301   C     0.10858   0.75652   0.48460   0.00000  Uiso   1.00
C302   C     0.11487   0.78001   0.08971   0.00000  Uiso   1.00
C303   C     0.00775   0.75513   0.38901   0.00000  Uiso   1.00
C304   C     0.15340   0.83505   0.43476   0.00000  Uiso   1.00
C305   C     0.18958   0.82817   0.01352   0.00000  Uiso   1.00
C306   C     0.24249   0.86972   0.49672   0.00000  Uiso   1.00
C307   C     0.24771   0.89562   0.45189   0.00000  Uiso   1.00
C308   C     0.20126   0.88103   0.42353   0.00000  Uiso   1.00
C309   C     0.17660   0.81334   0.06542   0.00000  Uiso   1.00
C310   C     0.27705   0.87011   0.07583   0.00000  Uiso   1.00
Cu311  Cu    0.10710   0.82772   0.24435   0.00000  Uiso   1.00
Cu312  Cu    0.22623   0.83895   0.25564   0.00000  Uiso   1.00
H313   H     0.31059   0.88752   0.09929   0.00000  Uiso   1.00
H314   H     0.23583   0.67989   0.25677   0.00000  Uiso   1.00
H315   H     0.11359   0.74713   0.11281   0.00000  Uiso   1.00
H316   H     0.32744   0.78346   0.36858   0.00000  Uiso   1.00
H317   H     0.09734   0.98678   0.24365   0.00000  Uiso   1.00
H318   H     0.00364   0.87242   0.28969   0.00000  Uiso   1.00
H319   H     0.32968   0.79421   0.21034   0.00000  Uiso   1.00
H320   H     0.28595   0.92934   0.44028   0.00000  Uiso   1.00
H321   H     0.32959   0.91749   0.01266   0.00000  Uiso   1.00
H322   H     0.11155   0.72846   0.01108   0.00000  Uiso   1.00
H323   H     0.02808   0.70432   0.46514   0.00000  Uiso   1.00
H324   H     0.20418   0.90548   0.39185   0.00000  Uiso   1.00
N325   N     0.31574   0.84741   0.26416   0.00000  Uiso   1.00
N326   N     0.01759   0.81926   0.23584   0.00000  Uiso   1.00
O327   O     0.12797   0.90474   0.24633   0.00000  Uiso   1.00
O328   O     0.31057   0.70971   0.39052   0.00000  Uiso   1.00
O329   O     0.22858   0.91422   0.25586   0.00000  Uiso   1.00
O330   O     0.09181   0.82627   0.31839   0.00000  Uiso   1.00
O331   O     0.19242   0.83575   0.32793   0.00000  Uiso   1.00
O332   O     0.10476   0.75245   0.24414   0.00000  Uiso   1.00
O333   O     0.20536   0.76193   0.25367   0.00000  Uiso   1.00
O334   O     0.14092   0.83092   0.17207   0.00000  Uiso   1.00
O335   O     0.24152   0.84040   0.18160   0.00000  Uiso   1.00
O336   O     0.06540   0.79109   0.08656   0.00000  Uiso   1.00
C337   C     0.51509   0.93342   0.25160   0.00000  Uiso   1.00
C338   C     0.44458   0.81564   0.40151   0.00000  Uiso   1.00
C339   C     0.52358   0.98939   0.25246   0.00000  Uiso   1.00
C340   C     0.46578   0.82906   0.34708   0.00000  Uiso   1.00
C341   C     0.47627   0.67729   0.24793   0.00000  Uiso   1.00
C342   C     0.48484   0.73325   0.24857   0.00000  Uiso   1.00
C343   C     0.53348   0.83440   0.15283   0.00000  Uiso   1.00
C344   C     0.62105   0.88748   0.02646   0.00000  Uiso   1.00
C345   C     0.55314   0.83658   0.09686   0.00000  Uiso   1.00
C346   C     0.39399   0.77168   0.41616   0.00000  Uiso   1.00
C347   C     0.39560   0.74106   0.45618   0.00000  Uiso   1.00
C348   C     0.48288   0.80669   0.47878   0.00000  Uiso   1.00
C349   C     0.44192   0.75652   0.48460   0.00000  Uiso   1.00
C350   C     0.44820   0.78001   0.08971   0.00000  Uiso   1.00
C351   C     0.34108   0.75513   0.38901   0.00000  Uiso   1.00
C352   C     0.48674   0.83505   0.43476   0.00000  Uiso   1.00
C353   C     0.52291   0.82817   0.01352   0.00000  Uiso   1.00
C354   C     0.57583   0.86972   0.49672   0.00000  Uiso   1.00
C355   C     0.58104   0.89562   0.45189   0.00000  Uiso   1.00
C356   C     0.53459   0.88103   0.42353   0.00000  Uiso   1.00
C357   C     0.50994   0.81334   0.06542   0.00000  Uiso   1.00
C358   C     0.61039   0.87011   0.07583   0.00000  Uiso   1.00
Cu359  Cu    0.44043   0.82772   0.24435   0.00000  Uiso   1.00
Cu360  Cu    0.55957   0.83895   0.25564   0.00000  Uiso   1.00
H361   H     0.64393   0.88752   0.09929   0.00000  Uiso   1.00
H362   H     0.56916   0.67989   0.25677   0.00000  Uiso   1.00
H363   H     0.44692   0.74713   0.11281   0.00000  Uiso   1.00
H364   H     0.66077   0.78346   0.36858   0.00000  Uiso   1.00
H365   H     0.43068   0.98678   0.24365   0.00000  Uiso   1.00
H366   H     0.33697   0.87242   0.28969   0.00000  Uiso   1.00
H367   H     0.66301   0.79421   0.21034   0.00000  Uiso   1.00
H368   H     0.61928   0.92934   0.44028   0.00000  Uiso   1.00
H369   H     0.66292   0.91749   0.01266   0.00000  Uiso   1.00
H370   H     0.44488   0.72846   0.01108   0.00000  Uiso   1.00
H371   H     0.36141   0.70432   0.46514   0.00000  Uiso   1.00
H372   H     0.53751   0.90548   0.39185   0.00000  Uiso   1.00
N373   N     0.64908   0.84741   0.26416   0.00000  Uiso   1.00
N374   N     0.35092   0.81926   0.23584   0.00000  Uiso   1.00
O375   O     0.46131   0.90474   0.24633   0.00000  Uiso   1.00
O376   O     0.64390   0.70971   0.39052   0.00000  Uiso   1.00
O377   O     0.56191   0.91422   0.25586   0.00000  Uiso   1.00
O378   O     0.42515   0.82627   0.31839   0.00000  Uiso   1.00
O379   O     0.52575   0.83575   0.32793   0.00000  Uiso   1.00
O380   O     0.43809   0.75245   0.24414   0.00000  Uiso   1.00
O381   O     0.53869   0.76193   0.25367   0.00000  Uiso   1.00
O382   O     0.47425   0.83092   0.17207   0.00000  Uiso   1.00
O383   O     0.57485   0.84040   0.18160   0.00000  Uiso   1.00
O384   O     0.39874   0.79109   0.08656   0.00000  Uiso   1.00
C385   C     0.84843   0.93342   0.25160   0.00000  Uiso   1.00
C386   C     0.77791   0.81564   0.40151   0.00000  Uiso   1.00
C387   C     0.85692   0.98939   0.25246   0.00000  Uiso   1.00
C388   C     0.79911   0.82906   0.34708   0.00000  Uiso   1.00
C389   C     0.80960   0.67729   0.24793   0.00000  Uiso   1.00
C390   C     0.81817   0.73325   0.24857   0.00000  Uiso   1.00
C391   C     0.86681   0.83440   0.15283   0.00000  Uiso   1.00
C392   C     0.95438   0.88748   0.02646   0.00000  Uiso   1.00
C393   C     0.88647   0.83658   0.09686   0.00000  Uiso   1.00
C394   C     0.72732   0.77168   0.41616   0.00000  Uiso   1.00
C395   C     0.72893   0.74106   0.45618   0.00000  Uiso   1.00
C396   C     0.81621   0.80669   0.47878   0.00000  Uiso   1.00
C397   C     0.77525   0.75652   0.48460   0.00000  Uiso   1.00
C398   C     0.78153   0.78001   0.08971   0.00000  Uiso   1.00
C399   C     0.67442   0.75513   0.38901   0.00000  Uiso   1.00
C400   C     0.82007   0.83505   0.43476   0.00000  Uiso   1.00
C401   C     0.85624   0.82817   0.01352   0.00000  Uiso   1.00
C402   C     0.90916   0.86972   0.49672   0.00000  Uiso   1.00
C403   C     0.91437   0.89562   0.45189   0.00000  Uiso   1.00
C404   C     0.86792   0.88103   0.42353   0.00000  Uiso   1.00
C405   C     0.84327   0.81334   0.06542   0.00000  Uiso   1.00
C406   C     0.94372   0.87011   0.07583   0.00000  Uiso   1.00
Cu407  Cu    0.77377   0.82772   0.24435   0.00000  Uiso   1.00
Cu408  Cu    0.89290   0.83895   0.25564   0.00000  Uiso   1.00
H409   H     0.97726   0.88752   0.09929   0.00000  Uiso   1.00
H410   H     0.90249   0.67989   0.25677   0.00000  Uiso   1.00
H411   H     0.78025   0.74713   0.11281   0.00000  Uiso   1.00
H412   H     0.99411   0.78346   0.36858   0.00000  Uiso   1.00
H413   H     0.76401   0.98678   0.24365   0.00000  Uiso   1.00
H414   H     0.67031   0.87242   0.28969   0.00000  Uiso   1.00
H415   H     0.99635   0.79421   0.21034   0.00000  Uiso   1.00
H416   H     0.95262   0.92934   0.44028   0.00000  Uiso   1.00
H417   H     0.99625   0.91749   0.01266   0.00000  Uiso   1.00
H418   H     0.77822   0.72846   0.01108   0.00000  Uiso   1.00
H419   H     0.69474   0.70432   0.46514   0.00000  Uiso   1.00
H420   H     0.87085   0.90548   0.39185   0.00000  Uiso   1.00
N421   N     0.98241   0.84741   0.26416   0.00000  Uiso   1.00
N422   N     0.68426   0.81926   0.23584   0.00000  Uiso   1.00
O423   O     0.79464   0.90474   0.24633   0.00000  Uiso   1.00
O424   O     0.97724   0.70971   0.39052   0.00000  Uiso   1.00
O425   O     0.89524   0.91422   0.25586   0.00000  Uiso   1.00
O426   O     0.75848   0.82627   0.31839   0.00000  Uiso   1.00
O427   O     0.85908   0.83575   0.32793   0.00000  Uiso   1.00
O428   O     0.77142   0.75245   0.24414   0.00000  Uiso   1.00
O429   O     0.87203   0.76193   0.25367   0.00000  Uiso   1.00
O430   O     0.80758   0.83092   0.17207   0.00000  Uiso   1.00
O431   O     0.90819   0.84040   0.18160   0.00000  Uiso   1.00
O432   O     0.73207   0.79109   0.08656   0.00000  Uiso   1.00
C433   C     0.18176   0.26675   0.75160   0.00000  Uiso   1.00
C434   C     0.11125   0.14898   0.90151   0.00000  Uiso   1.00
C435   C     0.19025   0.32272   0.75246   0.00000  Uiso   1.00
C436   C     0.13245   0.16239   0.84708   0.00000  Uiso   1.00
C437   C     0.14293   0.01062   0.74793   0.00000  Uiso   1.00
C438   C     0.15151   0.06658   0.74857   0.00000  Uiso   1.00
C439   C     0.20015   0.16773   0.65283   0.00000  Uiso   1.00
C440   C     0.28772   0.22082   0.52646   0.00000  Uiso   1.00
C441   C     0.21981   0.16992   0.59686   0.00000  Uiso   1.00
C442   C     0.06065   0.10501   0.91616   0.00000  Uiso   1.00
C443   C     0.06227   0.07440   0.95618   0.00000  Uiso   1.00
C444   C     0.14954   0.14002   0.97878   0.00000  Uiso   1.00
C445   C     0.10858   0.08985   0.98460   0.00000  Uiso   1.00
C446   C     0.11487   0.11334   0.58971   0.00000  Uiso   1.00
C447   C     0.00775   0.08846   0.88901   0.00000  Uiso   1.00
C448   C     0.15340   0.16839   0.93476   0.00000  Uiso   1.00
C449   C     0.18958   0.16150   0.51352   0.00000  Uiso   1.00
C450   C     0.24249   0.20306   0.99672   0.00000  Uiso   1.00
C451   C     0.24771   0.22896   0.95189   0.00000  Uiso   1.00
C452   C     0.20126   0.21436   0.92353   0.00000  Uiso   1.00
C453   C     0.17660   0.14667   0.56542   0.00000  Uiso   1.00
C454   C     0.27705   0.20345   0.57583   0.00000  Uiso   1.00
Cu455  Cu    0.10710   0.16105   0.74435   0.00000  Uiso   1.00
Cu456  Cu    0.22623   0.17228   0.75564   0.00000  Uiso   1.00
H457   H     0.31059   0.22085   0.59929   0.00000  Uiso   1.00
H458   H     0.23583   0.01323   0.75677   0.00000  Uiso   1.00
H459   H     0.11359   0.08046   0.61281   0.00000  Uiso   1.00
H460   H     0.32744   0.11679   0.86858   0.00000  Uiso   1.00
H461   H     0.09734   0.32011   0.74365   0.00000  Uiso   1.00
H462   H     0.00364   0.20576   0.78969   0.00000  Uiso   1.00
H463   H     0.32968   0.12754   0.71034   0.00000  Uiso   1.00
H464   H     0.28595   0.26267   0.94028   0.00000  Uiso   1.00
H465   H     0.32959   0.25083   0.51266   0.00000  Uiso   1.00
H466   H     0.11155   0.06179   0.51108   0.00000  Uiso   1.00
H467   H     0.02808   0.03766   0.96514   0.00000  Uiso   1.00
H468   H     0.20418   0.23881   0.89185   0.00000  Uiso   1.00
N469   N     0.31574   0.18074   0.76416   0.00000  Uiso   1.00
N470   N     0.01759   0.15259   0.73584   0.00000  Uiso   1.00
O471   O     0.12797   0.23807   0.74633   0.00000  Uiso   1.00
O472   O     0.31057   0.04305   0.89052   0.00000  Uiso   1.00
O473   O     0.22858   0.24755   0.75586   0.00000  Uiso   1.00
O474   O     0.09181   0.15960   0.81839   0.00000  Uiso   1.00
O475   O     0.19242   0.16908   0.82793   0.00000  Uiso   1.00
O476   O     0.10476   0.08578   0.74414   0.00000  Uiso   1.00
O477   O     0.20536   0.09526   0.75367   0.00000  Uiso   1.00
O478   O     0.14092   0.16425   0.67207   0.00000  Uiso   1.00
O479   O     0.24152   0.17373   0.68160   0.00000  Uiso   1.00
O480   O     0.06540   0.12442   0.58656   0.00000  Uiso   1.00
C481   C     0.51509   0.26675   0.75160   0.00000  Uiso   1.00
C482   C     0.44458   0.14898   0.90151   0.00000  Uiso   1.00
C483   C     0.52358   0.32272   0.75246   0.00000  Uiso   1.00
C484   C     0.46578   0.16239   0.84708   0.00000  Uiso   1.00
C485   C     0.47627   0.01062   0.74793   0.00000  Uiso   1.00
C486   C     0.48484   0.06658   0.74857   0.00000  Uiso   1.00
C487   C     0.53348   0.16773   0.65283   0.00000  Uiso   1.00
C488   C     0.62105   0.22082   0.52646   0.00000  Uiso   1.00
C489   C     0.55314   0.16992   0.59686   0.00000  Uiso   1.00
C490   C     0.39399   0.10501   0.91616   0.00000  Uiso   1.00
C491   C     0.39560   0.07440   0.95618   0.00000  Uiso   1.00
C492   C     0.48288   0.14002   0.97878   0.00000  Uiso   1.00
C493   C     0.44192   0.08985   0.98460   0.00000  Uiso   1.00
C494   C     0.44820   0.11334   0.58971   0.00000  Uiso   1.00
C495   C     0.34108   0.08846   0.88901   0.00000  Uiso   1.00
C496   C     0.48674   0.16839   0.93476   0.00000  Uiso   1.00
C497   C     0.52291   0.16150   0.51352   0.00000  Uiso   1.00
C498   C     0.57583   0.20306   0.99672   0.00000  Uiso   1.00
C499   C     0.58104   0.22896   0.95189   0.00000  Uiso   1.00
C500   C     0.53459   0.21436   0.92353   0.00000  Uiso   1.00
C501   C     0.50994   0.14667   0.56542   0.00000  Uiso   1.00
C502   C     0.61039   0.20345   0.57583   0.00000  Uiso   1.00
Cu503  Cu    0.44043   0.16105   0.74435   0.00000  Uiso   1.00
Cu504  Cu    0.55957   0.17228   0.75564   0.00000  Uiso   1.00
H505   H     0.64393   0.22085   0.59929   0.00000  Uiso   1.00
H506   H     0.56916   0.01323   0.75677   0.00000  Uiso   1.00
H507   H     0.44692   0.08046   0.61281   0.00000  Uiso   1.00
H508   H     0.66077   0.11679   0.86858   0.00000  Uiso   1.00
H509   H     0.43068   0.32011   0.74365   0.00000  Uiso   1.00
H510   H     0.33697   0.20576   0.78969   0.00000  Uiso   1.00
H511   H     0.66301   0.12754   0.71034   0.00000  Uiso   1.00
H512   H     0.61928   0.26267   0.94028   0.00000  Uiso   1.00
H513   H     0.66292   0.25083   0.51266   0.00000  Uiso   1.00
H514   H     0.44488   0.06179   0.51108   0.00000  Uiso   1.00
H515   H     0.36141   0.03766   0.96514   0.00000  Uiso   1.00
H516   H     0.53751   0.23881   0.89185   0.00000  Uiso   1.00
N517   N     0.64908   0.18074   0.76416   0.00000  Uiso   1.00
N518   N     0.35092   0.15259   0.73584   0.00000  Uiso   1.00
O519   O     0.46131   0.23807   0.74633   0.00000  Uiso   1.00
O520   O     0.64390   0.04305   0.89052   0.00000  Uiso   1.00
O521   O     0.56191   0.24755   0.75586   0.00000  Uiso   1.00
O522   O     0.42515   0.15960   0.81839   0.00000  Uiso   1.00
O523   O     0.52575   0.16908   0.82793   0.00000  Uiso   1.00
O524   O     0.43809   0.08578   0.74414   0.00000  Uiso   1.00
O525   O     0.53869   0.09526   0.75367   0.00000  Uiso   1.00
O526   O     0.47425   0.16425   0.67207   0.00000  Uiso   1.00
O527   O     0.57485   0.17373   0.68160   0.00000  Uiso   1.00
O528   O     0.39874   0.12442   0.58656   0.00000  Uiso   1.00
C529   C     0.84843   0.26675   0.75160   0.00000  Uiso   1.00
C530   C     0.77791   0.14898   0.90151   0.00000  Uiso   1.00
C531   C     0.85692   0.32272   0.75246   0.00000  Uiso   1.00
C532   C     0.79911   0.16239   0.84708   0.00000  Uiso   1.00
C533   C     0.80960   0.01062   0.74793   0.00000  Uiso   1.00
C534   C     0.81817   0.06658   0.74857   0.00000  Uiso   1.00
C535   C     0.86681   0.16773   0.65283   0.00000  Uiso   1.00
C536   C     0.95438   0.22082   0.52646   0.00000  Uiso   1.00
C537   C     0.88647   0.16992   0.59686   0.00000  Uiso   1.00
C538   C     0.72732   0.10501   0.91616   0.00000  Uiso   1.00
C539   C     0.72893   0.07440   0.95618   0.00000  Uiso   1.00
C540   C     0.81621   0.14002   0.97878   0.00000  Uiso   1.00
C541   C     0.77525   0.08985   0.98460   0.00000  Uiso   1.00
C542   C     0.78153   0.11334   0.58971   0.00000  Uiso   1.00
C543   C     0.67442   0.08846   0.88901   0.00000  Uiso   1.00
C544   C     0.82007   0.16839   0.93476   0.00000  Uiso   1.00
C545   C     0.85624   0.16150   0.51352   0.00000  Uiso   1.00
C546   C     0.90916   0.20306   0.99672   0.00000  Uiso   1.00
C547   C     0.91437   0.22896   0.95189   0.00000  Uiso   1.00
C548   C     0.86792   0.21436   0.92353   0.00000  Uiso   1.00
C549   C     0.84327   0.14667   0.56542   0.00000  Uiso   1.00
C550   C     0.94372   0.20345   0.57583   0.00000  Uiso   1.00
Cu551  Cu    0.77377   0.16105   0.74435   0.00000  Uiso   1.00
Cu552  Cu    0.89290   0.17228   0.75564   0.00000  Uiso   1.00
H553   H     0.97726   0.22085   0.59929   0.00000  Uiso   1.00
H554   H     0.90249   0.01323   0.75677   0.00000  Uiso   1.00
H555   H     0.78025   0.08046   0.61281   0.00000  Uiso   1.00
H556   H     0.99411   0.11679   0.86858   0.00000  Uiso   1.00
H557   H     0.76401   0.32011   0.74365   0.00000  Uiso   1.00
H558   H     0.67031   0.20576   0.78969   0.00000  Uiso   1.00
H559   H     0.99635   0.12754   0.71034   0.00000  Uiso   1.00
H560   H     0.95262   0.26267   0.94028   0.00000  Uiso   1.00
H561   H     0.99625   0.25083   0.51266   0.00000  Uiso   1.00
H562   H     0.77822   0.06179   0.51108   0.00000  Uiso   1.00
H563   H     0.69474   0.03766   0.96514   0.00000  Uiso   1.00
H564   H     0.87085   0.23881   0.89185   0.00000  Uiso   1.00
N565   N     0.98241   0.18074   0.76416   0.00000  Uiso   1.00
N566   N     0.68426   0.15259   0.73584   0.00000  Uiso   1.00
O567   O     0.79464   0.23807   0.74633   0.00000  Uiso   1.00
O568   O     0.97724   0.04305   0.89052   0.00000  Uiso   1.00
O569   O     0.89524   0.24755   0.75586   0.00000  Uiso   1.00
O570   O     0.75848   0.15960   0.81839   0.00000  Uiso   1.00
O571   O     0.85908   0.16908   0.82793   0.00000  Uiso   1.00
O572   O     0.77142   0.08578   0.74414   0.00000  Uiso   1.00
O573   O     0.87203   0.09526   0.75367   0.00000  Uiso   1.00
O574   O     0.80758   0.16425   0.67207   0.00000  Uiso   1.00
O575   O     0.90819   0.17373   0.68160   0.00000  Uiso   1.00
O576   O     0.73207   0.12442   0.58656   0.00000  Uiso   1.00
C577   C     0.18176   0.60008   0.75160   0.00000  Uiso   1.00
C578   C     0.11125   0.48231   0.90151   0.00000  Uiso   1.00
C579   C     0.19025   0.65605   0.75246   0.00000  Uiso   1.00
C580   C     0.13245   0.49572   0.84708   0.00000  Uiso   1.00
C581   C     0.14293   0.34395   0.74793   0.00000  Uiso   1.00
C582   C     0.15151   0.39992   0.74857   0.00000  Uiso   1.00
C583   C     0.20015   0.50107   0.65283   0.00000  Uiso   1.00
C584   C     0.28772   0.55415   0.52646   0.00000  Uiso   1.00
C585   C     0.21981   0.50325   0.59686   0.00000  Uiso   1.00
C586   C     0.06065   0.43834   0.91616   0.00000  Uiso   1.00
C587   C     0.06227   0.40773   0.95618   0.00000  Uiso   1.00
C588   C     0.14954   0.47335   0.97878   0.00000  Uiso   1.00
C589   C     0.10858   0.42319   0.98460   0.00000  Uiso   1.00
C590   C     0.11487   0.44668   0.58971   0.00000  Uiso   1.00
C591   C     0.00775   0.42180   0.88901   0.00000  Uiso   1.00
C592   C     0.15340   0.50172   0.93476   0.00000  Uiso   1.00
C593   C     0.18958   0.49484   0.51352   0.00000  Uiso   1.00
C594   C     0.24249   0.53639   0.99672   0.00000  Uiso   1.00
C595   C     0.24771   0.56229   0.95189   0.00000  Uiso   1.00
C596   C     0.20126   0.54770   0.92353   0.00000  Uiso   1.00
C597   C     0.17660   0.48000   0.56542   0.00000  Uiso   1.00
C598   C     0.27705   0.53678   0.57583   0.00000  Uiso   1.00
Cu599  Cu    0.10710   0.49439   0.74435   0.00000  Uiso   1.00
Cu600  Cu    0.22623   0.50561   0.75564   0.00000  Uiso   1.00
H601   H     0.31059   0.55419   0.59929   0.00000  Uiso   1.00
H602   H     0.23583   0.34656   0.75677   0.00000  Uiso   1.00
H603   H     0.11359   0.41379   0.61281   0.00000  Uiso   1.00
H604   H     0.32744   0.45013   0.86858   0.00000  Uiso   1.00
H605   H     0.09734   0.65345   0.74365   0.00000  Uiso   1.00
H606   H     0.00364   0.53909   0.78969   0.00000  Uiso   1.00
H607   H     0.32968   0.46087   0.71034   0.00000  Uiso   1.00
H608   H     0.28595   0.59600   0.94028   0.00000  Uiso   1.00
H609   H     0.32959   0.58416   0.51266   0.00000  Uiso   1.00
H610   H     0.11155   0.39512   0.51108   0.00000  Uiso   1.00
H611   H     0.02808   0.37099   0.96514   0.00000  Uiso   1.00
H612   H     0.20418   0.57214   0.89185   0.00000  Uiso   1.00
N613   N     0.31574   0.51407   0.76416   0.00000  Uiso   1.00
N614   N     0.01759   0.48593   0.73584   0.00000  Uiso   1.00
O615   O     0.12797   0.57141   0.74633   0.00000  Uiso   1.00
O616   O     0.31057   0.37638   0.89052   0.00000  Uiso   1.00
O617   O     0.22858   0.58089   0.75586   0.00000  Uiso   1.00
O618   O     0.09181   0.49293   0.81839   0.00000  Uiso   1.00
O619   O     0.19242   0.50241   0.82793   0.00000  Uiso   1.00
O620   O     0.10476   0.41911   0.74414   0.00000  Uiso   1.00
O621   O     0.20536   0.42859   0.75367   0.00000  Uiso   1.00
O622   O     0.14092   0.49759   0.67207   0.00000  Uiso   1.00
O623   O     0.24152   0.50707   0.68160   0.00000  Uiso   1.00
O624   O     0.06540   0.45775   0.58656   0.00000  Uiso   1.00
C625   C     0.51509   0.60008   0.75160   0.00000  Uiso   1.00
C626   C     0.44458   0.48231   0.90151   0.00000  Uiso   1.00
C627   C     0.52358   0.65605   0.75246   0.00000  Uiso   1.00
C628   C     0.46578   0.49572   0.84708   0.00000  Uiso   1.00
C629   C     0.47627   0.34395   0.74793   0.00000  Uiso   1.00
C630   C     0.48484   0.39992   0.74857   0.00000  Uiso   1.00
C631   C     0.53348   0.50107   0.65283   0.00000  Uiso   1.00
C632   C     0.62105   0.55415   0.52646   0.00000  Uiso   1.00
C633   C     0.55314   0.50325   0.59686   0.00000  Uiso   1.00
C634   C     0.39399   0.43834   0.91616   0.00000  Uiso   1.00
C635   C     0.39560   0.40773   0.95618   0.00000  Uiso   1.00
C636   C     0.48288   0.47335   0.97878   0.00000  Uiso   1.00
C637   C     0.44192   0.42319   0.98460   0.00000  Uiso   1.00
C638   C     0.44820   0.44668   0.58971   0.00000  Uiso   1.00
C639   C     0.34108   0.42180   0.88901   0.00000  Uiso   1.00
C640   C     0.48674   0.50172   0.93476   0.00000  Uiso   1.00
C641   C     0.52291   0.49484   0.51352   0.00000  Uiso   1.00
C642   C     0.57583   0.53639   0.99672   0.00000  Uiso   1.00
C643   C     0.58104   0.56229   0.95189   0.00000  Uiso   1.00
C644   C     0.53459   0.54770   0.92353   0.00000  Uiso   1.00
C645   C     0.50994   0.48000   0.56542   0.00000  Uiso   1.00
C646   C     0.61039   0.53678   0.57583   0.00000  Uiso   1.00
Cu647  Cu    0.44043   0.49439   0.74435   0.00000  Uiso   1.00
Cu648  Cu    0.55957   0.50561   0.75564   0.00000  Uiso   1.00
H649   H     0.64393   0.55419   0.59929   0.00000  Uiso   1.00
H650   H     0.56916   0.34656   0.75677   0.00000  Uiso   1.00
H651   H     0.44692   0.41379   0.61281   0.00000  Uiso   1.00
H652   H     0.66077   0.45013   0.86858   0.00000  Uiso   1.00
H653   H     0.43068   0.65345   0.74365   0.00000  Uiso   1.00
H654   H     0.33697   0.53909   0.78969   0.00000  Uiso   1.00
H655   H     0.66301   0.46087   0.71034   0.00000  Uiso   1.00
H656   H     0.61928   0.59600   0.94028   0.00000  Uiso   1.00
H657   H     0.66292   0.58416   0.51266   0.00000  Uiso   1.00
H658   H     0.44488   0.39512   0.51108   0.00000  Uiso   1.00
H659   H     0.36141   0.37099   0.96514   0.00000  Uiso   1.00
H660   H     0.53751   0.57214   0.89185   0.00000  Uiso   1.00
N661   N     0.64908   0.51407   0.76416   0.00000  Uiso   1.00
N662   N     0.35092   0.48593   0.73584   0.00000  Uiso   1.00
O663   O     0.46131   0.57141   0.74633   0.00000  Uiso   1.00
O664   O     0.64390   0.37638   0.89052   0.00000  Uiso   1.00
O665   O     0.56191   0.58089   0.75586   0.00000  Uiso   1.00
O666   O     0.42515   0.49293   0.81839   0.00000  Uiso   1.00
O667   O     0.52575   0.50241   0.82793   0.00000  Uiso   1.00
O668   O     0.43809   0.41911   0.74414   0.00000  Uiso   1.00
O669   O     0.53869   0.42859   0.75367   0.00000  Uiso   1.00
O670   O     0.47425   0.49759   0.67207   0.00000  Uiso   1.00
O671   O     0.57485   0.50707   0.68160   0.00000  Uiso   1.00
O672   O     0.39874   0.45775   0.58656   0.00000  Uiso   1.00
C673   C     0.84843   0.60008   0.75160   0.00000  Uiso   1.00
C674   C     0.77791   0.48231   0.90151   0.00000  Uiso   1.00
C675   C     0.85692   0.65605   0.75246   0.00000  Uiso   1.00
C676   C     0.79911   0.49572   0.84708   0.00000  Uiso   1.00
C677   C     0.80960   0.34395   0.74793   0.00000  Uiso   1.00
C678   C     0.81817   0.39992   0.74857   0.00000  Uiso   1.00
C679   C     0.86681   0.50107   0.65283   0.00000  Uiso   1.00
C680   C     0.95438   0.55415   0.52646   0.00000  Uiso   1.00
C681   C     0.88647   0.50325   0.59686   0.00000  Uiso   1.00
C682   C     0.72732   0.43834   0.91616   0.00000  Uiso   1.00
C683   C     0.72893   0.40773   0.95618   0.00000  Uiso   1.00
C684   C     0.81621   0.47335   0.97878   0.00000  Uiso   1.00
C685   C     0.77525   0.42319   0.98460   0.00000  Uiso   1.00
C686   C     0.78153   0.44668   0.58971   0.00000  Uiso   1.00
C687   C     0.67442   0.42180   0.88901   0.00000  Uiso   1.00
C688   C     0.82007   0.50172   0.93476   0.00000  Uiso   1.00
C689   C     0.85624   0.49484   0.51352   0.00000  Uiso   1.00
C690   C     0.90916   0.53639   0.99672   0.00000  Uiso   1.00
C691   C     0.91437   0.56229   0.95189   0.00000  Uiso   1.00
C692   C     0.86792   0.54770   0.92353   0.00000  Uiso   1.00
C693   C     0.84327   0.48000   0.56542   0.00000  Uiso   1.00
C694   C     0.94372   0.53678   0.57583   0.00000  Uiso   1.00
Cu695  Cu    0.77377   0.49439   0.74435   0.00000  Uiso   1.00
Cu696  Cu    0.89290   0.50561   0.75564   0.00000  Uiso   1.00
H697   H     0.97726   0.55419   0.59929   0.00000  Uiso   1.00
H698   H     0.90249   0.34656   0.75677   0.00000  Uiso   1.00
H699   H     0.78025   0.41379   0.61281   0.00000  Uiso   1.00
H700   H     0.99411   0.45013   0.86858   0.00000  Uiso   1.00
H701   H     0.76401   0.65345   0.74365   0.00000  Uiso   1.00
H702   H     0.67031   0.53909   0.78969   0.00000  Uiso   1.00
H703   H     0.99635   0.46087   0.71034   0.00000  Uiso   1.00
H704   H     0.95262   0.59600   0.94028   0.00000  Uiso   1.00
H705   H     0.99625   0.58416   0.51266   0.00000  Uiso   1.00
H706   H     0.77822   0.39512   0.51108   0.00000  Uiso   1.00
H707   H     0.69474   0.37099   0.96514   0.00000  Uiso   1.00
H708   H     0.87085   0.57214   0.89185   0.00000  Uiso   1.00
N709   N     0.98241   0.51407   0.76416   0.00000  Uiso   1.00
N710   N     0.68426   0.48593   0.73584   0.00000  Uiso   1.00
O711   O     0.79464   0.57141   0.74633   0.00000  Uiso   1.00
O712   O     0.97724   0.37638   0.89052   0.00000  Uiso   1.00
O713   O     0.89524   0.58089   0.75586   0.00000  Uiso   1.00
O714   O     0.75848   0.49293   0.81839   0.00000  Uiso   1.00
O715   O     0.85908   0.50241   0.82793   0.00000  Uiso   1.00
O716   O     0.77142   0.41911   0.74414   0.00000  Uiso   1.00
O717   O     0.87203   0.42859   0.75367   0.00000  Uiso   1.00
O718   O     0.80758   0.49759   0.67207   0.00000  Uiso   1.00
O719   O     0.90819   0.50707   0.68160   0.00000  Uiso   1.00
O720   O     0.73207   0.45775   0.58656   0.00000  Uiso   1.00
C721   C     0.18176   0.93342   0.75160   0.00000  Uiso   1.00
C722   C     0.11125   0.81564   0.90151   0.00000  Uiso   1.00
C723   C     0.19025   0.98939   0.75246   0.00000  Uiso   1.00
C724   C     0.13245   0.82906   0.84708   0.00000  Uiso   1.00
C725   C     0.14293   0.67729   0.74793   0.00000  Uiso   1.00
C726   C     0.15151   0.73325   0.74857   0.00000  Uiso   1.00
C727   C     0.20015   0.83440   0.65283   0.00000  Uiso   1.00
C728   C     0.28772   0.88748   0.52646   0.00000  Uiso   1.00
C729   C     0.21981   0.83658   0.59686   0.00000  Uiso   1.00
C730   C     0.06065   0.77168   0.91616   0.00000  Uiso   1.00
C731   C     0.06227   0.74106   0.95618   0.00000  Uiso   1.00
C732   C     0.14954   0.80669   0.97878   0.00000  Uiso   1.00
C733   C     0.10858   0.75652   0.98460   0.00000  Uiso   1.00
C734   C     0.11487   0.78001   0.58971   0.00000  Uiso   1.00
C735   C     0.00775   0.75513   0.88901   0.00000  Uiso   1.00
C736   C     0.15340   0.83505   0.93476   0.00000  Uiso   1.00
C737   C     0.18958   0.82817   0.51352   0.00000  Uiso   1.00
C738   C     0.24249   0.86972   0.99672   0.00000  Uiso   1.00
C739   C     0.24771   0.89562   0.95189   0.00000  Uiso   1.00
C740   C     0.20126   0.88103   0.92353   0.00000  Uiso   1.00
C741   C     0.17660   0.81334   0.56542   0.00000  Uiso   1.00
C742   C     0.27705   0.87011   0.57583   0.00000  Uiso   1.00
Cu743  Cu    0.10710   0.82772   0.74435   0.00000  Uiso   1.00
Cu744  Cu    0.22623   0.83895   0.75564   0.00000  Uiso   1.00
H745   H     0.31059   0.88752   0.59929   0.00000  Uiso   1.00
H746   H     0.23583   0.67989   0.75677   0.00000  Uiso   1.00
H747   H     0.11359   0.74713   0.61281   0.00000  Uiso   1.00
H748   H     0.32744   0.78346   0.86858   0.00000  Uiso   1.00
H749   H     0.09734   0.98678   0.74365   0.00000  Uiso   1.00
H750   H     0.00364   0.87242   0.78969   0.00000  Uiso   1.00
H751   H     0.32968   0.79421   0.71034   0.00000  Uiso   1.00
H752   H     0.28595   0.92934   0.94028   0.00000  Uiso   1.00
H753   H     0.32959   0.91749   0.51266   0.00000  Uiso   1.00
H754   H     0.11155   0.72846   0.51108   0.00000  Uiso   1.00
H755   H     0.02808   0.70432   0.96514   0.00000  Uiso   1.00
H756   H     0.20418   0.90548   0.89185   0.00000  Uiso   1.00
N757   N     0.31574   0.84741   0.76416   0.00000  Uiso   1.00
N758   N     0.01759   0.81926   0.73584   0.00000  Uiso   1.00
O759   O     0.12797   0.90474   0.74633   0.00000  Uiso   1.00
O760   O     0.31057   0.70971   0.89052   0.00000  Uiso   1.00
O761   O     0.22858   0.91422   0.75586   0.00000  Uiso   1.00
O762   O     0.09181   0.82627   0.81839   0.00000  Uiso   1.00
O763   O     0.19242   0.83575   0.82793   0.00000  Uiso   1.00
O764   O     0.10476   0.75245   0.74414   0.00000  Uiso   1.00
O765   O     0.20536   0.76193   0.75367   0.00000  Uiso   1.00
O766   O     0.14092   0.83092   0.67207   0.00000  Uiso   1.00
O767   O     0.24152   0.84040   0.68160   0.00000  Uiso   1.00
O768   O     0.06540   0.79109   0.58656   0.00000  Uiso   1.00
C769   C     0.51509   0.93342   0.75160   0.00000  Uiso   1.00
C770   C     0.44458   0.81564   0.90151   0.00000  Uiso   1.00
C771   C     0.52358   0.98939   0.75246   0.00000  Uiso   1.00
C772   C     0.46578   0.82906   0.84708   0.00000  Uiso   1.00
C773   C     0.47627   0.67729   0.74793   0.00000  Uiso   1.00
C774   C     0.48484   0.73325   0.74857   0.00000  Uiso   1.00
C775   C     0.53348   0.83440   0.65283   0.00000  Uiso   1.00
C776   C     0.62105   0.88748   0.52646   0.00000  Uiso   1.00
C777   C     0.55314   0.83658   0.59686   0.00000  Uiso   1.00
C778   C     0.39399   0.77168   0.91616   0.00000  Uiso   1.00
C779   C     0.39560   0.74106   0.95618   0.00000  Uiso   1.00
C780   C     0.48288   0.80669   0.97878   0.00000  Uiso   1.00
C781   C     0.44192   0.75652   0.98460   0.00000  Uiso   1.00
C782   C     0.44820   0.78001   0.58971   0.00000  Uiso   1.00
C783   C     0.34108   0.75513   0.88901   0.00000  Uiso   1.00
C784   C     0.48674   0.83505   0.93476   0.00000  Uiso   1.00
C785   C     0.52291   0.82817   0.51352   0.00000  Uiso   1.00
C786   C     0.57583   0.86972   0.99672   0.00000  Uiso   1.00
C787   C     0.58104   0.89562   0.95189   0.00000  Uiso   1.00
C788   C     0.53459   0.88103   0.92353   0.00000  Uiso   1.00
C789   C     0.50994   0.81334   0.56542   0.00000  Uiso   1.00
C790   C     0.61039   0.87011   0.57583   0.00000  Uiso   1.00
Cu791  Cu    0.44043   0.82772   0.74435   0.00000  Uiso   1.00
Cu792  Cu    0.55957   0.83895   0.75564   0.00000  Uiso   1.00
H793   H     0.64393   0.88752   0.59929   0.00000  Uiso   1.00
H794   H     0.56916   0.67989   0.75677   0.00000  Uiso   1.00
H795   H     0.44692   0.74713   0.61281   0.00000  Uiso   1.00
H796   H     0.66077   0.78346   0.86858   0.00000  Uiso   1.00
H797   H     0.43068   0.98678   0.74365   0.00000  Uiso   1.00
H798   H     0.33697   0.87242   0.78969   0.00000  Uiso   1.00
H799   H     0.66301   0.79421   0.71034   0.00000  Uiso   1.00
H800   H     0.61928   0.92934   0.94028   0.00000  Uiso   1.00
H801   H     0.66292   0.91749   0.51266   0.00000  Uiso   1.00
H802   H     0.44488   0.72846   0.51108   0.00000  Uiso   1.00
H803   H     0.36141   0.70432   0.96514   0.00000  Uiso   1.00
H804   H     0.53751   0.90548   0.89185   0.00000  Uiso   1.00
N805   N     0.64908   0.84741   0.76416   0.00000  Uiso   1.00
N806   N     0.35092   0.81926   0.73584   0.00000  Uiso   1.00
O807   O     0.46131   0.90474   0.74633   0.00000  Uiso   1.00
O808   O     0.64390   0.70971   0.89052   0.00000  Uiso   1.00
O809   O     0.56191   0.91422   0.75586   0.00000  Uiso   1.00
O810   O     0.42515   0.82627   0.81839   0.00000  Uiso   1.00
O811   O     0.52575   0.83575   0.82793   0.00000  Uiso   1.00
O812   O     0.43809   0.75245   0.74414   0.00000  Uiso   1.00
O813   O     0.53869   0.76193   0.75367   0.00000  Uiso   1.00
O814   O     0.47425   0.83092   0.67207   0.00000  Uiso   1.00
O815   O     0.57485   0.84040   0.68160   0.00000  Uiso   1.00
O816   O     0.39874   0.79109   0.58656   0.00000  Uiso   1.00
C817   C     0.84843   0.93342   0.75160   0.00000  Uiso   1.00
C818   C     0.77791   0.81564   0.90151   0.00000  Uiso   1.00
C819   C     0.85692   0.98939   0.75246   0.00000  Uiso   1.00
C820   C     0.79911   0.82906   0.84708   0.00000  Uiso   1.00
C821   C     0.80960   0.67729   0.74793   0.00000  Uiso   1.00
C822   C     0.81817   0.73325   0.74857   0.00000  Uiso   1.00
C823   C     0.86681   0.83440   0.65283   0.00000  Uiso   1.00
C824   C     0.95438   0.88748   0.52646   0.00000  Uiso   1.00
C825   C     0.88647   0.83658   0.59686   0.00000  Uiso   1.00
C826   C     0.72732   0.77168   0.91616   0.00000  Uiso   1.00
C827   C     0.72893   0.74106   0.95618   0.00000  Uiso   1.00
C828   C     0.81621   0.80669   0.97878   0.00000  Uiso   1.00
C829   C     0.77525   0.75652   0.98460   0.00000  Uiso   1.00
C830   C     0.78153   0.78001   0.58971   0.00000  Uiso   1.00
C831   C     0.67442   0.75513   0.88901   0.00000  Uiso   1.00
C832   C     0.82007   0.83505   0.93476   0.00000  Uiso   1.00
C833   C     0.85624   0.82817   0.51352   0.00000  Uiso   1.00
C834   C     0.90916   0.86972   0.99672   0.00000  Uiso   1.00
C835   C     0.91437   0.89562   0.95189   0.00000  Uiso   1.00
C836   C     0.86792   0.88103   0.92353   0.00000  Uiso   1.00
C837   C     0.84327   0.81334   0.56542   0.00000  Uiso   1.00
C838   C     0.94372   0.87011   0.57583   0.00000  Uiso   1.00
Cu839  Cu    0.77377   0.82772   0.74435   0.00000  Uiso   1.00
Cu840  Cu    0.89290   0.83895   0.75564   0.00000  Uiso   1.00
H841   H     0.97726   0.88752   0.59929   0.00000  Uiso   1.00
H842   H     0.90249   0.67989   0.75677   0.00000  Uiso   1.00
H843   H     0.78025   0.74713   0.61281   0.00000  Uiso   1.00
H844   H     0.99411   0.78346   0.86858   0.00000  Uiso   1.00
H845   H     0.76401   0.98678   0.74365   0.00000  Uiso   1.00
H846   H     0.67031   0.87242   0.78969   0.00000  Uiso   1.00
H847   H     0.99635   0.79421   0.71034   0.00000  Uiso   1.00
H848   H     0.95262   0.92934   0.94028   0.00000  Uiso   1.00
H849   H     0.99625   0.91749   0.51266   0.00000  Uiso   1.00
H850   H     0.77822   0.72846   0.51108   0.00000  Uiso   1.00
H851   H     0.69474   0.70432   0.96514   0.00000  Uiso   1.00
H852   H     0.87085   0.90548   0.89185   0.00000  Uiso   1.00
N853   N     0.98241   0.84741   0.76416   0.00000  Uiso   1.00
N854   N     0.68426   0.81926   0.73584   0.00000  Uiso   1.00
O855   O     0.79464   0.90474   0.74633   0.00000  Uiso   1.00
O856   O     0.97724   0.70971   0.89052   0.00000  Uiso   1.00
O857   O     0.89524   0.91422   0.75586   0.00000  Uiso   1.00
O858   O     0.75848   0.82627   0.81839   0.00000  Uiso   1.00
O859   O     0.85908   0.83575   0.82793   0.00000  Uiso   1.00
O860   O     0.77142   0.75245   0.74414   0.00000  Uiso   1.00
O861   O     0.87203   0.76193   0.75367   0.00000  Uiso   1.00
O862   O     0.80758   0.83092   0.67207   0.00000  Uiso   1.00
O863   O     0.90819   0.84040   0.68160   0.00000  Uiso   1.00
O864   O     0.73207   0.79109   0.58656   0.00000  Uiso   1.00
loop_
_geom_bond_atom_site_label_1
_geom_bond_atom_site_label_2
_geom_bond_distance
_geom_bond_site_symmetry_2
_ccdc_geom_bond_type
C1     O41     1.284   .     A
C1     O39     1.290   .     A
C1     C3      1.427   .     S
C2     C16     1.423   .     A
C2     C4      1.478   .     S
C2     C10     1.421   .     A
C3     C149    1.328   .     S
C3     H170    1.088   .     S
C4     O43     1.297   .     A
C4     O42     1.299   .     A
C5     C6      1.426   .     S
C5     C291    1.328   1_545 S
C5     H317    1.088   1_545 S
C6     O44     1.284   .     A
C6     O45     1.290   .     A
C7     O46     1.292   .     A
C7     C9      1.475   .     S
C7     O47     1.305   .     A
C8     C22     1.388   .     A
C8     H33     1.084   .     S
C8     C450    1.399   1_554 S
C9     C21     1.424   .     A
C9     C22     1.398   .     A
C10    C11     1.397   .     A
C10    C15     1.486   .     S
C11    H35     1.084   .     S
C11    C13     1.387   .     A
C12    C13     1.410   .     A
C12    C16     1.417   .     A
C12    C449    1.430   .     S
C13    H466    1.079   .     S
C14    H27     1.086   .     S
C14    C21     1.488   .     S
C14    O48     1.222   .     D
C15    H124    1.083   1_455 S
C15    O136    1.222   1_455 S
C16    C20     1.411   .     A
C17    C21     1.426   .     A
C17    C444    1.430   1_554 S
C17    C450    1.421   1_554 S
C18    C19     1.394   .     A
C18    C449    1.421   .     S
C18    C440    1.399   .     S
C19    C20     1.387   .     A
C19    H32     1.084   .     S
C20    H36     1.082   .     S
C22    H25     1.084   .     S
Cu23   Cu24    2.683   .     S
Cu23   N38     2.016   .     S
Cu23   O46     1.927   .     S
Cu23   O42     1.948   .     S
Cu23   O39     1.954   .     S
Cu23   O44     1.950   .     S
Cu24   N37     2.016   .     S
Cu24   O41     1.950   .     S
Cu24   O45     1.954   .     S
Cu24   O43     1.927   .     S
Cu24   O47     1.948   .     S
H26    C291    1.088   1_545 S
H28    C63     1.083   .     S
H29    C149    1.088   .     S
H30    N133    1.029   1_455 S
H31    N86     1.029   .     S
H34    C445    1.079   1_554 S
N37    H78     1.029   .     S
N37    N86     1.286   .     S
N38    N133    1.286   1_455 S
N38    H127    1.029   1_455 S
O40    C63     1.222   .     S
C49    O89     1.284   .     A
C49    O87     1.290   .     A
C49    C51     1.427   .     S
C50    C64     1.423   .     A
C50    C52     1.478   .     S
C50    C58     1.421   .     A
C51    C197    1.328   .     S
C51    H218    1.088   .     S
C52    O91     1.297   .     A
C52    O90     1.299   .     A
C53    C54     1.426   .     S
C53    C339    1.328   1_545 S
C53    H365    1.088   1_545 S
C54    O92     1.284   .     A
C54    O93     1.290   .     A
C55    O94     1.292   .     A
C55    C57     1.475   .     S
C55    O95     1.305   .     A
C56    C70     1.388   .     A
C56    H81     1.084   .     S
C56    C498    1.399   1_554 S
C57    C69     1.424   .     A
C57    C70     1.398   .     A
C58    C59     1.397   .     A
C58    C63     1.486   .     S
C59    H83     1.084   .     S
C59    C61     1.387   .     A
C60    C61     1.410   .     A
C60    C64     1.417   .     A
C60    C497    1.430   .     S
C61    H514    1.079   .     S
C62    H75     1.086   .     S
C62    C69     1.488   .     S
C62    O96     1.222   .     D
C64    C68     1.411   .     A
C65    C69     1.426   .     A
C65    C492    1.430   1_554 S
C65    C498    1.421   1_554 S
C66    C67     1.394   .     A
C66    C497    1.421   .     S
C66    C488    1.399   .     S
C67    C68     1.387   .     A
C67    H80     1.084   .     S
C68    H84     1.082   .     S
C70    H73     1.084   .     S
Cu71   Cu72    2.683   .     S
Cu71   N86     2.016   .     S
Cu71   O94     1.927   .     S
Cu71   O90     1.948   .     S
Cu71   O87     1.954   .     S
Cu71   O92     1.950   .     S
Cu72   N85     2.016   .     S
Cu72   O89     1.950   .     S
Cu72   O93     1.954   .     S
Cu72   O91     1.927   .     S
Cu72   O95     1.948   .     S
H74    C339    1.088   1_545 S
H76    C111    1.083   .     S
H77    C197    1.088   .     S
H79    N134    1.029   .     S
H82    C493    1.079   1_554 S
N85    H126    1.029   .     S
N85    N134    1.286   .     S
O88    C111    1.222   .     S
C97    O137    1.284   .     A
C97    O135    1.290   .     A
C97    C99     1.427   .     S
C98    C112    1.423   .     A
C98    C100    1.478   .     S
C98    C106    1.421   .     A
C99    C245    1.328   .     S
C99    H266    1.088   .     S
C100   O139    1.297   .     A
C100   O138    1.299   .     A
C101   C102    1.426   .     S
C101   C387    1.328   1_545 S
C101   H413    1.088   1_545 S
C102   O140    1.284   .     A
C102   O141    1.290   .     A
C103   O142    1.292   .     A
C103   C105    1.475   .     S
C103   O143    1.305   .     A
C104   C118    1.388   .     A
C104   H129    1.084   .     S
C104   C546    1.399   1_554 S
C105   C117    1.424   .     A
C105   C118    1.398   .     A
C106   C107    1.397   .     A
C106   C111    1.486   .     S
C107   H131    1.084   .     S
C107   C109    1.387   .     A
C108   C109    1.410   .     A
C108   C112    1.417   .     A
C108   C545    1.430   .     S
C109   H562    1.079   .     S
C110   H123    1.086   .     S
C110   C117    1.488   .     S
C110   O144    1.222   .     D
C112   C116    1.411   .     A
C113   C117    1.426   .     A
C113   C540    1.430   1_554 S
C113   C546    1.421   1_554 S
C114   C115    1.394   .     A
C114   C545    1.421   .     S
C114   C536    1.399   .     S
C115   C116    1.387   .     A
C115   H128    1.084   .     S
C116   H132    1.082   .     S
C118   H121    1.084   .     S
Cu119  Cu120   2.683   .     S
Cu119  N134    2.016   .     S
Cu119  O142    1.927   .     S
Cu119  O138    1.948   .     S
Cu119  O135    1.954   .     S
Cu119  O140    1.950   .     S
Cu120  N133    2.016   .     S
Cu120  O137    1.950   .     S
Cu120  O141    1.954   .     S
Cu120  O139    1.927   .     S
Cu120  O143    1.948   .     S
H122   C387    1.088   1_545 S
H124   C15     1.083   1_655 S
H125   C245    1.088   .     S
H127   N38     1.029   1_655 S
H130   C541    1.079   1_554 S
N133   H30     1.029   1_655 S
N133   N38     1.286   1_655 S
O136   C15     1.222   1_655 S
C145   O185    1.284   .     A
C145   O183    1.290   .     A
C145   C147    1.427   .     S
C146   C160    1.423   .     A
C146   C148    1.478   .     S
C146   C154    1.421   .     A
C147   C293    1.328   .     S
C147   H314    1.088   .     S
C148   O187    1.297   .     A
C148   O186    1.299   .     A
C149   C150    1.426   .     S
C150   O188    1.284   .     A
C150   O189    1.290   .     A
C151   O190    1.292   .     A
C151   C153    1.475   .     S
C151   O191    1.305   .     A
C152   C166    1.388   .     A
C152   H177    1.084   .     S
C152   C594    1.399   1_554 S
C153   C165    1.424   .     A
C153   C166    1.398   .     A
C154   C155    1.397   .     A
C154   C159    1.486   .     S
C155   H179    1.084   .     S
C155   C157    1.387   .     A
C156   C157    1.410   .     A
C156   C160    1.417   .     A
C156   C593    1.430   .     S
C157   H610    1.079   .     S
C158   H171    1.086   .     S
C158   C165    1.488   .     S
C158   O192    1.222   .     D
C159   H268    1.083   1_455 S
C159   O280    1.222   1_455 S
C160   C164    1.411   .     A
C161   C165    1.426   .     A
C161   C588    1.430   1_554 S
C161   C594    1.421   1_554 S
C162   C163    1.394   .     A
C162   C593    1.421   .     S
C162   C584    1.399   .     S
C163   C164    1.387   .     A
C163   H176    1.084   .     S
C164   H180    1.082   .     S
C166   H169    1.084   .     S
Cu167  Cu168   2.683   .     S
Cu167  N182    2.016   .     S
Cu167  O190    1.927   .     S
Cu167  O186    1.948   .     S
Cu167  O183    1.954   .     S
Cu167  O188    1.950   .     S
Cu168  N181    2.016   .     S
Cu168  O185    1.950   .     S
Cu168  O189    1.954   .     S
Cu168  O187    1.927   .     S
Cu168  O191    1.948   .     S
H172   C207    1.083   .     S
H173   C293    1.088   .     S
H174   N277    1.029   1_455 S
H175   N230    1.029   .     S
H178   C589    1.079   1_554 S
N181   H222    1.029   .     S
N181   N230    1.286   .     S
N182   N277    1.286   1_455 S
N182   H271    1.029   1_455 S
O184   C207    1.222   .     S
C193   O233    1.284   .     A
C193   O231    1.290   .     A
C193   C195    1.427   .     S
C194   C208    1.423   .     A
C194   C196    1.478   .     S
C194   C202    1.421   .     A
C195   C341    1.328   .     S
C195   H362    1.088   .     S
C196   O235    1.297   .     A
C196   O234    1.299   .     A
C197   C198    1.426   .     S
C198   O236    1.284   .     A
C198   O237    1.290   .     A
C199   O238    1.292   .     A
C199   C201    1.475   .     S
C199   O239    1.305   .     A
C200   C214    1.388   .     A
C200   H225    1.084   .     S
C200   C642    1.399   1_554 S
C201   C213    1.424   .     A
C201   C214    1.398   .     A
C202   C203    1.397   .     A
C202   C207    1.486   .     S
C203   H227    1.084   .     S
C203   C205    1.387   .     A
C204   C205    1.410   .     A
C204   C208    1.417   .     A
C204   C641    1.430   .     S
C205   H658    1.079   .     S
C206   H219    1.086   .     S
C206   C213    1.488   .     S
C206   O240    1.222   .     D
C208   C212    1.411   .     A
C209   C213    1.426   .     A
C209   C636    1.430   1_554 S
C209   C642    1.421   1_554 S
C210   C211    1.394   .     A
C210   C641    1.421   .     S
C210   C632    1.399   .     S
C211   C212    1.387   .     A
C211   H224    1.084   .     S
C212   H228    1.082   .     S
C214   H217    1.084   .     S
Cu215  Cu216   2.683   .     S
Cu215  N230    2.016   .     S
Cu215  O238    1.927   .     S
Cu215  O234    1.948   .     S
Cu215  O231    1.954   .     S
Cu215  O236    1.950   .     S
Cu216  N229    2.016   .     S
Cu216  O233    1.950   .     S
Cu216  O237    1.954   .     S
Cu216  O235    1.927   .     S
Cu216  O239    1.948   .     S
H220   C255    1.083   .     S
H221   C341    1.088   .     S
H223   N278    1.029   .     S
H226   C637    1.079   1_554 S
N229   H270    1.029   .     S
N229   N278    1.286   .     S
O232   C255    1.222   .     S
C241   O281    1.284   .     A
C241   O279    1.290   .     A
C241   C243    1.427   .     S
C242   C256    1.423   .     A
C242   C244    1.478   .     S
C242   C250    1.421   .     A
C243   C389    1.328   .     S
C243   H410    1.088   .     S
C244   O283    1.297   .     A
C244   O282    1.299   .     A
C245   C246    1.426   .     S
C246   O284    1.284   .     A
C246   O285    1.290   .     A
C247   O286    1.292   .     A
C247   C249    1.475   .     S
C247   O287    1.305   .     A
C248   C262    1.388   .     A
C248   H273    1.084   .     S
C248   C690    1.399   1_554 S
C249   C261    1.424   .     A
C249   C262    1.398   .     A
C250   C251    1.397   .     A
C250   C255    1.486   .     S
C251   H275    1.084   .     S
C251   C253    1.387   .     A
C252   C253    1.410   .     A
C252   C256    1.417   .     A
C252   C689    1.430   .     S
C253   H706    1.079   .     S
C254   H267    1.086   .     S
C254   C261    1.488   .     S
C254   O288    1.222   .     D
C256   C260    1.411   .     A
C257   C261    1.426   .     A
C257   C684    1.430   1_554 S
C257   C690    1.421   1_554 S
C258   C259    1.394   .     A
C258   C689    1.421   .     S
C258   C680    1.399   .     S
C259   C260    1.387   .     A
C259   H272    1.084   .     S
C260   H276    1.082   .     S
C262   H265    1.084   .     S
Cu263  Cu264   2.683   .     S
Cu263  N278    2.016   .     S
Cu263  O286    1.927   .     S
Cu263  O282    1.948   .     S
Cu263  O279    1.954   .     S
Cu263  O284    1.950   .     S
Cu264  N277    2.016   .     S
Cu264  O281    1.950   .     S
Cu264  O285    1.954   .     S
Cu264  O283    1.927   .     S
Cu264  O287    1.948   .     S
H268   C159    1.083   1_655 S
H269   C389    1.088   .     S
H271   N182    1.029   1_655 S
H274   C685    1.079   1_554 S
N277   H174    1.029   1_655 S
N277   N182    1.286   1_655 S
O280   C159    1.222   1_655 S
C289   O329    1.284   .     A
C289   O327    1.290   .     A
C289   C291    1.427   .     S
C290   C304    1.423   .     A
C290   C292    1.478   .     S
C290   C298    1.421   .     A
C291   C5      1.328   1_565 S
C291   H26     1.088   1_565 S
C292   O331    1.297   .     A
C292   O330    1.299   .     A
C293   C294    1.426   .     S
C294   O332    1.284   .     A
C294   O333    1.290   .     A
C295   O334    1.292   .     A
C295   C297    1.475   .     S
C295   O335    1.305   .     A
C296   C310    1.388   .     A
C296   H321    1.084   .     S
C296   C738    1.399   1_554 S
C297   C309    1.424   .     A
C297   C310    1.398   .     A
C298   C299    1.397   .     A
C298   C303    1.486   .     S
C299   H323    1.084   .     S
C299   C301    1.387   .     A
C300   C301    1.410   .     A
C300   C304    1.417   .     A
C300   C737    1.430   .     S
C301   H754    1.079   .     S
C302   H315    1.086   .     S
C302   C309    1.488   .     S
C302   O336    1.222   .     D
C303   H412    1.083   1_455 S
C303   O424    1.222   1_455 S
C304   C308    1.411   .     A
C305   C309    1.426   .     A
C305   C732    1.430   1_554 S
C305   C738    1.421   1_554 S
C306   C307    1.394   .     A
C306   C737    1.421   .     S
C306   C728    1.399   .     S
C307   C308    1.387   .     A
C307   H320    1.084   .     S
C308   H324    1.082   .     S
C310   H313    1.084   .     S
Cu311  Cu312   2.683   .     S
Cu311  N326    2.016   .     S
Cu311  O334    1.927   .     S
Cu311  O330    1.948   .     S
Cu311  O327    1.954   .     S
Cu311  O332    1.950   .     S
Cu312  N325    2.016   .     S
Cu312  O329    1.950   .     S
Cu312  O333    1.954   .     S
Cu312  O331    1.927   .     S
Cu312  O335    1.948   .     S
H316   C351    1.083   .     S
H317   C5      1.088   1_565 S
H318   N421    1.029   1_455 S
H319   N374    1.029   .     S
H322   C733    1.079   1_554 S
N325   H366    1.029   .     S
N325   N374    1.286   .     S
N326   N421    1.286   1_455 S
N326   H415    1.029   1_455 S
O328   C351    1.222   .     S
C337   O377    1.284   .     A
C337   O375    1.290   .     A
C337   C339    1.427   .     S
C338   C352    1.423   .     A
C338   C340    1.478   .     S
C338   C346    1.421   .     A
C339   C53     1.328   1_565 S
C339   H74     1.088   1_565 S
C340   O379    1.297   .     A
C340   O378    1.299   .     A
C341   C342    1.426   .     S
C342   O380    1.284   .     A
C342   O381    1.290   .     A
C343   O382    1.292   .     A
C343   C345    1.475   .     S
C343   O383    1.305   .     A
C344   C358    1.388   .     A
C344   H369    1.084   .     S
C344   C786    1.399   1_554 S
C345   C357    1.424   .     A
C345   C358    1.398   .     A
C346   C347    1.397   .     A
C346   C351    1.486   .     S
C347   H371    1.084   .     S
C347   C349    1.387   .     A
C348   C349    1.410   .     A
C348   C352    1.417   .     A
C348   C785    1.430   .     S
C349   H802    1.079   .     S
C350   H363    1.086   .     S
C350   C357    1.488   .     S
C350   O384    1.222   .     D
C352   C356    1.411   .     A
C353   C357    1.426   .     A
C353   C780    1.430   1_554 S
C353   C786    1.421   1_554 S
C354   C355    1.394   .     A
C354   C785    1.421   .     S
C354   C776    1.399   .     S
C355   C356    1.387   .     A
C355   H368    1.084   .     S
C356   H372    1.082   .     S
C358   H361    1.084   .     S
Cu359  Cu360   2.683   .     S
Cu359  N374    2.016   .     S
Cu359  O382    1.927   .     S
Cu359  O378    1.948   .     S
Cu359  O375    1.954   .     S
Cu359  O380    1.950   .     S
Cu360  N373    2.016   .     S
Cu360  O377    1.950   .     S
Cu360  O381    1.954   .     S
Cu360  O379    1.927   .     S
Cu360  O383    1.948   .     S
H364   C399    1.083   .     S
H365   C53     1.088   1_565 S
H367   N422    1.029   .     S
H370   C781    1.079   1_554 S
N373   H414    1.029   .     S
N373   N422    1.286   .     S
O376   C399    1.222   .     S
C385   O425    1.284   .     A
C385   O423    1.290   .     A
C385   C387    1.427   .     S
C386   C400    1.423   .     A
C386   C388    1.478   .     S
C386   C394    1.421   .     A
C387   C101    1.328   1_565 S
C387   H122    1.088   1_565 S
C388   O427    1.297   .     A
C388   O426    1.299   .     A
C389   C390    1.426   .     S
C390   O428    1.284   .     A
C390   O429    1.290   .     A
C391   O430    1.292   .     A
C391   C393    1.475   .     S
C391   O431    1.305   .     A
C392   C406    1.388   .     A
C392   H417    1.084   .     S
C392   C834    1.399   1_554 S
C393   C405    1.424   .     A
C393   C406    1.398   .     A
C394   C395    1.397   .     A
C394   C399    1.486   .     S
C395   H419    1.084   .     S
C395   C397    1.387   .     A
C396   C397    1.410   .     A
C396   C400    1.417   .     A
C396   C833    1.430   .     S
C397   H850    1.079   .     S
C398   H411    1.086   .     S
C398   C405    1.488   .     S
C398   O432    1.222   .     D
C400   C404    1.411   .     A
C401   C405    1.426   .     A
C401   C828    1.430   1_554 S
C401   C834    1.421   1_554 S
C402   C403    1.394   .     A
C402   C833    1.421   .     S
C402   C824    1.399   .     S
C403   C404    1.387   .     A
C403   H416    1.084   .     S
C404   H420    1.082   .     S
C406   H409    1.084   .     S
Cu407  Cu408   2.683   .     S
Cu407  N422    2.016   .     S
Cu407  O430    1.927   .     S
Cu407  O426    1.948   .     S
Cu407  O423    1.954   .     S
Cu407  O428    1.950   .     S
Cu408  N421    2.016   .     S
Cu408  O425    1.950   .     S
Cu408  O429    1.954   .     S
Cu408  O427    1.927   .     S
Cu408  O431    1.948   .     S
H412   C303    1.083   1_655 S
H413   C101    1.088   1_565 S
H415   N326    1.029   1_655 S
H418   C829    1.079   1_554 S
N421   H318    1.029   1_655 S
N421   N326    1.286   1_655 S
O424   C303    1.222   1_655 S
C433   O473    1.284   .     A
C433   O471    1.290   .     A
C433   C435    1.427   .     S
C434   C448    1.423   .     A
C434   C436    1.478   .     S
C434   C442    1.421   .     A
C435   C581    1.328   .     S
C435   H602    1.088   .     S
C436   O475    1.297   .     A
C436   O474    1.299   .     A
C437   C438    1.426   .     S
C437   C723    1.328   1_545 S
C437   H749    1.088   1_545 S
C438   O476    1.284   .     A
C438   O477    1.290   .     A
C439   O478    1.292   .     A
C439   C441    1.475   .     S
C439   O479    1.305   .     A
C440   C454    1.388   .     A
C440   H465    1.084   .     S
C441   C453    1.424   .     A
C441   C454    1.398   .     A
C442   C443    1.397   .     A
C442   C447    1.486   .     S
C443   H467    1.084   .     S
C443   C445    1.387   .     A
C444   C445    1.410   .     A
C444   C448    1.417   .     A
C444   C17     1.430   1_556 S
C445   H34     1.079   1_556 S
C446   H459    1.086   .     S
C446   C453    1.488   .     S
C446   O480    1.222   .     D
C447   H556    1.083   1_455 S
C447   O568    1.222   1_455 S
C448   C452    1.411   .     A
C449   C453    1.426   .     A
C450   C451    1.394   .     A
C450   C17     1.421   1_556 S
C450   C8      1.399   1_556 S
C451   C452    1.387   .     A
C451   H464    1.084   .     S
C452   H468    1.082   .     S
C454   H457    1.084   .     S
Cu455  Cu456   2.683   .     S
Cu455  N470    2.016   .     S
Cu455  O478    1.927   .     S
Cu455  O474    1.948   .     S
Cu455  O471    1.954   .     S
Cu455  O476    1.950   .     S
Cu456  N469    2.016   .     S
Cu456  O473    1.950   .     S
Cu456  O477    1.954   .     S
Cu456  O475    1.927   .     S
Cu456  O479    1.948   .     S
H458   C723    1.088   1_545 S
H460   C495    1.083   .     S
H461   C581    1.088   .     S
H462   N565    1.029   1_455 S
H463   N518    1.029   .     S
N469   H510    1.029   .     S
N469   N518    1.286   .     S
N470   N565    1.286   1_455 S
N470   H559    1.029   1_455 S
O472   C495    1.222   .     S
C481   O521    1.284   .     A
C481   O519    1.290   .     A
C481   C483    1.427   .     S
C482   C496    1.423   .     A
C482   C484    1.478   .     S
C482   C490    1.421   .     A
C483   C629    1.328   .     S
C483   H650    1.088   .     S
C484   O523    1.297   .     A
C484   O522    1.299   .     A
C485   C486    1.426   .     S
C485   C771    1.328   1_545 S
C485   H797    1.088   1_545 S
C486   O524    1.284   .     A
C486   O525    1.290   .     A
C487   O526    1.292   .     A
C487   C489    1.475   .     S
C487   O527    1.305   .     A
C488   C502    1.388   .     A
C488   H513    1.084   .     S
C489   C501    1.424   .     A
C489   C502    1.398   .     A
C490   C491    1.397   .     A
C490   C495    1.486   .     S
C491   H515    1.084   .     S
C491   C493    1.387   .     A
C492   C493    1.410   .     A
C492   C496    1.417   .     A
C492   C65     1.430   1_556 S
C493   H82     1.079   1_556 S
C494   H507    1.086   .     S
C494   C501    1.488   .     S
C494   O528    1.222   .     D
C496   C500    1.411   .     A
C497   C501    1.426   .     A
C498   C499    1.394   .     A
C498   C65     1.421   1_556 S
C498   C56     1.399   1_556 S
C499   C500    1.387   .     A
C499   H512    1.084   .     S
C500   H516    1.082   .     S
C502   H505    1.084   .     S
Cu503  Cu504   2.683   .     S
Cu503  N518    2.016   .     S
Cu503  O526    1.927   .     S
Cu503  O522    1.948   .     S
Cu503  O519    1.954   .     S
Cu503  O524    1.950   .     S
Cu504  N517    2.016   .     S
Cu504  O521    1.950   .     S
Cu504  O525    1.954   .     S
Cu504  O523    1.927   .     S
Cu504  O527    1.948   .     S
H506   C771    1.088   1_545 S
H508   C543    1.083   .     S
H509   C629    1.088   .     S
H511   N566    1.029   .     S
N517   H558    1.029   .     S
N517   N566    1.286   .     S
O520   C543    1.222   .     S
C529   O569    1.284   .     A
C529   O567    1.290   .     A
C529   C531    1.427   .     S
C530   C544    1.423   .     A
C530   C532    1.478   .     S
C530   C538    1.421   .     A
C531   C677    1.328   .     S
C531   H698    1.088   .     S
C532   O571    1.297   .     A
C532   O570    1.299   .     A
C533   C534    1.426   .     S
C533   C819    1.328   1_545 S
C533   H845    1.088   1_545 S
C534   O572    1.284   .     A
C534   O573    1.290   .     A
C535   O574    1.292   .     A
C535   C537    1.475   .     S
C535   O575    1.305   .     A
C536   C550    1.388   .     A
C536   H561    1.084   .     S
C537   C549    1.424   .     A
C537   C550    1.398   .     A
C538   C539    1.397   .     A
C538   C543    1.486   .     S
C539   H563    1.084   .     S
C539   C541    1.387   .     A
C540   C541    1.410   .     A
C540   C544    1.417   .     A
C540   C113    1.430   1_556 S
C541   H130    1.079   1_556 S
C542   H555    1.086   .     S
C542   C549    1.488   .     S
C542   O576    1.222   .     D
C544   C548    1.411   .     A
C545   C549    1.426   .     A
C546   C547    1.394   .     A
C546   C113    1.421   1_556 S
C546   C104    1.399   1_556 S
C547   C548    1.387   .     A
C547   H560    1.084   .     S
C548   H564    1.082   .     S
C550   H553    1.084   .     S
Cu551  Cu552   2.683   .     S
Cu551  N566    2.016   .     S
Cu551  O574    1.927   .     S
Cu551  O570    1.948   .     S
Cu551  O567    1.954   .     S
Cu551  O572    1.950   .     S
Cu552  N565    2.016   .     S
Cu552  O569    1.950   .     S
Cu552  O573    1.954   .     S
Cu552  O571    1.927   .     S
Cu552  O575    1.948   .     S
H554   C819    1.088   1_545 S
H556   C447    1.083   1_655 S
H557   C677    1.088   .     S
H559   N470    1.029   1_655 S
N565   H462    1.029   1_655 S
N565   N470    1.286   1_655 S
O568   C447    1.222   1_655 S
C577   O617    1.284   .     A
C577   O615    1.290   .     A
C577   C579    1.427   .     S
C578   C592    1.423   .     A
C578   C580    1.478   .     S
C578   C586    1.421   .     A
C579   C725    1.328   .     S
C579   H746    1.088   .     S
C580   O619    1.297   .     A
C580   O618    1.299   .     A
C581   C582    1.426   .     S
C582   O620    1.284   .     A
C582   O621    1.290   .     A
C583   O622    1.292   .     A
C583   C585    1.475   .     S
C583   O623    1.305   .     A
C584   C598    1.388   .     A
C584   H609    1.084   .     S
C585   C597    1.424   .     A
C585   C598    1.398   .     A
C586   C587    1.397   .     A
C586   C591    1.486   .     S
C587   H611    1.084   .     S
C587   C589    1.387   .     A
C588   C589    1.410   .     A
C588   C592    1.417   .     A
C588   C161    1.430   1_556 S
C589   H178    1.079   1_556 S
C590   H603    1.086   .     S
C590   C597    1.488   .     S
C590   O624    1.222   .     D
C591   H700    1.083   1_455 S
C591   O712    1.222   1_455 S
C592   C596    1.411   .     A
C593   C597    1.426   .     A
C594   C595    1.394   .     A
C594   C161    1.421   1_556 S
C594   C152    1.399   1_556 S
C595   C596    1.387   .     A
C595   H608    1.084   .     S
C596   H612    1.082   .     S
C598   H601    1.084   .     S
Cu599  Cu600   2.683   .     S
Cu599  N614    2.016   .     S
Cu599  O622    1.927   .     S
Cu599  O618    1.948   .     S
Cu599  O615    1.954   .     S
Cu599  O620    1.950   .     S
Cu600  N613    2.016   .     S
Cu600  O617    1.950   .     S
Cu600  O621    1.954   .     S
Cu600  O619    1.927   .     S
Cu600  O623    1.948   .     S
H604   C639    1.083   .     S
H605   C725    1.088   .     S
H606   N709    1.029   1_455 S
H607   N662    1.029   .     S
N613   H654    1.029   .     S
N613   N662    1.286   .     S
N614   N709    1.286   1_455 S
N614   H703    1.029   1_455 S
O616   C639    1.222   .     S
C625   O665    1.284   .     A
C625   O663    1.290   .     A
C625   C627    1.427   .     S
C626   C640    1.423   .     A
C626   C628    1.478   .     S
C626   C634    1.421   .     A
C627   C773    1.328   .     S
C627   H794    1.088   .     S
C628   O667    1.297   .     A
C628   O666    1.299   .     A
C629   C630    1.426   .     S
C630   O668    1.284   .     A
C630   O669    1.290   .     A
C631   O670    1.292   .     A
C631   C633    1.475   .     S
C631   O671    1.305   .     A
C632   C646    1.388   .     A
C632   H657    1.084   .     S
C633   C645    1.424   .     A
C633   C646    1.398   .     A
C634   C635    1.397   .     A
C634   C639    1.486   .     S
C635   H659    1.084   .     S
C635   C637    1.387   .     A
C636   C637    1.410   .     A
C636   C640    1.417   .     A
C636   C209    1.430   1_556 S
C637   H226    1.079   1_556 S
C638   H651    1.086   .     S
C638   C645    1.488   .     S
C638   O672    1.222   .     D
C640   C644    1.411   .     A
C641   C645    1.426   .     A
C642   C643    1.394   .     A
C642   C209    1.421   1_556 S
C642   C200    1.399   1_556 S
C643   C644    1.387   .     A
C643   H656    1.084   .     S
C644   H660    1.082   .     S
C646   H649    1.084   .     S
Cu647  Cu648   2.683   .     S
Cu647  N662    2.016   .     S
Cu647  O670    1.927   .     S
Cu647  O666    1.948   .     S
Cu647  O663    1.954   .     S
Cu647  O668    1.950   .     S
Cu648  N661    2.016   .     S
Cu648  O665    1.950   .     S
Cu648  O669    1.954   .     S
Cu648  O667    1.927   .     S
Cu648  O671    1.948   .     S
H652   C687    1.083   .     S
H653   C773    1.088   .     S
H655   N710    1.029   .     S
N661   H702    1.029   .     S
N661   N710    1.286   .     S
O664   C687    1.222   .     S
C673   O713    1.284   .     A
C673   O711    1.290   .     A
C673   C675    1.427   .     S
C674   C688    1.423   .     A
C674   C676    1.478   .     S
C674   C682    1.421   .     A
C675   C821    1.328   .     S
C675   H842    1.088   .     S
C676   O715    1.297   .     A
C676   O714    1.299   .     A
C677   C678    1.426   .     S
C678   O716    1.284   .     A
C678   O717    1.290   .     A
C679   O718    1.292   .     A
C679   C681    1.475   .     S
C679   O719    1.305   .     A
C680   C694    1.388   .     A
C680   H705    1.084   .     S
C681   C693    1.424   .     A
C681   C694    1.398   .     A
C682   C683    1.397   .     A
C682   C687    1.486   .     S
C683   H707    1.084   .     S
C683   C685    1.387   .     A
C684   C685    1.410   .     A
C684   C688    1.417   .     A
C684   C257    1.430   1_556 S
C685   H274    1.079   1_556 S
C686   H699    1.086   .     S
C686   C693    1.488   .     S
C686   O720    1.222   .     D
C688   C692    1.411   .     A
C689   C693    1.426   .     A
C690   C691    1.394   .     A
C690   C257    1.421   1_556 S
C690   C248    1.399   1_556 S
C691   C692    1.387   .     A
C691   H704    1.084   .     S
C692   H708    1.082   .     S
C694   H697    1.084   .     S
Cu695  Cu696   2.683   .     S
Cu695  N710    2.016   .     S
Cu695  O718    1.927   .     S
Cu695  O714    1.948   .     S
Cu695  O711    1.954   .     S
Cu695  O716    1.950   .     S
Cu696  N709    2.016   .     S
Cu696  O713    1.950   .     S
Cu696  O717    1.954   .     S
Cu696  O715    1.927   .     S
Cu696  O719    1.948   .     S
H700   C591    1.083   1_655 S
H701   C821    1.088   .     S
H703   N614    1.029   1_655 S
N709   H606    1.029   1_655 S
N709   N614    1.286   1_655 S
O712   C591    1.222   1_655 S
C721   O761    1.284   .     A
C721   O759    1.290   .     A
C721   C723    1.427   .     S
C722   C736    1.423   .     A
C722   C724    1.478   .     S
C722   C730    1.421   .     A
C723   C437    1.328   1_565 S
C723   H458    1.088   1_565 S
C724   O763    1.297   .     A
C724   O762    1.299   .     A
C725   C726    1.426   .     S
C726   O764    1.284   .     A
C726   O765    1.290   .     A
C727   O766    1.292   .     A
C727   C729    1.475   .     S
C727   O767    1.305   .     A
C728   C742    1.388   .     A
C728   H753    1.084   .     S
C729   C741    1.424   .     A
C729   C742    1.398   .     A
C730   C731    1.397   .     A
C730   C735    1.486   .     S
C731   H755    1.084   .     S
C731   C733    1.387   .     A
C732   C733    1.410   .     A
C732   C736    1.417   .     A
C732   C305    1.430   1_556 S
C733   H322    1.079   1_556 S
C734   H747    1.086   .     S
C734   C741    1.488   .     S
C734   O768    1.222   .     D
C735   H844    1.083   1_455 S
C735   O856    1.222   1_455 S
C736   C740    1.411   .     A
C737   C741    1.426   .     A
C738   C739    1.394   .     A
C738   C305    1.421   1_556 S
C738   C296    1.399   1_556 S
C739   C740    1.387   .     A
C739   H752    1.084   .     S
C740   H756    1.082   .     S
C742   H745    1.084   .     S
Cu743  Cu744   2.683   .     S
Cu743  N758    2.016   .     S
Cu743  O766    1.927   .     S
Cu743  O762    1.948   .     S
Cu743  O759    1.954   .     S
Cu743  O764    1.950   .     S
Cu744  N757    2.016   .     S
Cu744  O761    1.950   .     S
Cu744  O765    1.954   .     S
Cu744  O763    1.927   .     S
Cu744  O767    1.948   .     S
H748   C783    1.083   .     S
H749   C437    1.088   1_565 S
H750   N853    1.029   1_455 S
H751   N806    1.029   .     S
N757   H798    1.029   .     S
N757   N806    1.286   .     S
N758   N853    1.286   1_455 S
N758   H847    1.029   1_455 S
O760   C783    1.222   .     S
C769   O809    1.284   .     A
C769   O807    1.290   .     A
C769   C771    1.427   .     S
C770   C784    1.423   .     A
C770   C772    1.478   .     S
C770   C778    1.421   .     A
C771   C485    1.328   1_565 S
C771   H506    1.088   1_565 S
C772   O811    1.297   .     A
C772   O810    1.299   .     A
C773   C774    1.426   .     S
C774   O812    1.284   .     A
C774   O813    1.290   .     A
C775   O814    1.292   .     A
C775   C777    1.475   .     S
C775   O815    1.305   .     A
C776   C790    1.388   .     A
C776   H801    1.084   .     S
C777   C789    1.424   .     A
C777   C790    1.398   .     A
C778   C779    1.397   .     A
C778   C783    1.486   .     S
C779   H803    1.084   .     S
C779   C781    1.387   .     A
C780   C781    1.410   .     A
C780   C784    1.417   .     A
C780   C353    1.430   1_556 S
C781   H370    1.079   1_556 S
C782   H795    1.086   .     S
C782   C789    1.488   .     S
C782   O816    1.222   .     D
C784   C788    1.411   .     A
C785   C789    1.426   .     A
C786   C787    1.394   .     A
C786   C353    1.421   1_556 S
C786   C344    1.399   1_556 S
C787   C788    1.387   .     A
C787   H800    1.084   .     S
C788   H804    1.082   .     S
C790   H793    1.084   .     S
Cu791  Cu792   2.683   .     S
Cu791  N806    2.016   .     S
Cu791  O814    1.927   .     S
Cu791  O810    1.948   .     S
Cu791  O807    1.954   .     S
Cu791  O812    1.950   .     S
Cu792  N805    2.016   .     S
Cu792  O809    1.950   .     S
Cu792  O813    1.954   .     S
Cu792  O811    1.927   .     S
Cu792  O815    1.948   .     S
H796   C831    1.083   .     S
H797   C485    1.088   1_565 S
H799   N854    1.029   .     S
N805   H846    1.029   .     S
N805   N854    1.286   .     S
O808   C831    1.222   .     S
C817   O857    1.284   .     A
C817   O855    1.290   .     A
C817   C819    1.427   .     S
C818   C832    1.423   .     A
C818   C820    1.478   .     S
C818   C826    1.421   .     A
C819   C533    1.328   1_565 S
C819   H554    1.088   1_565 S
C820   O859    1.297   .     A
C820   O858    1.299   .     A
C821   C822    1.426   .     S
C822   O860    1.284   .     A
C822   O861    1.290   .     A
C823   O862    1.292   .     A
C823   C825    1.475   .     S
C823   O863    1.305   .     A
C824   C838    1.388   .     A
C824   H849    1.084   .     S
C825   C837    1.424   .     A
C825   C838    1.398   .     A
C826   C827    1.397   .     A
C826   C831    1.486   .     S
C827   H851    1.084   .     S
C827   C829    1.387   .     A
C828   C829    1.410   .     A
C828   C832    1.417   .     A
C828   C401    1.430   1_556 S
C829   H418    1.079   1_556 S
C830   H843    1.086   .     S
C830   C837    1.488   .     S
C830   O864    1.222   .     D
C832   C836    1.411   .     A
C833   C837    1.426   .     A
C834   C835    1.394   .     A
C834   C401    1.421   1_556 S
C834   C392    1.399   1_556 S
C835   C836    1.387   .     A
C835   H848    1.084   .     S
C836   H852    1.082   .     S
C838   H841    1.084   .     S
Cu839  Cu840   2.683   .     S
Cu839  N854    2.016   .     S
Cu839  O862    1.927   .     S
Cu839  O858    1.948   .     S
Cu839  O855    1.954   .     S
Cu839  O860    1.950   .     S
Cu840  N853    2.016   .     S
Cu840  O857    1.950   .     S
Cu840  O861    1.954   .     S
Cu840  O859    1.927   .     S
Cu840  O863    1.948   .     S
H844   C735    1.083   1_655 S
H845   C533    1.088   1_565 S
H847   N758    1.029   1_655 S
N853   H750    1.029   1_655 S
N853   N758    1.286   1_655 S
O856   C735    1.222   1_655 S
