data_str_m2_o10_o18_pcu_sym.43
_audit_creation_date              2020-01-03
_audit_creation_method            'Materials Studio'
_symmetry_space_group_name_H-M    'P1'
_symmetry_Int_Tables_number       1
_symmetry_cell_setting            triclinic
loop_
_symmetry_equiv_pos_as_xyz
  x,y,z
_cell_length_a                    22.2636
_cell_length_b                    26.2339
_cell_length_c                    31.3984
_cell_angle_alpha                 94.1047
_cell_angle_beta                  74.5867
_cell_angle_gamma                 102.9363
loop_
_atom_site_label
_atom_site_type_symbol
_atom_site_fract_x
_atom_site_fract_y
_atom_site_fract_z
_atom_site_U_iso_or_equiv
_atom_site_adp_type
_atom_site_occupancy
C1     C     0.18064   0.26649   0.25272   0.00000  Uiso   1.00
C2     C     0.20588   0.17198   0.16671   0.00000  Uiso   1.00
C3     C     0.10246   0.15292   0.38134   0.00000  Uiso   1.00
C4     C     0.23088   0.18038   0.11866   0.00000  Uiso   1.00
C5     C     0.02538   0.10802   0.44531   0.00000  Uiso   1.00
C6     C     0.30797   0.22526   0.05468   0.00000  Uiso   1.00
C7     C     0.04564   0.11588   0.39922   0.00000  Uiso   1.00
C8     C     0.28768   0.21745   0.10078   0.00000  Uiso   1.00
C9     C     0.13989   0.17874   0.40953   0.00000  Uiso   1.00
C10    C     0.19350   0.15450   0.09047   0.00000  Uiso   1.00
C11    C     0.12916   0.15919   0.45218   0.00000  Uiso   1.00
C12    C     0.15269   0.06684   0.24729   0.00000  Uiso   1.00
C13    C     0.20424   0.17403   0.04781   0.00000  Uiso   1.00
C14    C     0.06777   0.12904   0.47176   0.00000  Uiso   1.00
C15    C     0.26562   0.20419   0.02823   0.00000  Uiso   1.00
C16    C     0.17602   0.17146   0.47693   0.00000  Uiso   1.00
C17    C     0.15738   0.16173   0.02305   0.00000  Uiso   1.00
C18    C     0.09192   0.14252   0.04318   0.00000  Uiso   1.00
C19    C     0.24149   0.19066   0.45680   0.00000  Uiso   1.00
C20    C     0.04921   0.12280   0.01778   0.00000  Uiso   1.00
C21    C     0.28420   0.21040   0.48220   0.00000  Uiso   1.00
C22    C     0.18470   0.32196   0.25890   0.00000  Uiso   1.00
C23    C     0.14862   0.01138   0.24111   0.00000  Uiso   1.00
C24    C     0.12745   0.16135   0.33329   0.00000  Uiso   1.00
Cu25   Cu    0.10737   0.16108   0.24517   0.00000  Uiso   1.00
Cu26   Cu    0.22596   0.17225   0.25484   0.00000  Uiso   1.00
F27    F     0.32165   0.10063   0.03914   0.00000  Uiso   1.00
F28    F     0.01176   0.23256   0.46085   0.00000  Uiso   1.00
F29    F     0.06733   0.14585   0.08751   0.00000  Uiso   1.00
F30    F     0.26610   0.18730   0.41247   0.00000  Uiso   1.00
H31    H     0.00122   0.20492   0.28446   0.00000  Uiso   1.00
H32    H     0.09244   0.00681   0.20178   0.00000  Uiso   1.00
H33    H     0.33212   0.12841   0.21554   0.00000  Uiso   1.00
H34    H     0.16066   0.09154   0.12642   0.00000  Uiso   1.00
H35    H     0.17260   0.24179   0.37373   0.00000  Uiso   1.00
H36    H     0.29505   0.25556   0.15499   0.00000  Uiso   1.00
H37    H     0.03818   0.07781   0.34501   0.00000  Uiso   1.00
H38    H     0.27317   0.06984   0.44342   0.00000  Uiso   1.00
H39    H     0.06013   0.26357   0.05662   0.00000  Uiso   1.00
H40    H     0.24104   0.32655   0.29815   0.00000  Uiso   1.00
N41    N     0.31506   0.18068   0.26212   0.00000  Uiso   1.00
N42    N     0.01827   0.15265   0.23788   0.00000  Uiso   1.00
O43    O     0.12815   0.23809   0.24686   0.00000  Uiso   1.00
O44    O     0.18282   0.22569   0.39780   0.00000  Uiso   1.00
O45    O     0.32403   0.24668   0.12700   0.00000  Uiso   1.00
O46    O     0.00923   0.08670   0.37301   0.00000  Uiso   1.00
O47    O     0.29990   0.07706   0.46470   0.00000  Uiso   1.00
O48    O     0.03345   0.25622   0.03529   0.00000  Uiso   1.00
O49    O     0.22258   0.01714   0.28483   0.00000  Uiso   1.00
O50    O     0.11075   0.31619   0.21517   0.00000  Uiso   1.00
O51    O     0.20518   0.09524   0.25314   0.00000  Uiso   1.00
O52    O     0.22829   0.24753   0.25503   0.00000  Uiso   1.00
O53    O     0.10504   0.08580   0.24498   0.00000  Uiso   1.00
O54    O     0.08851   0.15930   0.30855   0.00000  Uiso   1.00
O55    O     0.24482   0.17403   0.19146   0.00000  Uiso   1.00
O56    O     0.18866   0.16874   0.31671   0.00000  Uiso   1.00
O57    O     0.14468   0.16460   0.18329   0.00000  Uiso   1.00
O58    O     0.15064   0.10752   0.10218   0.00000  Uiso   1.00
C59    C     0.51398   0.26649   0.25272   0.00000  Uiso   1.00
C60    C     0.53922   0.17198   0.16671   0.00000  Uiso   1.00
C61    C     0.43579   0.15292   0.38134   0.00000  Uiso   1.00
C62    C     0.56421   0.18038   0.11866   0.00000  Uiso   1.00
C63    C     0.35871   0.10802   0.44531   0.00000  Uiso   1.00
C64    C     0.64131   0.22526   0.05468   0.00000  Uiso   1.00
C65    C     0.37897   0.11588   0.39922   0.00000  Uiso   1.00
C66    C     0.62101   0.21745   0.10078   0.00000  Uiso   1.00
C67    C     0.47322   0.17874   0.40953   0.00000  Uiso   1.00
C68    C     0.52684   0.15450   0.09047   0.00000  Uiso   1.00
C69    C     0.46249   0.15919   0.45218   0.00000  Uiso   1.00
C70    C     0.48602   0.06684   0.24729   0.00000  Uiso   1.00
C71    C     0.53757   0.17403   0.04781   0.00000  Uiso   1.00
C72    C     0.40110   0.12904   0.47176   0.00000  Uiso   1.00
C73    C     0.59896   0.20419   0.02823   0.00000  Uiso   1.00
C74    C     0.50936   0.17146   0.47693   0.00000  Uiso   1.00
C75    C     0.49072   0.16173   0.02305   0.00000  Uiso   1.00
C76    C     0.42526   0.14252   0.04318   0.00000  Uiso   1.00
C77    C     0.57482   0.19066   0.45680   0.00000  Uiso   1.00
C78    C     0.38254   0.12280   0.01778   0.00000  Uiso   1.00
C79    C     0.61753   0.21040   0.48220   0.00000  Uiso   1.00
C80    C     0.51804   0.32196   0.25890   0.00000  Uiso   1.00
C81    C     0.48195   0.01138   0.24111   0.00000  Uiso   1.00
C82    C     0.46079   0.16135   0.33329   0.00000  Uiso   1.00
Cu83   Cu    0.44071   0.16108   0.24517   0.00000  Uiso   1.00
Cu84   Cu    0.55929   0.17225   0.25484   0.00000  Uiso   1.00
F85    F     0.65498   0.10063   0.03914   0.00000  Uiso   1.00
F86    F     0.34509   0.23256   0.46085   0.00000  Uiso   1.00
F87    F     0.40066   0.14585   0.08751   0.00000  Uiso   1.00
F88    F     0.59943   0.18730   0.41247   0.00000  Uiso   1.00
H89    H     0.33455   0.20492   0.28446   0.00000  Uiso   1.00
H90    H     0.42577   0.00681   0.20178   0.00000  Uiso   1.00
H91    H     0.66545   0.12841   0.21554   0.00000  Uiso   1.00
H92    H     0.49399   0.09154   0.12642   0.00000  Uiso   1.00
H93    H     0.50593   0.24179   0.37373   0.00000  Uiso   1.00
H94    H     0.62838   0.25556   0.15499   0.00000  Uiso   1.00
H95    H     0.37152   0.07781   0.34501   0.00000  Uiso   1.00
H96    H     0.60650   0.06984   0.44342   0.00000  Uiso   1.00
H97    H     0.39347   0.26357   0.05662   0.00000  Uiso   1.00
H98    H     0.57438   0.32655   0.29815   0.00000  Uiso   1.00
N99    N     0.64839   0.18068   0.26212   0.00000  Uiso   1.00
N100   N     0.35161   0.15265   0.23788   0.00000  Uiso   1.00
O101   O     0.46148   0.23809   0.24686   0.00000  Uiso   1.00
O102   O     0.51616   0.22569   0.39780   0.00000  Uiso   1.00
O103   O     0.65736   0.24668   0.12700   0.00000  Uiso   1.00
O104   O     0.34257   0.08670   0.37301   0.00000  Uiso   1.00
O105   O     0.63323   0.07706   0.46470   0.00000  Uiso   1.00
O106   O     0.36679   0.25622   0.03529   0.00000  Uiso   1.00
O107   O     0.55591   0.01714   0.28483   0.00000  Uiso   1.00
O108   O     0.44409   0.31619   0.21517   0.00000  Uiso   1.00
O109   O     0.53852   0.09524   0.25314   0.00000  Uiso   1.00
O110   O     0.56163   0.24753   0.25503   0.00000  Uiso   1.00
O111   O     0.43837   0.08580   0.24498   0.00000  Uiso   1.00
O112   O     0.42185   0.15930   0.30855   0.00000  Uiso   1.00
O113   O     0.57815   0.17403   0.19146   0.00000  Uiso   1.00
O114   O     0.52199   0.16874   0.31671   0.00000  Uiso   1.00
O115   O     0.47801   0.16460   0.18329   0.00000  Uiso   1.00
O116   O     0.48398   0.10752   0.10218   0.00000  Uiso   1.00
C117   C     0.84731   0.26649   0.25272   0.00000  Uiso   1.00
C118   C     0.87255   0.17198   0.16671   0.00000  Uiso   1.00
C119   C     0.76912   0.15292   0.38134   0.00000  Uiso   1.00
C120   C     0.89755   0.18038   0.11866   0.00000  Uiso   1.00
C121   C     0.69205   0.10802   0.44531   0.00000  Uiso   1.00
C122   C     0.97464   0.22526   0.05468   0.00000  Uiso   1.00
C123   C     0.71230   0.11588   0.39922   0.00000  Uiso   1.00
C124   C     0.95434   0.21745   0.10078   0.00000  Uiso   1.00
C125   C     0.80655   0.17874   0.40953   0.00000  Uiso   1.00
C126   C     0.86017   0.15450   0.09047   0.00000  Uiso   1.00
C127   C     0.79582   0.15919   0.45218   0.00000  Uiso   1.00
C128   C     0.81935   0.06684   0.24729   0.00000  Uiso   1.00
C129   C     0.87091   0.17403   0.04781   0.00000  Uiso   1.00
C130   C     0.73443   0.12904   0.47176   0.00000  Uiso   1.00
C131   C     0.93229   0.20419   0.02823   0.00000  Uiso   1.00
C132   C     0.84269   0.17146   0.47693   0.00000  Uiso   1.00
C133   C     0.82405   0.16173   0.02305   0.00000  Uiso   1.00
C134   C     0.75859   0.14252   0.04318   0.00000  Uiso   1.00
C135   C     0.90815   0.19066   0.45680   0.00000  Uiso   1.00
C136   C     0.71587   0.12280   0.01778   0.00000  Uiso   1.00
C137   C     0.95087   0.21040   0.48220   0.00000  Uiso   1.00
C138   C     0.85137   0.32196   0.25890   0.00000  Uiso   1.00
C139   C     0.81529   0.01138   0.24111   0.00000  Uiso   1.00
C140   C     0.79412   0.16135   0.33329   0.00000  Uiso   1.00
Cu141  Cu    0.77404   0.16108   0.24517   0.00000  Uiso   1.00
Cu142  Cu    0.89263   0.17225   0.25484   0.00000  Uiso   1.00
F143   F     0.98832   0.10063   0.03914   0.00000  Uiso   1.00
F144   F     0.67843   0.23256   0.46085   0.00000  Uiso   1.00
F145   F     0.73399   0.14585   0.08751   0.00000  Uiso   1.00
F146   F     0.93276   0.18730   0.41247   0.00000  Uiso   1.00
H147   H     0.66788   0.20492   0.28446   0.00000  Uiso   1.00
H148   H     0.75910   0.00681   0.20178   0.00000  Uiso   1.00
H149   H     0.99878   0.12841   0.21554   0.00000  Uiso   1.00
H150   H     0.82732   0.09154   0.12642   0.00000  Uiso   1.00
H151   H     0.83926   0.24179   0.37373   0.00000  Uiso   1.00
H152   H     0.96172   0.25556   0.15499   0.00000  Uiso   1.00
H153   H     0.70485   0.07781   0.34501   0.00000  Uiso   1.00
H154   H     0.93983   0.06984   0.44342   0.00000  Uiso   1.00
H155   H     0.72680   0.26357   0.05662   0.00000  Uiso   1.00
H156   H     0.90771   0.32655   0.29815   0.00000  Uiso   1.00
N157   N     0.98173   0.18068   0.26212   0.00000  Uiso   1.00
N158   N     0.68494   0.15265   0.23788   0.00000  Uiso   1.00
O159   O     0.79482   0.23809   0.24686   0.00000  Uiso   1.00
O160   O     0.84949   0.22569   0.39780   0.00000  Uiso   1.00
O161   O     0.99070   0.24668   0.12700   0.00000  Uiso   1.00
O162   O     0.67590   0.08670   0.37301   0.00000  Uiso   1.00
O163   O     0.96657   0.07706   0.46470   0.00000  Uiso   1.00
O164   O     0.70012   0.25622   0.03529   0.00000  Uiso   1.00
O165   O     0.88924   0.01714   0.28483   0.00000  Uiso   1.00
O166   O     0.77742   0.31619   0.21517   0.00000  Uiso   1.00
O167   O     0.87185   0.09524   0.25314   0.00000  Uiso   1.00
O168   O     0.89496   0.24753   0.25503   0.00000  Uiso   1.00
O169   O     0.77171   0.08580   0.24498   0.00000  Uiso   1.00
O170   O     0.75518   0.15930   0.30855   0.00000  Uiso   1.00
O171   O     0.91149   0.17403   0.19146   0.00000  Uiso   1.00
O172   O     0.85532   0.16874   0.31671   0.00000  Uiso   1.00
O173   O     0.81134   0.16460   0.18329   0.00000  Uiso   1.00
O174   O     0.81731   0.10752   0.10218   0.00000  Uiso   1.00
C175   C     0.18064   0.59982   0.25272   0.00000  Uiso   1.00
C176   C     0.20588   0.50532   0.16671   0.00000  Uiso   1.00
C177   C     0.10246   0.48626   0.38134   0.00000  Uiso   1.00
C178   C     0.23088   0.51372   0.11866   0.00000  Uiso   1.00
C179   C     0.02538   0.44135   0.44531   0.00000  Uiso   1.00
C180   C     0.30797   0.55860   0.05468   0.00000  Uiso   1.00
C181   C     0.04564   0.44921   0.39922   0.00000  Uiso   1.00
C182   C     0.28768   0.55079   0.10078   0.00000  Uiso   1.00
C183   C     0.13989   0.51207   0.40953   0.00000  Uiso   1.00
C184   C     0.19350   0.48784   0.09047   0.00000  Uiso   1.00
C185   C     0.12916   0.49252   0.45218   0.00000  Uiso   1.00
C186   C     0.15269   0.40018   0.24729   0.00000  Uiso   1.00
C187   C     0.20424   0.50736   0.04781   0.00000  Uiso   1.00
C188   C     0.06777   0.46237   0.47176   0.00000  Uiso   1.00
C189   C     0.26562   0.53752   0.02823   0.00000  Uiso   1.00
C190   C     0.17602   0.50480   0.47693   0.00000  Uiso   1.00
C191   C     0.15738   0.49507   0.02305   0.00000  Uiso   1.00
C192   C     0.09192   0.47586   0.04318   0.00000  Uiso   1.00
C193   C     0.24149   0.52400   0.45680   0.00000  Uiso   1.00
C194   C     0.04921   0.45614   0.01778   0.00000  Uiso   1.00
C195   C     0.28420   0.54373   0.48220   0.00000  Uiso   1.00
C196   C     0.18470   0.65529   0.25890   0.00000  Uiso   1.00
C197   C     0.14862   0.34471   0.24111   0.00000  Uiso   1.00
C198   C     0.12745   0.49469   0.33329   0.00000  Uiso   1.00
Cu199  Cu    0.10737   0.49441   0.24517   0.00000  Uiso   1.00
Cu200  Cu    0.22596   0.50559   0.25484   0.00000  Uiso   1.00
F201   F     0.32165   0.43396   0.03914   0.00000  Uiso   1.00
F202   F     0.01176   0.56589   0.46085   0.00000  Uiso   1.00
F203   F     0.06733   0.47918   0.08751   0.00000  Uiso   1.00
F204   F     0.26610   0.52063   0.41247   0.00000  Uiso   1.00
H205   H     0.00122   0.53826   0.28446   0.00000  Uiso   1.00
H206   H     0.09244   0.34015   0.20178   0.00000  Uiso   1.00
H207   H     0.33212   0.46174   0.21554   0.00000  Uiso   1.00
H208   H     0.16066   0.42488   0.12642   0.00000  Uiso   1.00
H209   H     0.17260   0.57512   0.37373   0.00000  Uiso   1.00
H210   H     0.29505   0.58890   0.15499   0.00000  Uiso   1.00
H211   H     0.03818   0.41115   0.34501   0.00000  Uiso   1.00
H212   H     0.27317   0.40317   0.44342   0.00000  Uiso   1.00
H213   H     0.06013   0.59690   0.05662   0.00000  Uiso   1.00
H214   H     0.24104   0.65989   0.29815   0.00000  Uiso   1.00
N215   N     0.31506   0.51401   0.26212   0.00000  Uiso   1.00
N216   N     0.01827   0.48599   0.23788   0.00000  Uiso   1.00
O217   O     0.12815   0.57142   0.24686   0.00000  Uiso   1.00
O218   O     0.18282   0.55902   0.39780   0.00000  Uiso   1.00
O219   O     0.32403   0.58002   0.12700   0.00000  Uiso   1.00
O220   O     0.00923   0.42004   0.37301   0.00000  Uiso   1.00
O221   O     0.29990   0.41040   0.46470   0.00000  Uiso   1.00
O222   O     0.03345   0.58956   0.03529   0.00000  Uiso   1.00
O223   O     0.22258   0.35048   0.28483   0.00000  Uiso   1.00
O224   O     0.11075   0.64953   0.21517   0.00000  Uiso   1.00
O225   O     0.20518   0.42858   0.25314   0.00000  Uiso   1.00
O226   O     0.22829   0.58086   0.25503   0.00000  Uiso   1.00
O227   O     0.10504   0.41914   0.24498   0.00000  Uiso   1.00
O228   O     0.08851   0.49263   0.30855   0.00000  Uiso   1.00
O229   O     0.24482   0.50737   0.19146   0.00000  Uiso   1.00
O230   O     0.18866   0.50207   0.31671   0.00000  Uiso   1.00
O231   O     0.14468   0.49793   0.18329   0.00000  Uiso   1.00
O232   O     0.15064   0.44085   0.10218   0.00000  Uiso   1.00
C233   C     0.51398   0.59982   0.25272   0.00000  Uiso   1.00
C234   C     0.53922   0.50532   0.16671   0.00000  Uiso   1.00
C235   C     0.43579   0.48626   0.38134   0.00000  Uiso   1.00
C236   C     0.56421   0.51372   0.11866   0.00000  Uiso   1.00
C237   C     0.35871   0.44135   0.44531   0.00000  Uiso   1.00
C238   C     0.64131   0.55860   0.05468   0.00000  Uiso   1.00
C239   C     0.37897   0.44921   0.39922   0.00000  Uiso   1.00
C240   C     0.62101   0.55079   0.10078   0.00000  Uiso   1.00
C241   C     0.47322   0.51207   0.40953   0.00000  Uiso   1.00
C242   C     0.52684   0.48784   0.09047   0.00000  Uiso   1.00
C243   C     0.46249   0.49252   0.45218   0.00000  Uiso   1.00
C244   C     0.48602   0.40018   0.24729   0.00000  Uiso   1.00
C245   C     0.53757   0.50736   0.04781   0.00000  Uiso   1.00
C246   C     0.40110   0.46237   0.47176   0.00000  Uiso   1.00
C247   C     0.59896   0.53752   0.02823   0.00000  Uiso   1.00
C248   C     0.50936   0.50480   0.47693   0.00000  Uiso   1.00
C249   C     0.49072   0.49507   0.02305   0.00000  Uiso   1.00
C250   C     0.42526   0.47586   0.04318   0.00000  Uiso   1.00
C251   C     0.57482   0.52400   0.45680   0.00000  Uiso   1.00
C252   C     0.38254   0.45614   0.01778   0.00000  Uiso   1.00
C253   C     0.61753   0.54373   0.48220   0.00000  Uiso   1.00
C254   C     0.51804   0.65529   0.25890   0.00000  Uiso   1.00
C255   C     0.48195   0.34471   0.24111   0.00000  Uiso   1.00
C256   C     0.46079   0.49469   0.33329   0.00000  Uiso   1.00
Cu257  Cu    0.44071   0.49441   0.24517   0.00000  Uiso   1.00
Cu258  Cu    0.55929   0.50559   0.25484   0.00000  Uiso   1.00
F259   F     0.65498   0.43396   0.03914   0.00000  Uiso   1.00
F260   F     0.34509   0.56589   0.46085   0.00000  Uiso   1.00
F261   F     0.40066   0.47918   0.08751   0.00000  Uiso   1.00
F262   F     0.59943   0.52063   0.41247   0.00000  Uiso   1.00
H263   H     0.33455   0.53826   0.28446   0.00000  Uiso   1.00
H264   H     0.42577   0.34015   0.20178   0.00000  Uiso   1.00
H265   H     0.66545   0.46174   0.21554   0.00000  Uiso   1.00
H266   H     0.49399   0.42488   0.12642   0.00000  Uiso   1.00
H267   H     0.50593   0.57512   0.37373   0.00000  Uiso   1.00
H268   H     0.62838   0.58890   0.15499   0.00000  Uiso   1.00
H269   H     0.37152   0.41115   0.34501   0.00000  Uiso   1.00
H270   H     0.60650   0.40317   0.44342   0.00000  Uiso   1.00
H271   H     0.39347   0.59690   0.05662   0.00000  Uiso   1.00
H272   H     0.57438   0.65989   0.29815   0.00000  Uiso   1.00
N273   N     0.64839   0.51401   0.26212   0.00000  Uiso   1.00
N274   N     0.35161   0.48599   0.23788   0.00000  Uiso   1.00
O275   O     0.46148   0.57142   0.24686   0.00000  Uiso   1.00
O276   O     0.51616   0.55902   0.39780   0.00000  Uiso   1.00
O277   O     0.65736   0.58002   0.12700   0.00000  Uiso   1.00
O278   O     0.34257   0.42004   0.37301   0.00000  Uiso   1.00
O279   O     0.63323   0.41040   0.46470   0.00000  Uiso   1.00
O280   O     0.36679   0.58956   0.03529   0.00000  Uiso   1.00
O281   O     0.55591   0.35048   0.28483   0.00000  Uiso   1.00
O282   O     0.44409   0.64953   0.21517   0.00000  Uiso   1.00
O283   O     0.53852   0.42858   0.25314   0.00000  Uiso   1.00
O284   O     0.56163   0.58086   0.25503   0.00000  Uiso   1.00
O285   O     0.43837   0.41914   0.24498   0.00000  Uiso   1.00
O286   O     0.42185   0.49263   0.30855   0.00000  Uiso   1.00
O287   O     0.57815   0.50737   0.19146   0.00000  Uiso   1.00
O288   O     0.52199   0.50207   0.31671   0.00000  Uiso   1.00
O289   O     0.47801   0.49793   0.18329   0.00000  Uiso   1.00
O290   O     0.48398   0.44085   0.10218   0.00000  Uiso   1.00
C291   C     0.84731   0.59982   0.25272   0.00000  Uiso   1.00
C292   C     0.87255   0.50532   0.16671   0.00000  Uiso   1.00
C293   C     0.76912   0.48626   0.38134   0.00000  Uiso   1.00
C294   C     0.89755   0.51372   0.11866   0.00000  Uiso   1.00
C295   C     0.69205   0.44135   0.44531   0.00000  Uiso   1.00
C296   C     0.97464   0.55860   0.05468   0.00000  Uiso   1.00
C297   C     0.71230   0.44921   0.39922   0.00000  Uiso   1.00
C298   C     0.95434   0.55079   0.10078   0.00000  Uiso   1.00
C299   C     0.80655   0.51207   0.40953   0.00000  Uiso   1.00
C300   C     0.86017   0.48784   0.09047   0.00000  Uiso   1.00
C301   C     0.79582   0.49252   0.45218   0.00000  Uiso   1.00
C302   C     0.81935   0.40018   0.24729   0.00000  Uiso   1.00
C303   C     0.87091   0.50736   0.04781   0.00000  Uiso   1.00
C304   C     0.73443   0.46237   0.47176   0.00000  Uiso   1.00
C305   C     0.93229   0.53752   0.02823   0.00000  Uiso   1.00
C306   C     0.84269   0.50480   0.47693   0.00000  Uiso   1.00
C307   C     0.82405   0.49507   0.02305   0.00000  Uiso   1.00
C308   C     0.75859   0.47586   0.04318   0.00000  Uiso   1.00
C309   C     0.90815   0.52400   0.45680   0.00000  Uiso   1.00
C310   C     0.71587   0.45614   0.01778   0.00000  Uiso   1.00
C311   C     0.95087   0.54373   0.48220   0.00000  Uiso   1.00
C312   C     0.85137   0.65529   0.25890   0.00000  Uiso   1.00
C313   C     0.81529   0.34471   0.24111   0.00000  Uiso   1.00
C314   C     0.79412   0.49469   0.33329   0.00000  Uiso   1.00
Cu315  Cu    0.77404   0.49441   0.24517   0.00000  Uiso   1.00
Cu316  Cu    0.89263   0.50559   0.25484   0.00000  Uiso   1.00
F317   F     0.98832   0.43396   0.03914   0.00000  Uiso   1.00
F318   F     0.67843   0.56589   0.46085   0.00000  Uiso   1.00
F319   F     0.73399   0.47918   0.08751   0.00000  Uiso   1.00
F320   F     0.93276   0.52063   0.41247   0.00000  Uiso   1.00
H321   H     0.66788   0.53826   0.28446   0.00000  Uiso   1.00
H322   H     0.75910   0.34015   0.20178   0.00000  Uiso   1.00
H323   H     0.99878   0.46174   0.21554   0.00000  Uiso   1.00
H324   H     0.82732   0.42488   0.12642   0.00000  Uiso   1.00
H325   H     0.83926   0.57512   0.37373   0.00000  Uiso   1.00
H326   H     0.96172   0.58890   0.15499   0.00000  Uiso   1.00
H327   H     0.70485   0.41115   0.34501   0.00000  Uiso   1.00
H328   H     0.93983   0.40317   0.44342   0.00000  Uiso   1.00
H329   H     0.72680   0.59690   0.05662   0.00000  Uiso   1.00
H330   H     0.90771   0.65989   0.29815   0.00000  Uiso   1.00
N331   N     0.98173   0.51401   0.26212   0.00000  Uiso   1.00
N332   N     0.68494   0.48599   0.23788   0.00000  Uiso   1.00
O333   O     0.79482   0.57142   0.24686   0.00000  Uiso   1.00
O334   O     0.84949   0.55902   0.39780   0.00000  Uiso   1.00
O335   O     0.99070   0.58002   0.12700   0.00000  Uiso   1.00
O336   O     0.67590   0.42004   0.37301   0.00000  Uiso   1.00
O337   O     0.96657   0.41040   0.46470   0.00000  Uiso   1.00
O338   O     0.70012   0.58956   0.03529   0.00000  Uiso   1.00
O339   O     0.88924   0.35048   0.28483   0.00000  Uiso   1.00
O340   O     0.77742   0.64953   0.21517   0.00000  Uiso   1.00
O341   O     0.87185   0.42858   0.25314   0.00000  Uiso   1.00
O342   O     0.89496   0.58086   0.25503   0.00000  Uiso   1.00
O343   O     0.77171   0.41914   0.24498   0.00000  Uiso   1.00
O344   O     0.75518   0.49263   0.30855   0.00000  Uiso   1.00
O345   O     0.91149   0.50737   0.19146   0.00000  Uiso   1.00
O346   O     0.85532   0.50207   0.31671   0.00000  Uiso   1.00
O347   O     0.81134   0.49793   0.18329   0.00000  Uiso   1.00
O348   O     0.81731   0.44085   0.10218   0.00000  Uiso   1.00
C349   C     0.18064   0.93316   0.25272   0.00000  Uiso   1.00
C350   C     0.20588   0.83865   0.16671   0.00000  Uiso   1.00
C351   C     0.10246   0.81959   0.38134   0.00000  Uiso   1.00
C352   C     0.23088   0.84705   0.11866   0.00000  Uiso   1.00
C353   C     0.02538   0.77469   0.44531   0.00000  Uiso   1.00
C354   C     0.30797   0.89193   0.05468   0.00000  Uiso   1.00
C355   C     0.04564   0.78254   0.39922   0.00000  Uiso   1.00
C356   C     0.28768   0.88412   0.10078   0.00000  Uiso   1.00
C357   C     0.13989   0.84541   0.40953   0.00000  Uiso   1.00
C358   C     0.19350   0.82117   0.09047   0.00000  Uiso   1.00
C359   C     0.12916   0.82586   0.45218   0.00000  Uiso   1.00
C360   C     0.15269   0.73351   0.24729   0.00000  Uiso   1.00
C361   C     0.20424   0.84069   0.04781   0.00000  Uiso   1.00
C362   C     0.06777   0.79571   0.47176   0.00000  Uiso   1.00
C363   C     0.26562   0.87086   0.02823   0.00000  Uiso   1.00
C364   C     0.17602   0.83813   0.47693   0.00000  Uiso   1.00
C365   C     0.15738   0.82840   0.02305   0.00000  Uiso   1.00
C366   C     0.09192   0.80919   0.04318   0.00000  Uiso   1.00
C367   C     0.24149   0.85733   0.45680   0.00000  Uiso   1.00
C368   C     0.04921   0.78947   0.01778   0.00000  Uiso   1.00
C369   C     0.28420   0.87706   0.48220   0.00000  Uiso   1.00
C370   C     0.18470   0.98862   0.25890   0.00000  Uiso   1.00
C371   C     0.14862   0.67804   0.24111   0.00000  Uiso   1.00
C372   C     0.12745   0.82802   0.33329   0.00000  Uiso   1.00
Cu373  Cu    0.10737   0.82775   0.24517   0.00000  Uiso   1.00
Cu374  Cu    0.22596   0.83892   0.25484   0.00000  Uiso   1.00
F375   F     0.32165   0.76730   0.03914   0.00000  Uiso   1.00
F376   F     0.01176   0.89922   0.46085   0.00000  Uiso   1.00
F377   F     0.06733   0.81251   0.08751   0.00000  Uiso   1.00
F378   F     0.26610   0.85397   0.41247   0.00000  Uiso   1.00
H379   H     0.00122   0.87159   0.28446   0.00000  Uiso   1.00
H380   H     0.09244   0.67348   0.20178   0.00000  Uiso   1.00
H381   H     0.33212   0.79508   0.21554   0.00000  Uiso   1.00
H382   H     0.16066   0.75821   0.12642   0.00000  Uiso   1.00
H383   H     0.17260   0.90845   0.37373   0.00000  Uiso   1.00
H384   H     0.29505   0.92223   0.15499   0.00000  Uiso   1.00
H385   H     0.03818   0.74448   0.34501   0.00000  Uiso   1.00
H386   H     0.27317   0.73651   0.44342   0.00000  Uiso   1.00
H387   H     0.06013   0.93023   0.05662   0.00000  Uiso   1.00
H388   H     0.24104   0.99322   0.29815   0.00000  Uiso   1.00
N389   N     0.31506   0.84735   0.26212   0.00000  Uiso   1.00
N390   N     0.01827   0.81932   0.23788   0.00000  Uiso   1.00
O391   O     0.12815   0.90476   0.24686   0.00000  Uiso   1.00
O392   O     0.18282   0.89236   0.39780   0.00000  Uiso   1.00
O393   O     0.32403   0.91335   0.12700   0.00000  Uiso   1.00
O394   O     0.00923   0.75337   0.37301   0.00000  Uiso   1.00
O395   O     0.29990   0.74373   0.46470   0.00000  Uiso   1.00
O396   O     0.03345   0.92289   0.03529   0.00000  Uiso   1.00
O397   O     0.22258   0.68381   0.28483   0.00000  Uiso   1.00
O398   O     0.11075   0.98286   0.21517   0.00000  Uiso   1.00
O399   O     0.20518   0.76191   0.25314   0.00000  Uiso   1.00
O400   O     0.22829   0.91420   0.25503   0.00000  Uiso   1.00
O401   O     0.10504   0.75247   0.24498   0.00000  Uiso   1.00
O402   O     0.08851   0.82597   0.30855   0.00000  Uiso   1.00
O403   O     0.24482   0.84070   0.19146   0.00000  Uiso   1.00
O404   O     0.18866   0.83540   0.31671   0.00000  Uiso   1.00
O405   O     0.14468   0.83126   0.18329   0.00000  Uiso   1.00
O406   O     0.15064   0.77418   0.10218   0.00000  Uiso   1.00
C407   C     0.51398   0.93316   0.25272   0.00000  Uiso   1.00
C408   C     0.53922   0.83865   0.16671   0.00000  Uiso   1.00
C409   C     0.43579   0.81959   0.38134   0.00000  Uiso   1.00
C410   C     0.56421   0.84705   0.11866   0.00000  Uiso   1.00
C411   C     0.35871   0.77469   0.44531   0.00000  Uiso   1.00
C412   C     0.64131   0.89193   0.05468   0.00000  Uiso   1.00
C413   C     0.37897   0.78254   0.39922   0.00000  Uiso   1.00
C414   C     0.62101   0.88412   0.10078   0.00000  Uiso   1.00
C415   C     0.47322   0.84541   0.40953   0.00000  Uiso   1.00
C416   C     0.52684   0.82117   0.09047   0.00000  Uiso   1.00
C417   C     0.46249   0.82586   0.45218   0.00000  Uiso   1.00
C418   C     0.48602   0.73351   0.24729   0.00000  Uiso   1.00
C419   C     0.53757   0.84069   0.04781   0.00000  Uiso   1.00
C420   C     0.40110   0.79571   0.47176   0.00000  Uiso   1.00
C421   C     0.59896   0.87086   0.02823   0.00000  Uiso   1.00
C422   C     0.50936   0.83813   0.47693   0.00000  Uiso   1.00
C423   C     0.49072   0.82840   0.02305   0.00000  Uiso   1.00
C424   C     0.42526   0.80919   0.04318   0.00000  Uiso   1.00
C425   C     0.57482   0.85733   0.45680   0.00000  Uiso   1.00
C426   C     0.38254   0.78947   0.01778   0.00000  Uiso   1.00
C427   C     0.61753   0.87706   0.48220   0.00000  Uiso   1.00
C428   C     0.51804   0.98862   0.25890   0.00000  Uiso   1.00
C429   C     0.48195   0.67804   0.24111   0.00000  Uiso   1.00
C430   C     0.46079   0.82802   0.33329   0.00000  Uiso   1.00
Cu431  Cu    0.44071   0.82775   0.24517   0.00000  Uiso   1.00
Cu432  Cu    0.55929   0.83892   0.25484   0.00000  Uiso   1.00
F433   F     0.65498   0.76730   0.03914   0.00000  Uiso   1.00
F434   F     0.34509   0.89922   0.46085   0.00000  Uiso   1.00
F435   F     0.40066   0.81251   0.08751   0.00000  Uiso   1.00
F436   F     0.59943   0.85397   0.41247   0.00000  Uiso   1.00
H437   H     0.33455   0.87159   0.28446   0.00000  Uiso   1.00
H438   H     0.42577   0.67348   0.20178   0.00000  Uiso   1.00
H439   H     0.66545   0.79508   0.21554   0.00000  Uiso   1.00
H440   H     0.49399   0.75821   0.12642   0.00000  Uiso   1.00
H441   H     0.50593   0.90845   0.37373   0.00000  Uiso   1.00
H442   H     0.62838   0.92223   0.15499   0.00000  Uiso   1.00
H443   H     0.37152   0.74448   0.34501   0.00000  Uiso   1.00
H444   H     0.60650   0.73651   0.44342   0.00000  Uiso   1.00
H445   H     0.39347   0.93023   0.05662   0.00000  Uiso   1.00
H446   H     0.57438   0.99322   0.29815   0.00000  Uiso   1.00
N447   N     0.64839   0.84735   0.26212   0.00000  Uiso   1.00
N448   N     0.35161   0.81932   0.23788   0.00000  Uiso   1.00
O449   O     0.46148   0.90476   0.24686   0.00000  Uiso   1.00
O450   O     0.51616   0.89236   0.39780   0.00000  Uiso   1.00
O451   O     0.65736   0.91335   0.12700   0.00000  Uiso   1.00
O452   O     0.34257   0.75337   0.37301   0.00000  Uiso   1.00
O453   O     0.63323   0.74373   0.46470   0.00000  Uiso   1.00
O454   O     0.36679   0.92289   0.03529   0.00000  Uiso   1.00
O455   O     0.55591   0.68381   0.28483   0.00000  Uiso   1.00
O456   O     0.44409   0.98286   0.21517   0.00000  Uiso   1.00
O457   O     0.53852   0.76191   0.25314   0.00000  Uiso   1.00
O458   O     0.56163   0.91420   0.25503   0.00000  Uiso   1.00
O459   O     0.43837   0.75247   0.24498   0.00000  Uiso   1.00
O460   O     0.42185   0.82597   0.30855   0.00000  Uiso   1.00
O461   O     0.57815   0.84070   0.19146   0.00000  Uiso   1.00
O462   O     0.52199   0.83540   0.31671   0.00000  Uiso   1.00
O463   O     0.47801   0.83126   0.18329   0.00000  Uiso   1.00
O464   O     0.48398   0.77418   0.10218   0.00000  Uiso   1.00
C465   C     0.84731   0.93316   0.25272   0.00000  Uiso   1.00
C466   C     0.87255   0.83865   0.16671   0.00000  Uiso   1.00
C467   C     0.76912   0.81959   0.38134   0.00000  Uiso   1.00
C468   C     0.89755   0.84705   0.11866   0.00000  Uiso   1.00
C469   C     0.69205   0.77469   0.44531   0.00000  Uiso   1.00
C470   C     0.97464   0.89193   0.05468   0.00000  Uiso   1.00
C471   C     0.71230   0.78254   0.39922   0.00000  Uiso   1.00
C472   C     0.95434   0.88412   0.10078   0.00000  Uiso   1.00
C473   C     0.80655   0.84541   0.40953   0.00000  Uiso   1.00
C474   C     0.86017   0.82117   0.09047   0.00000  Uiso   1.00
C475   C     0.79582   0.82586   0.45218   0.00000  Uiso   1.00
C476   C     0.81935   0.73351   0.24729   0.00000  Uiso   1.00
C477   C     0.87091   0.84069   0.04781   0.00000  Uiso   1.00
C478   C     0.73443   0.79571   0.47176   0.00000  Uiso   1.00
C479   C     0.93229   0.87086   0.02823   0.00000  Uiso   1.00
C480   C     0.84269   0.83813   0.47693   0.00000  Uiso   1.00
C481   C     0.82405   0.82840   0.02305   0.00000  Uiso   1.00
C482   C     0.75859   0.80919   0.04318   0.00000  Uiso   1.00
C483   C     0.90815   0.85733   0.45680   0.00000  Uiso   1.00
C484   C     0.71587   0.78947   0.01778   0.00000  Uiso   1.00
C485   C     0.95087   0.87706   0.48220   0.00000  Uiso   1.00
C486   C     0.85137   0.98862   0.25890   0.00000  Uiso   1.00
C487   C     0.81529   0.67804   0.24111   0.00000  Uiso   1.00
C488   C     0.79412   0.82802   0.33329   0.00000  Uiso   1.00
Cu489  Cu    0.77404   0.82775   0.24517   0.00000  Uiso   1.00
Cu490  Cu    0.89263   0.83892   0.25484   0.00000  Uiso   1.00
F491   F     0.98832   0.76730   0.03914   0.00000  Uiso   1.00
F492   F     0.67843   0.89922   0.46085   0.00000  Uiso   1.00
F493   F     0.73399   0.81251   0.08751   0.00000  Uiso   1.00
F494   F     0.93276   0.85397   0.41247   0.00000  Uiso   1.00
H495   H     0.66788   0.87159   0.28446   0.00000  Uiso   1.00
H496   H     0.75910   0.67348   0.20178   0.00000  Uiso   1.00
H497   H     0.99878   0.79508   0.21554   0.00000  Uiso   1.00
H498   H     0.82732   0.75821   0.12642   0.00000  Uiso   1.00
H499   H     0.83926   0.90845   0.37373   0.00000  Uiso   1.00
H500   H     0.96172   0.92223   0.15499   0.00000  Uiso   1.00
H501   H     0.70485   0.74448   0.34501   0.00000  Uiso   1.00
H502   H     0.93983   0.73651   0.44342   0.00000  Uiso   1.00
H503   H     0.72680   0.93023   0.05662   0.00000  Uiso   1.00
H504   H     0.90771   0.99322   0.29815   0.00000  Uiso   1.00
N505   N     0.98173   0.84735   0.26212   0.00000  Uiso   1.00
N506   N     0.68494   0.81932   0.23788   0.00000  Uiso   1.00
O507   O     0.79482   0.90476   0.24686   0.00000  Uiso   1.00
O508   O     0.84949   0.89236   0.39780   0.00000  Uiso   1.00
O509   O     0.99070   0.91335   0.12700   0.00000  Uiso   1.00
O510   O     0.67590   0.75337   0.37301   0.00000  Uiso   1.00
O511   O     0.96657   0.74373   0.46470   0.00000  Uiso   1.00
O512   O     0.70012   0.92289   0.03529   0.00000  Uiso   1.00
O513   O     0.88924   0.68381   0.28483   0.00000  Uiso   1.00
O514   O     0.77742   0.98286   0.21517   0.00000  Uiso   1.00
O515   O     0.87185   0.76191   0.25314   0.00000  Uiso   1.00
O516   O     0.89496   0.91420   0.25503   0.00000  Uiso   1.00
O517   O     0.77171   0.75247   0.24498   0.00000  Uiso   1.00
O518   O     0.75518   0.82597   0.30855   0.00000  Uiso   1.00
O519   O     0.91149   0.84070   0.19146   0.00000  Uiso   1.00
O520   O     0.85532   0.83540   0.31671   0.00000  Uiso   1.00
O521   O     0.81134   0.83126   0.18329   0.00000  Uiso   1.00
O522   O     0.81731   0.77418   0.10218   0.00000  Uiso   1.00
C523   C     0.18064   0.26649   0.75272   0.00000  Uiso   1.00
C524   C     0.20588   0.17198   0.66671   0.00000  Uiso   1.00
C525   C     0.10246   0.15292   0.88134   0.00000  Uiso   1.00
C526   C     0.23088   0.18038   0.61866   0.00000  Uiso   1.00
C527   C     0.02538   0.10802   0.94531   0.00000  Uiso   1.00
C528   C     0.30797   0.22526   0.55468   0.00000  Uiso   1.00
C529   C     0.04564   0.11588   0.89922   0.00000  Uiso   1.00
C530   C     0.28768   0.21745   0.60078   0.00000  Uiso   1.00
C531   C     0.13989   0.17874   0.90953   0.00000  Uiso   1.00
C532   C     0.19350   0.15450   0.59047   0.00000  Uiso   1.00
C533   C     0.12916   0.15919   0.95218   0.00000  Uiso   1.00
C534   C     0.15269   0.06684   0.74729   0.00000  Uiso   1.00
C535   C     0.20424   0.17403   0.54781   0.00000  Uiso   1.00
C536   C     0.06777   0.12904   0.97176   0.00000  Uiso   1.00
C537   C     0.26562   0.20419   0.52823   0.00000  Uiso   1.00
C538   C     0.17602   0.17146   0.97693   0.00000  Uiso   1.00
C539   C     0.15738   0.16173   0.52305   0.00000  Uiso   1.00
C540   C     0.09192   0.14252   0.54318   0.00000  Uiso   1.00
C541   C     0.24149   0.19066   0.95680   0.00000  Uiso   1.00
C542   C     0.04921   0.12280   0.51778   0.00000  Uiso   1.00
C543   C     0.28420   0.21040   0.98220   0.00000  Uiso   1.00
C544   C     0.18470   0.32196   0.75890   0.00000  Uiso   1.00
C545   C     0.14862   0.01138   0.74111   0.00000  Uiso   1.00
C546   C     0.12745   0.16135   0.83329   0.00000  Uiso   1.00
Cu547  Cu    0.10737   0.16108   0.74517   0.00000  Uiso   1.00
Cu548  Cu    0.22596   0.17225   0.75484   0.00000  Uiso   1.00
F549   F     0.32165   0.10063   0.53914   0.00000  Uiso   1.00
F550   F     0.01176   0.23256   0.96085   0.00000  Uiso   1.00
F551   F     0.06733   0.14585   0.58751   0.00000  Uiso   1.00
F552   F     0.26610   0.18730   0.91247   0.00000  Uiso   1.00
H553   H     0.00122   0.20492   0.78446   0.00000  Uiso   1.00
H554   H     0.09244   0.00681   0.70178   0.00000  Uiso   1.00
H555   H     0.33212   0.12841   0.71554   0.00000  Uiso   1.00
H556   H     0.16066   0.09154   0.62642   0.00000  Uiso   1.00
H557   H     0.17260   0.24179   0.87373   0.00000  Uiso   1.00
H558   H     0.29505   0.25556   0.65499   0.00000  Uiso   1.00
H559   H     0.03818   0.07781   0.84501   0.00000  Uiso   1.00
H560   H     0.27317   0.06984   0.94342   0.00000  Uiso   1.00
H561   H     0.06013   0.26357   0.55662   0.00000  Uiso   1.00
H562   H     0.24104   0.32655   0.79815   0.00000  Uiso   1.00
N563   N     0.31506   0.18068   0.76212   0.00000  Uiso   1.00
N564   N     0.01827   0.15265   0.73788   0.00000  Uiso   1.00
O565   O     0.12815   0.23809   0.74686   0.00000  Uiso   1.00
O566   O     0.18282   0.22569   0.89780   0.00000  Uiso   1.00
O567   O     0.32403   0.24668   0.62700   0.00000  Uiso   1.00
O568   O     0.00923   0.08670   0.87301   0.00000  Uiso   1.00
O569   O     0.29990   0.07706   0.96470   0.00000  Uiso   1.00
O570   O     0.03345   0.25622   0.53529   0.00000  Uiso   1.00
O571   O     0.22258   0.01714   0.78483   0.00000  Uiso   1.00
O572   O     0.11075   0.31619   0.71517   0.00000  Uiso   1.00
O573   O     0.20518   0.09524   0.75314   0.00000  Uiso   1.00
O574   O     0.22829   0.24753   0.75503   0.00000  Uiso   1.00
O575   O     0.10504   0.08580   0.74498   0.00000  Uiso   1.00
O576   O     0.08851   0.15930   0.80855   0.00000  Uiso   1.00
O577   O     0.24482   0.17403   0.69146   0.00000  Uiso   1.00
O578   O     0.18866   0.16874   0.81671   0.00000  Uiso   1.00
O579   O     0.14468   0.16460   0.68329   0.00000  Uiso   1.00
O580   O     0.15064   0.10752   0.60218   0.00000  Uiso   1.00
C581   C     0.51398   0.26649   0.75272   0.00000  Uiso   1.00
C582   C     0.53922   0.17198   0.66671   0.00000  Uiso   1.00
C583   C     0.43579   0.15292   0.88134   0.00000  Uiso   1.00
C584   C     0.56421   0.18038   0.61866   0.00000  Uiso   1.00
C585   C     0.35871   0.10802   0.94531   0.00000  Uiso   1.00
C586   C     0.64131   0.22526   0.55468   0.00000  Uiso   1.00
C587   C     0.37897   0.11588   0.89922   0.00000  Uiso   1.00
C588   C     0.62101   0.21745   0.60078   0.00000  Uiso   1.00
C589   C     0.47322   0.17874   0.90953   0.00000  Uiso   1.00
C590   C     0.52684   0.15450   0.59047   0.00000  Uiso   1.00
C591   C     0.46249   0.15919   0.95218   0.00000  Uiso   1.00
C592   C     0.48602   0.06684   0.74729   0.00000  Uiso   1.00
C593   C     0.53757   0.17403   0.54781   0.00000  Uiso   1.00
C594   C     0.40110   0.12904   0.97176   0.00000  Uiso   1.00
C595   C     0.59896   0.20419   0.52823   0.00000  Uiso   1.00
C596   C     0.50936   0.17146   0.97693   0.00000  Uiso   1.00
C597   C     0.49072   0.16173   0.52305   0.00000  Uiso   1.00
C598   C     0.42526   0.14252   0.54318   0.00000  Uiso   1.00
C599   C     0.57482   0.19066   0.95680   0.00000  Uiso   1.00
C600   C     0.38254   0.12280   0.51778   0.00000  Uiso   1.00
C601   C     0.61753   0.21040   0.98220   0.00000  Uiso   1.00
C602   C     0.51804   0.32196   0.75890   0.00000  Uiso   1.00
C603   C     0.48195   0.01138   0.74111   0.00000  Uiso   1.00
C604   C     0.46079   0.16135   0.83329   0.00000  Uiso   1.00
Cu605  Cu    0.44071   0.16108   0.74517   0.00000  Uiso   1.00
Cu606  Cu    0.55929   0.17225   0.75484   0.00000  Uiso   1.00
F607   F     0.65498   0.10063   0.53914   0.00000  Uiso   1.00
F608   F     0.34509   0.23256   0.96085   0.00000  Uiso   1.00
F609   F     0.40066   0.14585   0.58751   0.00000  Uiso   1.00
F610   F     0.59943   0.18730   0.91247   0.00000  Uiso   1.00
H611   H     0.33455   0.20492   0.78446   0.00000  Uiso   1.00
H612   H     0.42577   0.00681   0.70178   0.00000  Uiso   1.00
H613   H     0.66545   0.12841   0.71554   0.00000  Uiso   1.00
H614   H     0.49399   0.09154   0.62642   0.00000  Uiso   1.00
H615   H     0.50593   0.24179   0.87373   0.00000  Uiso   1.00
H616   H     0.62838   0.25556   0.65499   0.00000  Uiso   1.00
H617   H     0.37152   0.07781   0.84501   0.00000  Uiso   1.00
H618   H     0.60650   0.06984   0.94342   0.00000  Uiso   1.00
H619   H     0.39347   0.26357   0.55662   0.00000  Uiso   1.00
H620   H     0.57438   0.32655   0.79815   0.00000  Uiso   1.00
N621   N     0.64839   0.18068   0.76212   0.00000  Uiso   1.00
N622   N     0.35161   0.15265   0.73788   0.00000  Uiso   1.00
O623   O     0.46148   0.23809   0.74686   0.00000  Uiso   1.00
O624   O     0.51616   0.22569   0.89780   0.00000  Uiso   1.00
O625   O     0.65736   0.24668   0.62700   0.00000  Uiso   1.00
O626   O     0.34257   0.08670   0.87301   0.00000  Uiso   1.00
O627   O     0.63323   0.07706   0.96470   0.00000  Uiso   1.00
O628   O     0.36679   0.25622   0.53529   0.00000  Uiso   1.00
O629   O     0.55591   0.01714   0.78483   0.00000  Uiso   1.00
O630   O     0.44409   0.31619   0.71517   0.00000  Uiso   1.00
O631   O     0.53852   0.09524   0.75314   0.00000  Uiso   1.00
O632   O     0.56163   0.24753   0.75503   0.00000  Uiso   1.00
O633   O     0.43837   0.08580   0.74498   0.00000  Uiso   1.00
O634   O     0.42185   0.15930   0.80855   0.00000  Uiso   1.00
O635   O     0.57815   0.17403   0.69146   0.00000  Uiso   1.00
O636   O     0.52199   0.16874   0.81671   0.00000  Uiso   1.00
O637   O     0.47801   0.16460   0.68329   0.00000  Uiso   1.00
O638   O     0.48398   0.10752   0.60218   0.00000  Uiso   1.00
C639   C     0.84731   0.26649   0.75272   0.00000  Uiso   1.00
C640   C     0.87255   0.17198   0.66671   0.00000  Uiso   1.00
C641   C     0.76912   0.15292   0.88134   0.00000  Uiso   1.00
C642   C     0.89755   0.18038   0.61866   0.00000  Uiso   1.00
C643   C     0.69205   0.10802   0.94531   0.00000  Uiso   1.00
C644   C     0.97464   0.22526   0.55468   0.00000  Uiso   1.00
C645   C     0.71230   0.11588   0.89922   0.00000  Uiso   1.00
C646   C     0.95434   0.21745   0.60078   0.00000  Uiso   1.00
C647   C     0.80655   0.17874   0.90953   0.00000  Uiso   1.00
C648   C     0.86017   0.15450   0.59047   0.00000  Uiso   1.00
C649   C     0.79582   0.15919   0.95218   0.00000  Uiso   1.00
C650   C     0.81935   0.06684   0.74729   0.00000  Uiso   1.00
C651   C     0.87091   0.17403   0.54781   0.00000  Uiso   1.00
C652   C     0.73443   0.12904   0.97176   0.00000  Uiso   1.00
C653   C     0.93229   0.20419   0.52823   0.00000  Uiso   1.00
C654   C     0.84269   0.17146   0.97693   0.00000  Uiso   1.00
C655   C     0.82405   0.16173   0.52305   0.00000  Uiso   1.00
C656   C     0.75859   0.14252   0.54318   0.00000  Uiso   1.00
C657   C     0.90815   0.19066   0.95680   0.00000  Uiso   1.00
C658   C     0.71587   0.12280   0.51778   0.00000  Uiso   1.00
C659   C     0.95087   0.21040   0.98220   0.00000  Uiso   1.00
C660   C     0.85137   0.32196   0.75890   0.00000  Uiso   1.00
C661   C     0.81529   0.01138   0.74111   0.00000  Uiso   1.00
C662   C     0.79412   0.16135   0.83329   0.00000  Uiso   1.00
Cu663  Cu    0.77404   0.16108   0.74517   0.00000  Uiso   1.00
Cu664  Cu    0.89263   0.17225   0.75484   0.00000  Uiso   1.00
F665   F     0.98832   0.10063   0.53914   0.00000  Uiso   1.00
F666   F     0.67843   0.23256   0.96085   0.00000  Uiso   1.00
F667   F     0.73399   0.14585   0.58751   0.00000  Uiso   1.00
F668   F     0.93276   0.18730   0.91247   0.00000  Uiso   1.00
H669   H     0.66788   0.20492   0.78446   0.00000  Uiso   1.00
H670   H     0.75910   0.00681   0.70178   0.00000  Uiso   1.00
H671   H     0.99878   0.12841   0.71554   0.00000  Uiso   1.00
H672   H     0.82732   0.09154   0.62642   0.00000  Uiso   1.00
H673   H     0.83926   0.24179   0.87373   0.00000  Uiso   1.00
H674   H     0.96172   0.25556   0.65499   0.00000  Uiso   1.00
H675   H     0.70485   0.07781   0.84501   0.00000  Uiso   1.00
H676   H     0.93983   0.06984   0.94342   0.00000  Uiso   1.00
H677   H     0.72680   0.26357   0.55662   0.00000  Uiso   1.00
H678   H     0.90771   0.32655   0.79815   0.00000  Uiso   1.00
N679   N     0.98173   0.18068   0.76212   0.00000  Uiso   1.00
N680   N     0.68494   0.15265   0.73788   0.00000  Uiso   1.00
O681   O     0.79482   0.23809   0.74686   0.00000  Uiso   1.00
O682   O     0.84949   0.22569   0.89780   0.00000  Uiso   1.00
O683   O     0.99070   0.24668   0.62700   0.00000  Uiso   1.00
O684   O     0.67590   0.08670   0.87301   0.00000  Uiso   1.00
O685   O     0.96657   0.07706   0.96470   0.00000  Uiso   1.00
O686   O     0.70012   0.25622   0.53529   0.00000  Uiso   1.00
O687   O     0.88924   0.01714   0.78483   0.00000  Uiso   1.00
O688   O     0.77742   0.31619   0.71517   0.00000  Uiso   1.00
O689   O     0.87185   0.09524   0.75314   0.00000  Uiso   1.00
O690   O     0.89496   0.24753   0.75503   0.00000  Uiso   1.00
O691   O     0.77171   0.08580   0.74498   0.00000  Uiso   1.00
O692   O     0.75518   0.15930   0.80855   0.00000  Uiso   1.00
O693   O     0.91149   0.17403   0.69146   0.00000  Uiso   1.00
O694   O     0.85532   0.16874   0.81671   0.00000  Uiso   1.00
O695   O     0.81134   0.16460   0.68329   0.00000  Uiso   1.00
O696   O     0.81731   0.10752   0.60218   0.00000  Uiso   1.00
C697   C     0.18064   0.59982   0.75272   0.00000  Uiso   1.00
C698   C     0.20588   0.50532   0.66671   0.00000  Uiso   1.00
C699   C     0.10246   0.48626   0.88134   0.00000  Uiso   1.00
C700   C     0.23088   0.51372   0.61866   0.00000  Uiso   1.00
C701   C     0.02538   0.44135   0.94531   0.00000  Uiso   1.00
C702   C     0.30797   0.55860   0.55468   0.00000  Uiso   1.00
C703   C     0.04564   0.44921   0.89922   0.00000  Uiso   1.00
C704   C     0.28768   0.55079   0.60078   0.00000  Uiso   1.00
C705   C     0.13989   0.51207   0.90953   0.00000  Uiso   1.00
C706   C     0.19350   0.48784   0.59047   0.00000  Uiso   1.00
C707   C     0.12916   0.49252   0.95218   0.00000  Uiso   1.00
C708   C     0.15269   0.40018   0.74729   0.00000  Uiso   1.00
C709   C     0.20424   0.50736   0.54781   0.00000  Uiso   1.00
C710   C     0.06777   0.46237   0.97176   0.00000  Uiso   1.00
C711   C     0.26562   0.53752   0.52823   0.00000  Uiso   1.00
C712   C     0.17602   0.50480   0.97693   0.00000  Uiso   1.00
C713   C     0.15738   0.49507   0.52305   0.00000  Uiso   1.00
C714   C     0.09192   0.47586   0.54318   0.00000  Uiso   1.00
C715   C     0.24149   0.52400   0.95680   0.00000  Uiso   1.00
C716   C     0.04921   0.45614   0.51778   0.00000  Uiso   1.00
C717   C     0.28420   0.54373   0.98220   0.00000  Uiso   1.00
C718   C     0.18470   0.65529   0.75890   0.00000  Uiso   1.00
C719   C     0.14862   0.34471   0.74111   0.00000  Uiso   1.00
C720   C     0.12745   0.49469   0.83329   0.00000  Uiso   1.00
Cu721  Cu    0.10737   0.49441   0.74517   0.00000  Uiso   1.00
Cu722  Cu    0.22596   0.50559   0.75484   0.00000  Uiso   1.00
F723   F     0.32165   0.43396   0.53914   0.00000  Uiso   1.00
F724   F     0.01176   0.56589   0.96085   0.00000  Uiso   1.00
F725   F     0.06733   0.47918   0.58751   0.00000  Uiso   1.00
F726   F     0.26610   0.52063   0.91247   0.00000  Uiso   1.00
H727   H     0.00122   0.53826   0.78446   0.00000  Uiso   1.00
H728   H     0.09244   0.34015   0.70178   0.00000  Uiso   1.00
H729   H     0.33212   0.46174   0.71554   0.00000  Uiso   1.00
H730   H     0.16066   0.42488   0.62642   0.00000  Uiso   1.00
H731   H     0.17260   0.57512   0.87373   0.00000  Uiso   1.00
H732   H     0.29505   0.58890   0.65499   0.00000  Uiso   1.00
H733   H     0.03818   0.41115   0.84501   0.00000  Uiso   1.00
H734   H     0.27317   0.40317   0.94342   0.00000  Uiso   1.00
H735   H     0.06013   0.59690   0.55662   0.00000  Uiso   1.00
H736   H     0.24104   0.65989   0.79815   0.00000  Uiso   1.00
N737   N     0.31506   0.51401   0.76212   0.00000  Uiso   1.00
N738   N     0.01827   0.48599   0.73788   0.00000  Uiso   1.00
O739   O     0.12815   0.57142   0.74686   0.00000  Uiso   1.00
O740   O     0.18282   0.55902   0.89780   0.00000  Uiso   1.00
O741   O     0.32403   0.58002   0.62700   0.00000  Uiso   1.00
O742   O     0.00923   0.42004   0.87301   0.00000  Uiso   1.00
O743   O     0.29990   0.41040   0.96470   0.00000  Uiso   1.00
O744   O     0.03345   0.58956   0.53529   0.00000  Uiso   1.00
O745   O     0.22258   0.35048   0.78483   0.00000  Uiso   1.00
O746   O     0.11075   0.64953   0.71517   0.00000  Uiso   1.00
O747   O     0.20518   0.42858   0.75314   0.00000  Uiso   1.00
O748   O     0.22829   0.58086   0.75503   0.00000  Uiso   1.00
O749   O     0.10504   0.41914   0.74498   0.00000  Uiso   1.00
O750   O     0.08851   0.49263   0.80855   0.00000  Uiso   1.00
O751   O     0.24482   0.50737   0.69146   0.00000  Uiso   1.00
O752   O     0.18866   0.50207   0.81671   0.00000  Uiso   1.00
O753   O     0.14468   0.49793   0.68329   0.00000  Uiso   1.00
O754   O     0.15064   0.44085   0.60218   0.00000  Uiso   1.00
C755   C     0.51398   0.59982   0.75272   0.00000  Uiso   1.00
C756   C     0.53922   0.50532   0.66671   0.00000  Uiso   1.00
C757   C     0.43579   0.48626   0.88134   0.00000  Uiso   1.00
C758   C     0.56421   0.51372   0.61866   0.00000  Uiso   1.00
C759   C     0.35871   0.44135   0.94531   0.00000  Uiso   1.00
C760   C     0.64131   0.55860   0.55468   0.00000  Uiso   1.00
C761   C     0.37897   0.44921   0.89922   0.00000  Uiso   1.00
C762   C     0.62101   0.55079   0.60078   0.00000  Uiso   1.00
C763   C     0.47322   0.51207   0.90953   0.00000  Uiso   1.00
C764   C     0.52684   0.48784   0.59047   0.00000  Uiso   1.00
C765   C     0.46249   0.49252   0.95218   0.00000  Uiso   1.00
C766   C     0.48602   0.40018   0.74729   0.00000  Uiso   1.00
C767   C     0.53757   0.50736   0.54781   0.00000  Uiso   1.00
C768   C     0.40110   0.46237   0.97176   0.00000  Uiso   1.00
C769   C     0.59896   0.53752   0.52823   0.00000  Uiso   1.00
C770   C     0.50936   0.50480   0.97693   0.00000  Uiso   1.00
C771   C     0.49072   0.49507   0.52305   0.00000  Uiso   1.00
C772   C     0.42526   0.47586   0.54318   0.00000  Uiso   1.00
C773   C     0.57482   0.52400   0.95680   0.00000  Uiso   1.00
C774   C     0.38254   0.45614   0.51778   0.00000  Uiso   1.00
C775   C     0.61753   0.54373   0.98220   0.00000  Uiso   1.00
C776   C     0.51804   0.65529   0.75890   0.00000  Uiso   1.00
C777   C     0.48195   0.34471   0.74111   0.00000  Uiso   1.00
C778   C     0.46079   0.49469   0.83329   0.00000  Uiso   1.00
Cu779  Cu    0.44071   0.49441   0.74517   0.00000  Uiso   1.00
Cu780  Cu    0.55929   0.50559   0.75484   0.00000  Uiso   1.00
F781   F     0.65498   0.43396   0.53914   0.00000  Uiso   1.00
F782   F     0.34509   0.56589   0.96085   0.00000  Uiso   1.00
F783   F     0.40066   0.47918   0.58751   0.00000  Uiso   1.00
F784   F     0.59943   0.52063   0.91247   0.00000  Uiso   1.00
H785   H     0.33455   0.53826   0.78446   0.00000  Uiso   1.00
H786   H     0.42577   0.34015   0.70178   0.00000  Uiso   1.00
H787   H     0.66545   0.46174   0.71554   0.00000  Uiso   1.00
H788   H     0.49399   0.42488   0.62642   0.00000  Uiso   1.00
H789   H     0.50593   0.57512   0.87373   0.00000  Uiso   1.00
H790   H     0.62838   0.58890   0.65499   0.00000  Uiso   1.00
H791   H     0.37152   0.41115   0.84501   0.00000  Uiso   1.00
H792   H     0.60650   0.40317   0.94342   0.00000  Uiso   1.00
H793   H     0.39347   0.59690   0.55662   0.00000  Uiso   1.00
H794   H     0.57438   0.65989   0.79815   0.00000  Uiso   1.00
N795   N     0.64839   0.51401   0.76212   0.00000  Uiso   1.00
N796   N     0.35161   0.48599   0.73788   0.00000  Uiso   1.00
O797   O     0.46148   0.57142   0.74686   0.00000  Uiso   1.00
O798   O     0.51616   0.55902   0.89780   0.00000  Uiso   1.00
O799   O     0.65736   0.58002   0.62700   0.00000  Uiso   1.00
O800   O     0.34257   0.42004   0.87301   0.00000  Uiso   1.00
O801   O     0.63323   0.41040   0.96470   0.00000  Uiso   1.00
O802   O     0.36679   0.58956   0.53529   0.00000  Uiso   1.00
O803   O     0.55591   0.35048   0.78483   0.00000  Uiso   1.00
O804   O     0.44409   0.64953   0.71517   0.00000  Uiso   1.00
O805   O     0.53852   0.42858   0.75314   0.00000  Uiso   1.00
O806   O     0.56163   0.58086   0.75503   0.00000  Uiso   1.00
O807   O     0.43837   0.41914   0.74498   0.00000  Uiso   1.00
O808   O     0.42185   0.49263   0.80855   0.00000  Uiso   1.00
O809   O     0.57815   0.50737   0.69146   0.00000  Uiso   1.00
O810   O     0.52199   0.50207   0.81671   0.00000  Uiso   1.00
O811   O     0.47801   0.49793   0.68329   0.00000  Uiso   1.00
O812   O     0.48398   0.44085   0.60218   0.00000  Uiso   1.00
C813   C     0.84731   0.59982   0.75272   0.00000  Uiso   1.00
C814   C     0.87255   0.50532   0.66671   0.00000  Uiso   1.00
C815   C     0.76912   0.48626   0.88134   0.00000  Uiso   1.00
C816   C     0.89755   0.51372   0.61866   0.00000  Uiso   1.00
C817   C     0.69205   0.44135   0.94531   0.00000  Uiso   1.00
C818   C     0.97464   0.55860   0.55468   0.00000  Uiso   1.00
C819   C     0.71230   0.44921   0.89922   0.00000  Uiso   1.00
C820   C     0.95434   0.55079   0.60078   0.00000  Uiso   1.00
C821   C     0.80655   0.51207   0.90953   0.00000  Uiso   1.00
C822   C     0.86017   0.48784   0.59047   0.00000  Uiso   1.00
C823   C     0.79582   0.49252   0.95218   0.00000  Uiso   1.00
C824   C     0.81935   0.40018   0.74729   0.00000  Uiso   1.00
C825   C     0.87091   0.50736   0.54781   0.00000  Uiso   1.00
C826   C     0.73443   0.46237   0.97176   0.00000  Uiso   1.00
C827   C     0.93229   0.53752   0.52823   0.00000  Uiso   1.00
C828   C     0.84269   0.50480   0.97693   0.00000  Uiso   1.00
C829   C     0.82405   0.49507   0.52305   0.00000  Uiso   1.00
C830   C     0.75859   0.47586   0.54318   0.00000  Uiso   1.00
C831   C     0.90815   0.52400   0.95680   0.00000  Uiso   1.00
C832   C     0.71587   0.45614   0.51778   0.00000  Uiso   1.00
C833   C     0.95087   0.54373   0.98220   0.00000  Uiso   1.00
C834   C     0.85137   0.65529   0.75890   0.00000  Uiso   1.00
C835   C     0.81529   0.34471   0.74111   0.00000  Uiso   1.00
C836   C     0.79412   0.49469   0.83329   0.00000  Uiso   1.00
Cu837  Cu    0.77404   0.49441   0.74517   0.00000  Uiso   1.00
Cu838  Cu    0.89263   0.50559   0.75484   0.00000  Uiso   1.00
F839   F     0.98832   0.43396   0.53914   0.00000  Uiso   1.00
F840   F     0.67843   0.56589   0.96085   0.00000  Uiso   1.00
F841   F     0.73399   0.47918   0.58751   0.00000  Uiso   1.00
F842   F     0.93276   0.52063   0.91247   0.00000  Uiso   1.00
H843   H     0.66788   0.53826   0.78446   0.00000  Uiso   1.00
H844   H     0.75910   0.34015   0.70178   0.00000  Uiso   1.00
H845   H     0.99878   0.46174   0.71554   0.00000  Uiso   1.00
H846   H     0.82732   0.42488   0.62642   0.00000  Uiso   1.00
H847   H     0.83926   0.57512   0.87373   0.00000  Uiso   1.00
H848   H     0.96172   0.58890   0.65499   0.00000  Uiso   1.00
H849   H     0.70485   0.41115   0.84501   0.00000  Uiso   1.00
H850   H     0.93983   0.40317   0.94342   0.00000  Uiso   1.00
H851   H     0.72680   0.59690   0.55662   0.00000  Uiso   1.00
H852   H     0.90771   0.65989   0.79815   0.00000  Uiso   1.00
N853   N     0.98173   0.51401   0.76212   0.00000  Uiso   1.00
N854   N     0.68494   0.48599   0.73788   0.00000  Uiso   1.00
O855   O     0.79482   0.57142   0.74686   0.00000  Uiso   1.00
O856   O     0.84949   0.55902   0.89780   0.00000  Uiso   1.00
O857   O     0.99070   0.58002   0.62700   0.00000  Uiso   1.00
O858   O     0.67590   0.42004   0.87301   0.00000  Uiso   1.00
O859   O     0.96657   0.41040   0.96470   0.00000  Uiso   1.00
O860   O     0.70012   0.58956   0.53529   0.00000  Uiso   1.00
O861   O     0.88924   0.35048   0.78483   0.00000  Uiso   1.00
O862   O     0.77742   0.64953   0.71517   0.00000  Uiso   1.00
O863   O     0.87185   0.42858   0.75314   0.00000  Uiso   1.00
O864   O     0.89496   0.58086   0.75503   0.00000  Uiso   1.00
O865   O     0.77171   0.41914   0.74498   0.00000  Uiso   1.00
O866   O     0.75518   0.49263   0.80855   0.00000  Uiso   1.00
O867   O     0.91149   0.50737   0.69146   0.00000  Uiso   1.00
O868   O     0.85532   0.50207   0.81671   0.00000  Uiso   1.00
O869   O     0.81134   0.49793   0.68329   0.00000  Uiso   1.00
O870   O     0.81731   0.44085   0.60218   0.00000  Uiso   1.00
C871   C     0.18064   0.93316   0.75272   0.00000  Uiso   1.00
C872   C     0.20588   0.83865   0.66671   0.00000  Uiso   1.00
C873   C     0.10246   0.81959   0.88134   0.00000  Uiso   1.00
C874   C     0.23088   0.84705   0.61866   0.00000  Uiso   1.00
C875   C     0.02538   0.77469   0.94531   0.00000  Uiso   1.00
C876   C     0.30797   0.89193   0.55468   0.00000  Uiso   1.00
C877   C     0.04564   0.78254   0.89922   0.00000  Uiso   1.00
C878   C     0.28768   0.88412   0.60078   0.00000  Uiso   1.00
C879   C     0.13989   0.84541   0.90953   0.00000  Uiso   1.00
C880   C     0.19350   0.82117   0.59047   0.00000  Uiso   1.00
C881   C     0.12916   0.82586   0.95218   0.00000  Uiso   1.00
C882   C     0.15269   0.73351   0.74729   0.00000  Uiso   1.00
C883   C     0.20424   0.84069   0.54781   0.00000  Uiso   1.00
C884   C     0.06777   0.79571   0.97176   0.00000  Uiso   1.00
C885   C     0.26562   0.87086   0.52823   0.00000  Uiso   1.00
C886   C     0.17602   0.83813   0.97693   0.00000  Uiso   1.00
C887   C     0.15738   0.82840   0.52305   0.00000  Uiso   1.00
C888   C     0.09192   0.80919   0.54318   0.00000  Uiso   1.00
C889   C     0.24149   0.85733   0.95680   0.00000  Uiso   1.00
C890   C     0.04921   0.78947   0.51778   0.00000  Uiso   1.00
C891   C     0.28420   0.87706   0.98220   0.00000  Uiso   1.00
C892   C     0.18470   0.98862   0.75890   0.00000  Uiso   1.00
C893   C     0.14862   0.67804   0.74111   0.00000  Uiso   1.00
C894   C     0.12745   0.82802   0.83329   0.00000  Uiso   1.00
Cu895  Cu    0.10737   0.82775   0.74517   0.00000  Uiso   1.00
Cu896  Cu    0.22596   0.83892   0.75484   0.00000  Uiso   1.00
F897   F     0.32165   0.76730   0.53914   0.00000  Uiso   1.00
F898   F     0.01176   0.89922   0.96085   0.00000  Uiso   1.00
F899   F     0.06733   0.81251   0.58751   0.00000  Uiso   1.00
F900   F     0.26610   0.85397   0.91247   0.00000  Uiso   1.00
H901   H     0.00122   0.87159   0.78446   0.00000  Uiso   1.00
H902   H     0.09244   0.67348   0.70178   0.00000  Uiso   1.00
H903   H     0.33212   0.79508   0.71554   0.00000  Uiso   1.00
H904   H     0.16066   0.75821   0.62642   0.00000  Uiso   1.00
H905   H     0.17260   0.90845   0.87373   0.00000  Uiso   1.00
H906   H     0.29505   0.92223   0.65499   0.00000  Uiso   1.00
H907   H     0.03818   0.74448   0.84501   0.00000  Uiso   1.00
H908   H     0.27317   0.73651   0.94342   0.00000  Uiso   1.00
H909   H     0.06013   0.93023   0.55662   0.00000  Uiso   1.00
H910   H     0.24104   0.99322   0.79815   0.00000  Uiso   1.00
N911   N     0.31506   0.84735   0.76212   0.00000  Uiso   1.00
N912   N     0.01827   0.81932   0.73788   0.00000  Uiso   1.00
O913   O     0.12815   0.90476   0.74686   0.00000  Uiso   1.00
O914   O     0.18282   0.89236   0.89780   0.00000  Uiso   1.00
O915   O     0.32403   0.91335   0.62700   0.00000  Uiso   1.00
O916   O     0.00923   0.75337   0.87301   0.00000  Uiso   1.00
O917   O     0.29990   0.74373   0.96470   0.00000  Uiso   1.00
O918   O     0.03345   0.92289   0.53529   0.00000  Uiso   1.00
O919   O     0.22258   0.68381   0.78483   0.00000  Uiso   1.00
O920   O     0.11075   0.98286   0.71517   0.00000  Uiso   1.00
O921   O     0.20518   0.76191   0.75314   0.00000  Uiso   1.00
O922   O     0.22829   0.91420   0.75503   0.00000  Uiso   1.00
O923   O     0.10504   0.75247   0.74498   0.00000  Uiso   1.00
O924   O     0.08851   0.82597   0.80855   0.00000  Uiso   1.00
O925   O     0.24482   0.84070   0.69146   0.00000  Uiso   1.00
O926   O     0.18866   0.83540   0.81671   0.00000  Uiso   1.00
O927   O     0.14468   0.83126   0.68329   0.00000  Uiso   1.00
O928   O     0.15064   0.77418   0.60218   0.00000  Uiso   1.00
C929   C     0.51398   0.93316   0.75272   0.00000  Uiso   1.00
C930   C     0.53922   0.83865   0.66671   0.00000  Uiso   1.00
C931   C     0.43579   0.81959   0.88134   0.00000  Uiso   1.00
C932   C     0.56421   0.84705   0.61866   0.00000  Uiso   1.00
C933   C     0.35871   0.77469   0.94531   0.00000  Uiso   1.00
C934   C     0.64131   0.89193   0.55468   0.00000  Uiso   1.00
C935   C     0.37897   0.78254   0.89922   0.00000  Uiso   1.00
C936   C     0.62101   0.88412   0.60078   0.00000  Uiso   1.00
C937   C     0.47322   0.84541   0.90953   0.00000  Uiso   1.00
C938   C     0.52684   0.82117   0.59047   0.00000  Uiso   1.00
C939   C     0.46249   0.82586   0.95218   0.00000  Uiso   1.00
C940   C     0.48602   0.73351   0.74729   0.00000  Uiso   1.00
C941   C     0.53757   0.84069   0.54781   0.00000  Uiso   1.00
C942   C     0.40110   0.79571   0.97176   0.00000  Uiso   1.00
C943   C     0.59896   0.87086   0.52823   0.00000  Uiso   1.00
C944   C     0.50936   0.83813   0.97693   0.00000  Uiso   1.00
C945   C     0.49072   0.82840   0.52305   0.00000  Uiso   1.00
C946   C     0.42526   0.80919   0.54318   0.00000  Uiso   1.00
C947   C     0.57482   0.85733   0.95680   0.00000  Uiso   1.00
C948   C     0.38254   0.78947   0.51778   0.00000  Uiso   1.00
C949   C     0.61753   0.87706   0.98220   0.00000  Uiso   1.00
C950   C     0.51804   0.98862   0.75890   0.00000  Uiso   1.00
C951   C     0.48195   0.67804   0.74111   0.00000  Uiso   1.00
C952   C     0.46079   0.82802   0.83329   0.00000  Uiso   1.00
Cu953  Cu    0.44071   0.82775   0.74517   0.00000  Uiso   1.00
Cu954  Cu    0.55929   0.83892   0.75484   0.00000  Uiso   1.00
F955   F     0.65498   0.76730   0.53914   0.00000  Uiso   1.00
F956   F     0.34509   0.89922   0.96085   0.00000  Uiso   1.00
F957   F     0.40066   0.81251   0.58751   0.00000  Uiso   1.00
F958   F     0.59943   0.85397   0.91247   0.00000  Uiso   1.00
H959   H     0.33455   0.87159   0.78446   0.00000  Uiso   1.00
H960   H     0.42577   0.67348   0.70178   0.00000  Uiso   1.00
H961   H     0.66545   0.79508   0.71554   0.00000  Uiso   1.00
H962   H     0.49399   0.75821   0.62642   0.00000  Uiso   1.00
H963   H     0.50593   0.90845   0.87373   0.00000  Uiso   1.00
H964   H     0.62838   0.92223   0.65499   0.00000  Uiso   1.00
H965   H     0.37152   0.74448   0.84501   0.00000  Uiso   1.00
H966   H     0.60650   0.73651   0.94342   0.00000  Uiso   1.00
H967   H     0.39347   0.93023   0.55662   0.00000  Uiso   1.00
H968   H     0.57438   0.99322   0.79815   0.00000  Uiso   1.00
N969   N     0.64839   0.84735   0.76212   0.00000  Uiso   1.00
N970   N     0.35161   0.81932   0.73788   0.00000  Uiso   1.00
O971   O     0.46148   0.90476   0.74686   0.00000  Uiso   1.00
O972   O     0.51616   0.89236   0.89780   0.00000  Uiso   1.00
O973   O     0.65736   0.91335   0.62700   0.00000  Uiso   1.00
O974   O     0.34257   0.75337   0.87301   0.00000  Uiso   1.00
O975   O     0.63323   0.74373   0.96470   0.00000  Uiso   1.00
O976   O     0.36679   0.92289   0.53529   0.00000  Uiso   1.00
O977   O     0.55591   0.68381   0.78483   0.00000  Uiso   1.00
O978   O     0.44409   0.98286   0.71517   0.00000  Uiso   1.00
O979   O     0.53852   0.76191   0.75314   0.00000  Uiso   1.00
O980   O     0.56163   0.91420   0.75503   0.00000  Uiso   1.00
O981   O     0.43837   0.75247   0.74498   0.00000  Uiso   1.00
O982   O     0.42185   0.82597   0.80855   0.00000  Uiso   1.00
O983   O     0.57815   0.84070   0.69146   0.00000  Uiso   1.00
O984   O     0.52199   0.83540   0.81671   0.00000  Uiso   1.00
O985   O     0.47801   0.83126   0.68329   0.00000  Uiso   1.00
O986   O     0.48398   0.77418   0.60218   0.00000  Uiso   1.00
C987   C     0.84731   0.93316   0.75272   0.00000  Uiso   1.00
C988   C     0.87255   0.83865   0.66671   0.00000  Uiso   1.00
C989   C     0.76912   0.81959   0.88134   0.00000  Uiso   1.00
C990   C     0.89755   0.84705   0.61866   0.00000  Uiso   1.00
C991   C     0.69205   0.77469   0.94531   0.00000  Uiso   1.00
C992   C     0.97464   0.89193   0.55468   0.00000  Uiso   1.00
C993   C     0.71230   0.78254   0.89922   0.00000  Uiso   1.00
C994   C     0.95434   0.88412   0.60078   0.00000  Uiso   1.00
C995   C     0.80655   0.84541   0.90953   0.00000  Uiso   1.00
C996   C     0.86017   0.82117   0.59047   0.00000  Uiso   1.00
C997   C     0.79582   0.82586   0.95218   0.00000  Uiso   1.00
C998   C     0.81935   0.73351   0.74729   0.00000  Uiso   1.00
C999   C     0.87091   0.84069   0.54781   0.00000  Uiso   1.00
C1000  C     0.73443   0.79571   0.97176   0.00000  Uiso   1.00
C1001  C     0.93229   0.87086   0.52823   0.00000  Uiso   1.00
C1002  C     0.84269   0.83813   0.97693   0.00000  Uiso   1.00
C1003  C     0.82405   0.82840   0.52305   0.00000  Uiso   1.00
C1004  C     0.75859   0.80919   0.54318   0.00000  Uiso   1.00
C1005  C     0.90815   0.85733   0.95680   0.00000  Uiso   1.00
C1006  C     0.71587   0.78947   0.51778   0.00000  Uiso   1.00
C1007  C     0.95087   0.87706   0.98220   0.00000  Uiso   1.00
C1008  C     0.85137   0.98862   0.75890   0.00000  Uiso   1.00
C1009  C     0.81529   0.67804   0.74111   0.00000  Uiso   1.00
C1010  C     0.79412   0.82802   0.83329   0.00000  Uiso   1.00
Cu1011 Cu    0.77404   0.82775   0.74517   0.00000  Uiso   1.00
Cu1012 Cu    0.89263   0.83892   0.75484   0.00000  Uiso   1.00
F1013  F     0.98832   0.76730   0.53914   0.00000  Uiso   1.00
F1014  F     0.67843   0.89922   0.96085   0.00000  Uiso   1.00
F1015  F     0.73399   0.81251   0.58751   0.00000  Uiso   1.00
F1016  F     0.93276   0.85397   0.91247   0.00000  Uiso   1.00
H1017  H     0.66788   0.87159   0.78446   0.00000  Uiso   1.00
H1018  H     0.75910   0.67348   0.70178   0.00000  Uiso   1.00
H1019  H     0.99878   0.79508   0.71554   0.00000  Uiso   1.00
H1020  H     0.82732   0.75821   0.62642   0.00000  Uiso   1.00
H1021  H     0.83926   0.90845   0.87373   0.00000  Uiso   1.00
H1022  H     0.96172   0.92223   0.65499   0.00000  Uiso   1.00
H1023  H     0.70485   0.74448   0.84501   0.00000  Uiso   1.00
H1024  H     0.93983   0.73651   0.94342   0.00000  Uiso   1.00
H1025  H     0.72680   0.93023   0.55662   0.00000  Uiso   1.00
H1026  H     0.90771   0.99322   0.79815   0.00000  Uiso   1.00
N1027  N     0.98173   0.84735   0.76212   0.00000  Uiso   1.00
N1028  N     0.68494   0.81932   0.73788   0.00000  Uiso   1.00
O1029  O     0.79482   0.90476   0.74686   0.00000  Uiso   1.00
O1030  O     0.84949   0.89236   0.89780   0.00000  Uiso   1.00
O1031  O     0.99070   0.91335   0.62700   0.00000  Uiso   1.00
O1032  O     0.67590   0.75337   0.87301   0.00000  Uiso   1.00
O1033  O     0.96657   0.74373   0.96470   0.00000  Uiso   1.00
O1034  O     0.70012   0.92289   0.53529   0.00000  Uiso   1.00
O1035  O     0.88924   0.68381   0.78483   0.00000  Uiso   1.00
O1036  O     0.77742   0.98286   0.71517   0.00000  Uiso   1.00
O1037  O     0.87185   0.76191   0.75314   0.00000  Uiso   1.00
O1038  O     0.89496   0.91420   0.75503   0.00000  Uiso   1.00
O1039  O     0.77171   0.75247   0.74498   0.00000  Uiso   1.00
O1040  O     0.75518   0.82597   0.80855   0.00000  Uiso   1.00
O1041  O     0.91149   0.84070   0.69146   0.00000  Uiso   1.00
O1042  O     0.85532   0.83540   0.81671   0.00000  Uiso   1.00
O1043  O     0.81134   0.83126   0.68329   0.00000  Uiso   1.00
O1044  O     0.81731   0.77418   0.60218   0.00000  Uiso   1.00
loop_
_geom_bond_atom_site_label_1
_geom_bond_atom_site_label_2
_geom_bond_distance
_geom_bond_site_symmetry_2
_ccdc_geom_bond_type
C1     O52     1.289   .     A
C1     C22     1.440   .     S
C1     O43     1.288   .     A
C2     C4      1.477   .     S
C2     O57     1.298   .     A
C2     O55     1.300   .     A
C3     C9      1.411   .     A
C3     C7      1.418   .     A
C3     C24     1.477   .     S
C4     C8      1.418   .     A
C4     C10     1.410   .     A
C5     C14     1.415   .     A
C5     C7      1.412   .     A
C5     O163    1.384   1_455 S
C6     C15     1.415   .     A
C6     C8      1.412   .     A
C6     O106    1.384   .     S
C7     O46     1.381   .     S
C8     O45     1.381   .     S
C9     C11     1.410   .     A
C9     O44     1.385   .     S
C10    O58     1.384   .     S
C10    C13     1.409   .     A
C11    C16     1.429   .     A
C11    C14     1.418   .     A
C12    O53     1.288   .     A
C12    C23     1.440   .     S
C12    O51     1.288   .     A
C13    C17     1.429   .     A
C13    C15     1.418   .     A
C14    C542    1.404   .     S
C15    C543    1.404   1_554 S
C16    C19     1.416   .     A
C16    C539    1.421   .     S
C17    C18     1.416   .     A
C17    C538    1.421   1_554 S
C18    F29     1.358   .     S
C18    C20     1.390   .     A
C19    C21     1.390   .     A
C19    F30     1.358   .     S
C20    C536    1.404   1_554 S
C20    F143    1.358   1_455 S
C21    C537    1.404   .     S
C21    F86     1.358   .     S
C22    C197    1.347   .     S
C22    O223    1.389   .     S
C23    C370    1.347   1_545 S
C23    O398    1.389   1_545 S
C24    O56     1.298   .     A
C24    O54     1.300   .     A
Cu25   N42     2.018   .     S
Cu25   O43     1.969   .     S
Cu25   O53     1.963   .     S
Cu25   O57     1.899   .     S
Cu25   O54     1.923   .     S
Cu25   Cu26    2.686   .     S
Cu26   O52     1.963   .     S
Cu26   O55     1.923   .     S
Cu26   O51     1.969   .     S
Cu26   N41     2.018   .     S
Cu26   O56     1.899   .     S
F27    C78     1.358   .     S
F28    C137    1.358   1_455 S
H31    N157    1.029   1_455 S
H32    O398    0.991   1_545 S
H33    N100    1.029   .     S
H34    O58     0.991   .     S
H35    O44     0.991   .     S
H36    O45     0.990   .     S
H37    O46     0.990   .     S
H38    O47     0.990   .     S
H39    O48     0.990   .     S
H40    O223    0.991   .     S
N41    H89     1.029   .     S
N41    N100    1.281   .     S
N42    H149    1.029   1_455 S
N42    N157    1.281   1_455 S
O47    C63     1.384   .     S
O48    C122    1.384   1_455 S
O49    C370    1.389   1_545 S
O49    H388    0.991   1_545 S
O50    C197    1.389   .     S
O50    H206    0.991   .     S
C59    O110    1.289   .     A
C59    C80     1.440   .     S
C59    O101    1.288   .     A
C60    C62     1.477   .     S
C60    O115    1.298   .     A
C60    O113    1.300   .     A
C61    C67     1.411   .     A
C61    C65     1.418   .     A
C61    C82     1.477   .     S
C62    C66     1.418   .     A
C62    C68     1.410   .     A
C63    C72     1.415   .     A
C63    C65     1.412   .     A
C64    C73     1.415   .     A
C64    C66     1.412   .     A
C64    O164    1.384   .     S
C65    O104    1.381   .     S
C66    O103    1.381   .     S
C67    C69     1.410   .     A
C67    O102    1.385   .     S
C68    O116    1.384   .     S
C68    C71     1.409   .     A
C69    C74     1.429   .     A
C69    C72     1.418   .     A
C70    O111    1.288   .     A
C70    C81     1.440   .     S
C70    O109    1.288   .     A
C71    C75     1.429   .     A
C71    C73     1.418   .     A
C72    C600    1.404   .     S
C73    C601    1.404   1_554 S
C74    C77     1.416   .     A
C74    C597    1.421   .     S
C75    C76     1.416   .     A
C75    C596    1.421   1_554 S
C76    F87     1.358   .     S
C76    C78     1.390   .     A
C77    C79     1.390   .     A
C77    F88     1.358   .     S
C78    C594    1.404   1_554 S
C79    C595    1.404   .     S
C79    F144    1.358   .     S
C80    C255    1.347   .     S
C80    O281    1.389   .     S
C81    C428    1.347   1_545 S
C81    O456    1.389   1_545 S
C82    O114    1.298   .     A
C82    O112    1.300   .     A
Cu83   N100    2.018   .     S
Cu83   O101    1.969   .     S
Cu83   O111    1.963   .     S
Cu83   O115    1.899   .     S
Cu83   O112    1.923   .     S
Cu83   Cu84    2.686   .     S
Cu84   O110    1.963   .     S
Cu84   O113    1.923   .     S
Cu84   O109    1.969   .     S
Cu84   N99     2.018   .     S
Cu84   O114    1.899   .     S
F85    C136    1.358   .     S
H90    O456    0.991   1_545 S
H91    N158    1.029   .     S
H92    O116    0.991   .     S
H93    O102    0.991   .     S
H94    O103    0.990   .     S
H95    O104    0.990   .     S
H96    O105    0.990   .     S
H97    O106    0.990   .     S
H98    O281    0.991   .     S
N99    H147    1.029   .     S
N99    N158    1.281   .     S
O105   C121    1.384   .     S
O107   C428    1.389   1_545 S
O107   H446    0.991   1_545 S
O108   C255    1.389   .     S
O108   H264    0.991   .     S
C117   O168    1.289   .     A
C117   C138    1.440   .     S
C117   O159    1.288   .     A
C118   C120    1.477   .     S
C118   O173    1.298   .     A
C118   O171    1.300   .     A
C119   C125    1.411   .     A
C119   C123    1.418   .     A
C119   C140    1.477   .     S
C120   C124    1.418   .     A
C120   C126    1.410   .     A
C121   C130    1.415   .     A
C121   C123    1.412   .     A
C122   C131    1.415   .     A
C122   C124    1.412   .     A
C122   O48     1.384   1_655 S
C123   O162    1.381   .     S
C124   O161    1.381   .     S
C125   C127    1.410   .     A
C125   O160    1.385   .     S
C126   O174    1.384   .     S
C126   C129    1.409   .     A
C127   C132    1.429   .     A
C127   C130    1.418   .     A
C128   O169    1.288   .     A
C128   C139    1.440   .     S
C128   O167    1.288   .     A
C129   C133    1.429   .     A
C129   C131    1.418   .     A
C130   C658    1.404   .     S
C131   C659    1.404   1_554 S
C132   C135    1.416   .     A
C132   C655    1.421   .     S
C133   C134    1.416   .     A
C133   C654    1.421   1_554 S
C134   F145    1.358   .     S
C134   C136    1.390   .     A
C135   C137    1.390   .     A
C135   F146    1.358   .     S
C136   C652    1.404   1_554 S
C137   C653    1.404   .     S
C137   F28     1.358   1_655 S
C138   C313    1.347   .     S
C138   O339    1.389   .     S
C139   C486    1.347   1_545 S
C139   O514    1.389   1_545 S
C140   O172    1.298   .     A
C140   O170    1.300   .     A
Cu141  N158    2.018   .     S
Cu141  O159    1.969   .     S
Cu141  O169    1.963   .     S
Cu141  O173    1.899   .     S
Cu141  O170    1.923   .     S
Cu141  Cu142   2.686   .     S
Cu142  O168    1.963   .     S
Cu142  O171    1.923   .     S
Cu142  O167    1.969   .     S
Cu142  N157    2.018   .     S
Cu142  O172    1.899   .     S
F143   C20     1.358   1_655 S
H148   O514    0.991   1_545 S
H149   N42     1.029   1_655 S
H150   O174    0.991   .     S
H151   O160    0.991   .     S
H152   O161    0.990   .     S
H153   O162    0.990   .     S
H154   O163    0.990   .     S
H155   O164    0.990   .     S
H156   O339    0.991   .     S
N157   H31     1.029   1_655 S
N157   N42     1.281   1_655 S
O163   C5      1.384   1_655 S
O165   C486    1.389   1_545 S
O165   H504    0.991   1_545 S
O166   C313    1.389   .     S
O166   H322    0.991   .     S
C175   O226    1.289   .     A
C175   C196    1.440   .     S
C175   O217    1.288   .     A
C176   C178    1.477   .     S
C176   O231    1.298   .     A
C176   O229    1.300   .     A
C177   C183    1.411   .     A
C177   C181    1.418   .     A
C177   C198    1.477   .     S
C178   C182    1.418   .     A
C178   C184    1.410   .     A
C179   C188    1.415   .     A
C179   C181    1.412   .     A
C179   O337    1.384   1_455 S
C180   C189    1.415   .     A
C180   C182    1.412   .     A
C180   O280    1.384   .     S
C181   O220    1.381   .     S
C182   O219    1.381   .     S
C183   C185    1.410   .     A
C183   O218    1.385   .     S
C184   O232    1.384   .     S
C184   C187    1.409   .     A
C185   C190    1.429   .     A
C185   C188    1.418   .     A
C186   O227    1.288   .     A
C186   C197    1.440   .     S
C186   O225    1.288   .     A
C187   C191    1.429   .     A
C187   C189    1.418   .     A
C188   C716    1.404   .     S
C189   C717    1.404   1_554 S
C190   C193    1.416   .     A
C190   C713    1.421   .     S
C191   C192    1.416   .     A
C191   C712    1.421   1_554 S
C192   F203    1.358   .     S
C192   C194    1.390   .     A
C193   C195    1.390   .     A
C193   F204    1.358   .     S
C194   C710    1.404   1_554 S
C194   F317    1.358   1_455 S
C195   C711    1.404   .     S
C195   F260    1.358   .     S
C196   C371    1.347   .     S
C196   O397    1.389   .     S
C198   O230    1.298   .     A
C198   O228    1.300   .     A
Cu199  N216    2.018   .     S
Cu199  O217    1.969   .     S
Cu199  O227    1.963   .     S
Cu199  O231    1.899   .     S
Cu199  O228    1.923   .     S
Cu199  Cu200   2.686   .     S
Cu200  O226    1.963   .     S
Cu200  O229    1.923   .     S
Cu200  O225    1.969   .     S
Cu200  N215    2.018   .     S
Cu200  O230    1.899   .     S
F201   C252    1.358   .     S
F202   C311    1.358   1_455 S
H205   N331    1.029   1_455 S
H207   N274    1.029   .     S
H208   O232    0.991   .     S
H209   O218    0.991   .     S
H210   O219    0.990   .     S
H211   O220    0.990   .     S
H212   O221    0.990   .     S
H213   O222    0.990   .     S
H214   O397    0.991   .     S
N215   H263    1.029   .     S
N215   N274    1.281   .     S
N216   H323    1.029   1_455 S
N216   N331    1.281   1_455 S
O221   C237    1.384   .     S
O222   C296    1.384   1_455 S
O224   C371    1.389   .     S
O224   H380    0.991   .     S
C233   O284    1.289   .     A
C233   C254    1.440   .     S
C233   O275    1.288   .     A
C234   C236    1.477   .     S
C234   O289    1.298   .     A
C234   O287    1.300   .     A
C235   C241    1.411   .     A
C235   C239    1.418   .     A
C235   C256    1.477   .     S
C236   C240    1.418   .     A
C236   C242    1.410   .     A
C237   C246    1.415   .     A
C237   C239    1.412   .     A
C238   C247    1.415   .     A
C238   C240    1.412   .     A
C238   O338    1.384   .     S
C239   O278    1.381   .     S
C240   O277    1.381   .     S
C241   C243    1.410   .     A
C241   O276    1.385   .     S
C242   O290    1.384   .     S
C242   C245    1.409   .     A
C243   C248    1.429   .     A
C243   C246    1.418   .     A
C244   O285    1.288   .     A
C244   C255    1.440   .     S
C244   O283    1.288   .     A
C245   C249    1.429   .     A
C245   C247    1.418   .     A
C246   C774    1.404   .     S
C247   C775    1.404   1_554 S
C248   C251    1.416   .     A
C248   C771    1.421   .     S
C249   C250    1.416   .     A
C249   C770    1.421   1_554 S
C250   F261    1.358   .     S
C250   C252    1.390   .     A
C251   C253    1.390   .     A
C251   F262    1.358   .     S
C252   C768    1.404   1_554 S
C253   C769    1.404   .     S
C253   F318    1.358   .     S
C254   C429    1.347   .     S
C254   O455    1.389   .     S
C256   O288    1.298   .     A
C256   O286    1.300   .     A
Cu257  N274    2.018   .     S
Cu257  O275    1.969   .     S
Cu257  O285    1.963   .     S
Cu257  O289    1.899   .     S
Cu257  O286    1.923   .     S
Cu257  Cu258   2.686   .     S
Cu258  O284    1.963   .     S
Cu258  O287    1.923   .     S
Cu258  O283    1.969   .     S
Cu258  N273    2.018   .     S
Cu258  O288    1.899   .     S
F259   C310    1.358   .     S
H265   N332    1.029   .     S
H266   O290    0.991   .     S
H267   O276    0.991   .     S
H268   O277    0.990   .     S
H269   O278    0.990   .     S
H270   O279    0.990   .     S
H271   O280    0.990   .     S
H272   O455    0.991   .     S
N273   H321    1.029   .     S
N273   N332    1.281   .     S
O279   C295    1.384   .     S
O282   C429    1.389   .     S
O282   H438    0.991   .     S
C291   O342    1.289   .     A
C291   C312    1.440   .     S
C291   O333    1.288   .     A
C292   C294    1.477   .     S
C292   O347    1.298   .     A
C292   O345    1.300   .     A
C293   C299    1.411   .     A
C293   C297    1.418   .     A
C293   C314    1.477   .     S
C294   C298    1.418   .     A
C294   C300    1.410   .     A
C295   C304    1.415   .     A
C295   C297    1.412   .     A
C296   C305    1.415   .     A
C296   C298    1.412   .     A
C296   O222    1.384   1_655 S
C297   O336    1.381   .     S
C298   O335    1.381   .     S
C299   C301    1.410   .     A
C299   O334    1.385   .     S
C300   O348    1.384   .     S
C300   C303    1.409   .     A
C301   C306    1.429   .     A
C301   C304    1.418   .     A
C302   O343    1.288   .     A
C302   C313    1.440   .     S
C302   O341    1.288   .     A
C303   C307    1.429   .     A
C303   C305    1.418   .     A
C304   C832    1.404   .     S
C305   C833    1.404   1_554 S
C306   C309    1.416   .     A
C306   C829    1.421   .     S
C307   C308    1.416   .     A
C307   C828    1.421   1_554 S
C308   F319    1.358   .     S
C308   C310    1.390   .     A
C309   C311    1.390   .     A
C309   F320    1.358   .     S
C310   C826    1.404   1_554 S
C311   C827    1.404   .     S
C311   F202    1.358   1_655 S
C312   C487    1.347   .     S
C312   O513    1.389   .     S
C314   O346    1.298   .     A
C314   O344    1.300   .     A
Cu315  N332    2.018   .     S
Cu315  O333    1.969   .     S
Cu315  O343    1.963   .     S
Cu315  O347    1.899   .     S
Cu315  O344    1.923   .     S
Cu315  Cu316   2.686   .     S
Cu316  O342    1.963   .     S
Cu316  O345    1.923   .     S
Cu316  O341    1.969   .     S
Cu316  N331    2.018   .     S
Cu316  O346    1.899   .     S
F317   C194    1.358   1_655 S
H323   N216    1.029   1_655 S
H324   O348    0.991   .     S
H325   O334    0.991   .     S
H326   O335    0.990   .     S
H327   O336    0.990   .     S
H328   O337    0.990   .     S
H329   O338    0.990   .     S
H330   O513    0.991   .     S
N331   H205    1.029   1_655 S
N331   N216    1.281   1_655 S
O337   C179    1.384   1_655 S
O340   C487    1.389   .     S
O340   H496    0.991   .     S
C349   O400    1.289   .     A
C349   C370    1.440   .     S
C349   O391    1.288   .     A
C350   C352    1.477   .     S
C350   O405    1.298   .     A
C350   O403    1.300   .     A
C351   C357    1.411   .     A
C351   C355    1.418   .     A
C351   C372    1.477   .     S
C352   C356    1.418   .     A
C352   C358    1.410   .     A
C353   C362    1.415   .     A
C353   C355    1.412   .     A
C353   O511    1.384   1_455 S
C354   C363    1.415   .     A
C354   C356    1.412   .     A
C354   O454    1.384   .     S
C355   O394    1.381   .     S
C356   O393    1.381   .     S
C357   C359    1.410   .     A
C357   O392    1.385   .     S
C358   O406    1.384   .     S
C358   C361    1.409   .     A
C359   C364    1.429   .     A
C359   C362    1.418   .     A
C360   O401    1.288   .     A
C360   C371    1.440   .     S
C360   O399    1.288   .     A
C361   C365    1.429   .     A
C361   C363    1.418   .     A
C362   C890    1.404   .     S
C363   C891    1.404   1_554 S
C364   C367    1.416   .     A
C364   C887    1.421   .     S
C365   C366    1.416   .     A
C365   C886    1.421   1_554 S
C366   F377    1.358   .     S
C366   C368    1.390   .     A
C367   C369    1.390   .     A
C367   F378    1.358   .     S
C368   C884    1.404   1_554 S
C368   F491    1.358   1_455 S
C369   C885    1.404   .     S
C369   F434    1.358   .     S
C370   C23     1.347   1_565 S
C370   O49     1.389   1_565 S
C372   O404    1.298   .     A
C372   O402    1.300   .     A
Cu373  N390    2.018   .     S
Cu373  O391    1.969   .     S
Cu373  O401    1.963   .     S
Cu373  O405    1.899   .     S
Cu373  O402    1.923   .     S
Cu373  Cu374   2.686   .     S
Cu374  O400    1.963   .     S
Cu374  O403    1.923   .     S
Cu374  O399    1.969   .     S
Cu374  N389    2.018   .     S
Cu374  O404    1.899   .     S
F375   C426    1.358   .     S
F376   C485    1.358   1_455 S
H379   N505    1.029   1_455 S
H381   N448    1.029   .     S
H382   O406    0.991   .     S
H383   O392    0.991   .     S
H384   O393    0.990   .     S
H385   O394    0.990   .     S
H386   O395    0.990   .     S
H387   O396    0.990   .     S
H388   O49     0.991   1_565 S
N389   H437    1.029   .     S
N389   N448    1.281   .     S
N390   H497    1.029   1_455 S
N390   N505    1.281   1_455 S
O395   C411    1.384   .     S
O396   C470    1.384   1_455 S
O398   C23     1.389   1_565 S
O398   H32     0.991   1_565 S
C407   O458    1.289   .     A
C407   C428    1.440   .     S
C407   O449    1.288   .     A
C408   C410    1.477   .     S
C408   O463    1.298   .     A
C408   O461    1.300   .     A
C409   C415    1.411   .     A
C409   C413    1.418   .     A
C409   C430    1.477   .     S
C410   C414    1.418   .     A
C410   C416    1.410   .     A
C411   C420    1.415   .     A
C411   C413    1.412   .     A
C412   C421    1.415   .     A
C412   C414    1.412   .     A
C412   O512    1.384   .     S
C413   O452    1.381   .     S
C414   O451    1.381   .     S
C415   C417    1.410   .     A
C415   O450    1.385   .     S
C416   O464    1.384   .     S
C416   C419    1.409   .     A
C417   C422    1.429   .     A
C417   C420    1.418   .     A
C418   O459    1.288   .     A
C418   C429    1.440   .     S
C418   O457    1.288   .     A
C419   C423    1.429   .     A
C419   C421    1.418   .     A
C420   C948    1.404   .     S
C421   C949    1.404   1_554 S
C422   C425    1.416   .     A
C422   C945    1.421   .     S
C423   C424    1.416   .     A
C423   C944    1.421   1_554 S
C424   F435    1.358   .     S
C424   C426    1.390   .     A
C425   C427    1.390   .     A
C425   F436    1.358   .     S
C426   C942    1.404   1_554 S
C427   C943    1.404   .     S
C427   F492    1.358   .     S
C428   C81     1.347   1_565 S
C428   O107    1.389   1_565 S
C430   O462    1.298   .     A
C430   O460    1.300   .     A
Cu431  N448    2.018   .     S
Cu431  O449    1.969   .     S
Cu431  O459    1.963   .     S
Cu431  O463    1.899   .     S
Cu431  O460    1.923   .     S
Cu431  Cu432   2.686   .     S
Cu432  O458    1.963   .     S
Cu432  O461    1.923   .     S
Cu432  O457    1.969   .     S
Cu432  N447    2.018   .     S
Cu432  O462    1.899   .     S
F433   C484    1.358   .     S
H439   N506    1.029   .     S
H440   O464    0.991   .     S
H441   O450    0.991   .     S
H442   O451    0.990   .     S
H443   O452    0.990   .     S
H444   O453    0.990   .     S
H445   O454    0.990   .     S
H446   O107    0.991   1_565 S
N447   H495    1.029   .     S
N447   N506    1.281   .     S
O453   C469    1.384   .     S
O456   C81     1.389   1_565 S
O456   H90     0.991   1_565 S
C465   O516    1.289   .     A
C465   C486    1.440   .     S
C465   O507    1.288   .     A
C466   C468    1.477   .     S
C466   O521    1.298   .     A
C466   O519    1.300   .     A
C467   C473    1.411   .     A
C467   C471    1.418   .     A
C467   C488    1.477   .     S
C468   C472    1.418   .     A
C468   C474    1.410   .     A
C469   C478    1.415   .     A
C469   C471    1.412   .     A
C470   C479    1.415   .     A
C470   C472    1.412   .     A
C470   O396    1.384   1_655 S
C471   O510    1.381   .     S
C472   O509    1.381   .     S
C473   C475    1.410   .     A
C473   O508    1.385   .     S
C474   O522    1.384   .     S
C474   C477    1.409   .     A
C475   C480    1.429   .     A
C475   C478    1.418   .     A
C476   O517    1.288   .     A
C476   C487    1.440   .     S
C476   O515    1.288   .     A
C477   C481    1.429   .     A
C477   C479    1.418   .     A
C478   C1006   1.404   .     S
C479   C1007   1.404   1_554 S
C480   C483    1.416   .     A
C480   C1003   1.421   .     S
C481   C482    1.416   .     A
C481   C1002   1.421   1_554 S
C482   F493    1.358   .     S
C482   C484    1.390   .     A
C483   C485    1.390   .     A
C483   F494    1.358   .     S
C484   C1000   1.404   1_554 S
C485   C1001   1.404   .     S
C485   F376    1.358   1_655 S
C486   C139    1.347   1_565 S
C486   O165    1.389   1_565 S
C488   O520    1.298   .     A
C488   O518    1.300   .     A
Cu489  N506    2.018   .     S
Cu489  O507    1.969   .     S
Cu489  O517    1.963   .     S
Cu489  O521    1.899   .     S
Cu489  O518    1.923   .     S
Cu489  Cu490   2.686   .     S
Cu490  O516    1.963   .     S
Cu490  O519    1.923   .     S
Cu490  O515    1.969   .     S
Cu490  N505    2.018   .     S
Cu490  O520    1.899   .     S
F491   C368    1.358   1_655 S
H497   N390    1.029   1_655 S
H498   O522    0.991   .     S
H499   O508    0.991   .     S
H500   O509    0.990   .     S
H501   O510    0.990   .     S
H502   O511    0.990   .     S
H503   O512    0.990   .     S
H504   O165    0.991   1_565 S
N505   H379    1.029   1_655 S
N505   N390    1.281   1_655 S
O511   C353    1.384   1_655 S
O514   C139    1.389   1_565 S
O514   H148    0.991   1_565 S
C523   O574    1.289   .     A
C523   C544    1.440   .     S
C523   O565    1.288   .     A
C524   C526    1.477   .     S
C524   O579    1.298   .     A
C524   O577    1.300   .     A
C525   C531    1.411   .     A
C525   C529    1.418   .     A
C525   C546    1.477   .     S
C526   C530    1.418   .     A
C526   C532    1.410   .     A
C527   C536    1.415   .     A
C527   C529    1.412   .     A
C527   O685    1.384   1_455 S
C528   C537    1.415   .     A
C528   C530    1.412   .     A
C528   O628    1.384   .     S
C529   O568    1.381   .     S
C530   O567    1.381   .     S
C531   C533    1.410   .     A
C531   O566    1.385   .     S
C532   O580    1.384   .     S
C532   C535    1.409   .     A
C533   C538    1.429   .     A
C533   C536    1.418   .     A
C534   O575    1.288   .     A
C534   C545    1.440   .     S
C534   O573    1.288   .     A
C535   C539    1.429   .     A
C535   C537    1.418   .     A
C536   C20     1.404   1_556 S
C538   C541    1.416   .     A
C538   C17     1.421   1_556 S
C539   C540    1.416   .     A
C540   F551    1.358   .     S
C540   C542    1.390   .     A
C541   C543    1.390   .     A
C541   F552    1.358   .     S
C542   F665    1.358   1_455 S
C543   C15     1.404   1_556 S
C543   F608    1.358   .     S
C544   C719    1.347   .     S
C544   O745    1.389   .     S
C545   C892    1.347   1_545 S
C545   O920    1.389   1_545 S
C546   O578    1.298   .     A
C546   O576    1.300   .     A
Cu547  N564    2.018   .     S
Cu547  O565    1.969   .     S
Cu547  O575    1.963   .     S
Cu547  O579    1.899   .     S
Cu547  O576    1.923   .     S
Cu547  Cu548   2.686   .     S
Cu548  O574    1.963   .     S
Cu548  O577    1.923   .     S
Cu548  O573    1.969   .     S
Cu548  N563    2.018   .     S
Cu548  O578    1.899   .     S
F549   C600    1.358   .     S
F550   C659    1.358   1_455 S
H553   N679    1.029   1_455 S
H554   O920    0.991   1_545 S
H555   N622    1.029   .     S
H556   O580    0.991   .     S
H557   O566    0.991   .     S
H558   O567    0.990   .     S
H559   O568    0.990   .     S
H560   O569    0.990   .     S
H561   O570    0.990   .     S
H562   O745    0.991   .     S
N563   H611    1.029   .     S
N563   N622    1.281   .     S
N564   H671    1.029   1_455 S
N564   N679    1.281   1_455 S
O569   C585    1.384   .     S
O570   C644    1.384   1_455 S
O571   C892    1.389   1_545 S
O571   H910    0.991   1_545 S
O572   C719    1.389   .     S
O572   H728    0.991   .     S
C581   O632    1.289   .     A
C581   C602    1.440   .     S
C581   O623    1.288   .     A
C582   C584    1.477   .     S
C582   O637    1.298   .     A
C582   O635    1.300   .     A
C583   C589    1.411   .     A
C583   C587    1.418   .     A
C583   C604    1.477   .     S
C584   C588    1.418   .     A
C584   C590    1.410   .     A
C585   C594    1.415   .     A
C585   C587    1.412   .     A
C586   C595    1.415   .     A
C586   C588    1.412   .     A
C586   O686    1.384   .     S
C587   O626    1.381   .     S
C588   O625    1.381   .     S
C589   C591    1.410   .     A
C589   O624    1.385   .     S
C590   O638    1.384   .     S
C590   C593    1.409   .     A
C591   C596    1.429   .     A
C591   C594    1.418   .     A
C592   O633    1.288   .     A
C592   C603    1.440   .     S
C592   O631    1.288   .     A
C593   C597    1.429   .     A
C593   C595    1.418   .     A
C594   C78     1.404   1_556 S
C596   C599    1.416   .     A
C596   C75     1.421   1_556 S
C597   C598    1.416   .     A
C598   F609    1.358   .     S
C598   C600    1.390   .     A
C599   C601    1.390   .     A
C599   F610    1.358   .     S
C601   C73     1.404   1_556 S
C601   F666    1.358   .     S
C602   C777    1.347   .     S
C602   O803    1.389   .     S
C603   C950    1.347   1_545 S
C603   O978    1.389   1_545 S
C604   O636    1.298   .     A
C604   O634    1.300   .     A
Cu605  N622    2.018   .     S
Cu605  O623    1.969   .     S
Cu605  O633    1.963   .     S
Cu605  O637    1.899   .     S
Cu605  O634    1.923   .     S
Cu605  Cu606   2.686   .     S
Cu606  O632    1.963   .     S
Cu606  O635    1.923   .     S
Cu606  O631    1.969   .     S
Cu606  N621    2.018   .     S
Cu606  O636    1.899   .     S
F607   C658    1.358   .     S
H612   O978    0.991   1_545 S
H613   N680    1.029   .     S
H614   O638    0.991   .     S
H615   O624    0.991   .     S
H616   O625    0.990   .     S
H617   O626    0.990   .     S
H618   O627    0.990   .     S
H619   O628    0.990   .     S
H620   O803    0.991   .     S
N621   H669    1.029   .     S
N621   N680    1.281   .     S
O627   C643    1.384   .     S
O629   C950    1.389   1_545 S
O629   H968    0.991   1_545 S
O630   C777    1.389   .     S
O630   H786    0.991   .     S
C639   O690    1.289   .     A
C639   C660    1.440   .     S
C639   O681    1.288   .     A
C640   C642    1.477   .     S
C640   O695    1.298   .     A
C640   O693    1.300   .     A
C641   C647    1.411   .     A
C641   C645    1.418   .     A
C641   C662    1.477   .     S
C642   C646    1.418   .     A
C642   C648    1.410   .     A
C643   C652    1.415   .     A
C643   C645    1.412   .     A
C644   C653    1.415   .     A
C644   C646    1.412   .     A
C644   O570    1.384   1_655 S
C645   O684    1.381   .     S
C646   O683    1.381   .     S
C647   C649    1.410   .     A
C647   O682    1.385   .     S
C648   O696    1.384   .     S
C648   C651    1.409   .     A
C649   C654    1.429   .     A
C649   C652    1.418   .     A
C650   O691    1.288   .     A
C650   C661    1.440   .     S
C650   O689    1.288   .     A
C651   C655    1.429   .     A
C651   C653    1.418   .     A
C652   C136    1.404   1_556 S
C654   C657    1.416   .     A
C654   C133    1.421   1_556 S
C655   C656    1.416   .     A
C656   F667    1.358   .     S
C656   C658    1.390   .     A
C657   C659    1.390   .     A
C657   F668    1.358   .     S
C659   C131    1.404   1_556 S
C659   F550    1.358   1_655 S
C660   C835    1.347   .     S
C660   O861    1.389   .     S
C661   C1008   1.347   1_545 S
C661   O1036   1.389   1_545 S
C662   O694    1.298   .     A
C662   O692    1.300   .     A
Cu663  N680    2.018   .     S
Cu663  O681    1.969   .     S
Cu663  O691    1.963   .     S
Cu663  O695    1.899   .     S
Cu663  O692    1.923   .     S
Cu663  Cu664   2.686   .     S
Cu664  O690    1.963   .     S
Cu664  O693    1.923   .     S
Cu664  O689    1.969   .     S
Cu664  N679    2.018   .     S
Cu664  O694    1.899   .     S
F665   C542    1.358   1_655 S
H670   O1036   0.991   1_545 S
H671   N564    1.029   1_655 S
H672   O696    0.991   .     S
H673   O682    0.991   .     S
H674   O683    0.990   .     S
H675   O684    0.990   .     S
H676   O685    0.990   .     S
H677   O686    0.990   .     S
H678   O861    0.991   .     S
N679   H553    1.029   1_655 S
N679   N564    1.281   1_655 S
O685   C527    1.384   1_655 S
O687   C1008   1.389   1_545 S
O687   H1026   0.991   1_545 S
O688   C835    1.389   .     S
O688   H844    0.991   .     S
C697   O748    1.289   .     A
C697   C718    1.440   .     S
C697   O739    1.288   .     A
C698   C700    1.477   .     S
C698   O753    1.298   .     A
C698   O751    1.300   .     A
C699   C705    1.411   .     A
C699   C703    1.418   .     A
C699   C720    1.477   .     S
C700   C704    1.418   .     A
C700   C706    1.410   .     A
C701   C710    1.415   .     A
C701   C703    1.412   .     A
C701   O859    1.384   1_455 S
C702   C711    1.415   .     A
C702   C704    1.412   .     A
C702   O802    1.384   .     S
C703   O742    1.381   .     S
C704   O741    1.381   .     S
C705   C707    1.410   .     A
C705   O740    1.385   .     S
C706   O754    1.384   .     S
C706   C709    1.409   .     A
C707   C712    1.429   .     A
C707   C710    1.418   .     A
C708   O749    1.288   .     A
C708   C719    1.440   .     S
C708   O747    1.288   .     A
C709   C713    1.429   .     A
C709   C711    1.418   .     A
C710   C194    1.404   1_556 S
C712   C715    1.416   .     A
C712   C191    1.421   1_556 S
C713   C714    1.416   .     A
C714   F725    1.358   .     S
C714   C716    1.390   .     A
C715   C717    1.390   .     A
C715   F726    1.358   .     S
C716   F839    1.358   1_455 S
C717   C189    1.404   1_556 S
C717   F782    1.358   .     S
C718   C893    1.347   .     S
C718   O919    1.389   .     S
C720   O752    1.298   .     A
C720   O750    1.300   .     A
Cu721  N738    2.018   .     S
Cu721  O739    1.969   .     S
Cu721  O749    1.963   .     S
Cu721  O753    1.899   .     S
Cu721  O750    1.923   .     S
Cu721  Cu722   2.686   .     S
Cu722  O748    1.963   .     S
Cu722  O751    1.923   .     S
Cu722  O747    1.969   .     S
Cu722  N737    2.018   .     S
Cu722  O752    1.899   .     S
F723   C774    1.358   .     S
F724   C833    1.358   1_455 S
H727   N853    1.029   1_455 S
H729   N796    1.029   .     S
H730   O754    0.991   .     S
H731   O740    0.991   .     S
H732   O741    0.990   .     S
H733   O742    0.990   .     S
H734   O743    0.990   .     S
H735   O744    0.990   .     S
H736   O919    0.991   .     S
N737   H785    1.029   .     S
N737   N796    1.281   .     S
N738   H845    1.029   1_455 S
N738   N853    1.281   1_455 S
O743   C759    1.384   .     S
O744   C818    1.384   1_455 S
O746   C893    1.389   .     S
O746   H902    0.991   .     S
C755   O806    1.289   .     A
C755   C776    1.440   .     S
C755   O797    1.288   .     A
C756   C758    1.477   .     S
C756   O811    1.298   .     A
C756   O809    1.300   .     A
C757   C763    1.411   .     A
C757   C761    1.418   .     A
C757   C778    1.477   .     S
C758   C762    1.418   .     A
C758   C764    1.410   .     A
C759   C768    1.415   .     A
C759   C761    1.412   .     A
C760   C769    1.415   .     A
C760   C762    1.412   .     A
C760   O860    1.384   .     S
C761   O800    1.381   .     S
C762   O799    1.381   .     S
C763   C765    1.410   .     A
C763   O798    1.385   .     S
C764   O812    1.384   .     S
C764   C767    1.409   .     A
C765   C770    1.429   .     A
C765   C768    1.418   .     A
C766   O807    1.288   .     A
C766   C777    1.440   .     S
C766   O805    1.288   .     A
C767   C771    1.429   .     A
C767   C769    1.418   .     A
C768   C252    1.404   1_556 S
C770   C773    1.416   .     A
C770   C249    1.421   1_556 S
C771   C772    1.416   .     A
C772   F783    1.358   .     S
C772   C774    1.390   .     A
C773   C775    1.390   .     A
C773   F784    1.358   .     S
C775   C247    1.404   1_556 S
C775   F840    1.358   .     S
C776   C951    1.347   .     S
C776   O977    1.389   .     S
C778   O810    1.298   .     A
C778   O808    1.300   .     A
Cu779  N796    2.018   .     S
Cu779  O797    1.969   .     S
Cu779  O807    1.963   .     S
Cu779  O811    1.899   .     S
Cu779  O808    1.923   .     S
Cu779  Cu780   2.686   .     S
Cu780  O806    1.963   .     S
Cu780  O809    1.923   .     S
Cu780  O805    1.969   .     S
Cu780  N795    2.018   .     S
Cu780  O810    1.899   .     S
F781   C832    1.358   .     S
H787   N854    1.029   .     S
H788   O812    0.991   .     S
H789   O798    0.991   .     S
H790   O799    0.990   .     S
H791   O800    0.990   .     S
H792   O801    0.990   .     S
H793   O802    0.990   .     S
H794   O977    0.991   .     S
N795   H843    1.029   .     S
N795   N854    1.281   .     S
O801   C817    1.384   .     S
O804   C951    1.389   .     S
O804   H960    0.991   .     S
C813   O864    1.289   .     A
C813   C834    1.440   .     S
C813   O855    1.288   .     A
C814   C816    1.477   .     S
C814   O869    1.298   .     A
C814   O867    1.300   .     A
C815   C821    1.411   .     A
C815   C819    1.418   .     A
C815   C836    1.477   .     S
C816   C820    1.418   .     A
C816   C822    1.410   .     A
C817   C826    1.415   .     A
C817   C819    1.412   .     A
C818   C827    1.415   .     A
C818   C820    1.412   .     A
C818   O744    1.384   1_655 S
C819   O858    1.381   .     S
C820   O857    1.381   .     S
C821   C823    1.410   .     A
C821   O856    1.385   .     S
C822   O870    1.384   .     S
C822   C825    1.409   .     A
C823   C828    1.429   .     A
C823   C826    1.418   .     A
C824   O865    1.288   .     A
C824   C835    1.440   .     S
C824   O863    1.288   .     A
C825   C829    1.429   .     A
C825   C827    1.418   .     A
C826   C310    1.404   1_556 S
C828   C831    1.416   .     A
C828   C307    1.421   1_556 S
C829   C830    1.416   .     A
C830   F841    1.358   .     S
C830   C832    1.390   .     A
C831   C833    1.390   .     A
C831   F842    1.358   .     S
C833   C305    1.404   1_556 S
C833   F724    1.358   1_655 S
C834   C1009   1.347   .     S
C834   O1035   1.389   .     S
C836   O868    1.298   .     A
C836   O866    1.300   .     A
Cu837  N854    2.018   .     S
Cu837  O855    1.969   .     S
Cu837  O865    1.963   .     S
Cu837  O869    1.899   .     S
Cu837  O866    1.923   .     S
Cu837  Cu838   2.686   .     S
Cu838  O864    1.963   .     S
Cu838  O867    1.923   .     S
Cu838  O863    1.969   .     S
Cu838  N853    2.018   .     S
Cu838  O868    1.899   .     S
F839   C716    1.358   1_655 S
H845   N738    1.029   1_655 S
H846   O870    0.991   .     S
H847   O856    0.991   .     S
H848   O857    0.990   .     S
H849   O858    0.990   .     S
H850   O859    0.990   .     S
H851   O860    0.990   .     S
H852   O1035   0.991   .     S
N853   H727    1.029   1_655 S
N853   N738    1.281   1_655 S
O859   C701    1.384   1_655 S
O862   C1009   1.389   .     S
O862   H1018   0.991   .     S
C871   O922    1.289   .     A
C871   C892    1.440   .     S
C871   O913    1.288   .     A
C872   C874    1.477   .     S
C872   O927    1.298   .     A
C872   O925    1.300   .     A
C873   C879    1.411   .     A
C873   C877    1.418   .     A
C873   C894    1.477   .     S
C874   C878    1.418   .     A
C874   C880    1.410   .     A
C875   C884    1.415   .     A
C875   C877    1.412   .     A
C875   O1033   1.384   1_455 S
C876   C885    1.415   .     A
C876   C878    1.412   .     A
C876   O976    1.384   .     S
C877   O916    1.381   .     S
C878   O915    1.381   .     S
C879   C881    1.410   .     A
C879   O914    1.385   .     S
C880   O928    1.384   .     S
C880   C883    1.409   .     A
C881   C886    1.429   .     A
C881   C884    1.418   .     A
C882   O923    1.288   .     A
C882   C893    1.440   .     S
C882   O921    1.288   .     A
C883   C887    1.429   .     A
C883   C885    1.418   .     A
C884   C368    1.404   1_556 S
C886   C889    1.416   .     A
C886   C365    1.421   1_556 S
C887   C888    1.416   .     A
C888   F899    1.358   .     S
C888   C890    1.390   .     A
C889   C891    1.390   .     A
C889   F900    1.358   .     S
C890   F1013   1.358   1_455 S
C891   C363    1.404   1_556 S
C891   F956    1.358   .     S
C892   C545    1.347   1_565 S
C892   O571    1.389   1_565 S
C894   O926    1.298   .     A
C894   O924    1.300   .     A
Cu895  N912    2.018   .     S
Cu895  O913    1.969   .     S
Cu895  O923    1.963   .     S
Cu895  O927    1.899   .     S
Cu895  O924    1.923   .     S
Cu895  Cu896   2.686   .     S
Cu896  O922    1.963   .     S
Cu896  O925    1.923   .     S
Cu896  O921    1.969   .     S
Cu896  N911    2.018   .     S
Cu896  O926    1.899   .     S
F897   C948    1.358   .     S
F898   C1007   1.358   1_455 S
H901   N1027   1.029   1_455 S
H903   N970    1.029   .     S
H904   O928    0.991   .     S
H905   O914    0.991   .     S
H906   O915    0.990   .     S
H907   O916    0.990   .     S
H908   O917    0.990   .     S
H909   O918    0.990   .     S
H910   O571    0.991   1_565 S
N911   H959    1.029   .     S
N911   N970    1.281   .     S
N912   H1019   1.029   1_455 S
N912   N1027   1.281   1_455 S
O917   C933    1.384   .     S
O918   C992    1.384   1_455 S
O920   C545    1.389   1_565 S
O920   H554    0.991   1_565 S
C929   O980    1.289   .     A
C929   C950    1.440   .     S
C929   O971    1.288   .     A
C930   C932    1.477   .     S
C930   O985    1.298   .     A
C930   O983    1.300   .     A
C931   C937    1.411   .     A
C931   C935    1.418   .     A
C931   C952    1.477   .     S
C932   C936    1.418   .     A
C932   C938    1.410   .     A
C933   C942    1.415   .     A
C933   C935    1.412   .     A
C934   C943    1.415   .     A
C934   C936    1.412   .     A
C934   O1034   1.384   .     S
C935   O974    1.381   .     S
C936   O973    1.381   .     S
C937   C939    1.410   .     A
C937   O972    1.385   .     S
C938   O986    1.384   .     S
C938   C941    1.409   .     A
C939   C944    1.429   .     A
C939   C942    1.418   .     A
C940   O981    1.288   .     A
C940   C951    1.440   .     S
C940   O979    1.288   .     A
C941   C945    1.429   .     A
C941   C943    1.418   .     A
C942   C426    1.404   1_556 S
C944   C947    1.416   .     A
C944   C423    1.421   1_556 S
C945   C946    1.416   .     A
C946   F957    1.358   .     S
C946   C948    1.390   .     A
C947   C949    1.390   .     A
C947   F958    1.358   .     S
C949   C421    1.404   1_556 S
C949   F1014   1.358   .     S
C950   C603    1.347   1_565 S
C950   O629    1.389   1_565 S
C952   O984    1.298   .     A
C952   O982    1.300   .     A
Cu953  N970    2.018   .     S
Cu953  O971    1.969   .     S
Cu953  O981    1.963   .     S
Cu953  O985    1.899   .     S
Cu953  O982    1.923   .     S
Cu953  Cu954   2.686   .     S
Cu954  O980    1.963   .     S
Cu954  O983    1.923   .     S
Cu954  O979    1.969   .     S
Cu954  N969    2.018   .     S
Cu954  O984    1.899   .     S
F955   C1006   1.358   .     S
H961   N1028   1.029   .     S
H962   O986    0.991   .     S
H963   O972    0.991   .     S
H964   O973    0.990   .     S
H965   O974    0.990   .     S
H966   O975    0.990   .     S
H967   O976    0.990   .     S
H968   O629    0.991   1_565 S
N969   H1017   1.029   .     S
N969   N1028   1.281   .     S
O975   C991    1.384   .     S
O978   C603    1.389   1_565 S
O978   H612    0.991   1_565 S
C987   O1038   1.289   .     A
C987   C1008   1.440   .     S
C987   O1029   1.288   .     A
C988   C990    1.477   .     S
C988   O1043   1.298   .     A
C988   O1041   1.300   .     A
C989   C995    1.411   .     A
C989   C993    1.418   .     A
C989   C1010   1.477   .     S
C990   C994    1.418   .     A
C990   C996    1.410   .     A
C991   C1000   1.415   .     A
C991   C993    1.412   .     A
C992   C1001   1.415   .     A
C992   C994    1.412   .     A
C992   O918    1.384   1_655 S
C993   O1032   1.381   .     S
C994   O1031   1.381   .     S
C995   C997    1.410   .     A
C995   O1030   1.385   .     S
C996   O1044   1.384   .     S
C996   C999    1.409   .     A
C997   C1002   1.429   .     A
C997   C1000   1.418   .     A
C998   O1039   1.288   .     A
C998   C1009   1.440   .     S
C998   O1037   1.288   .     A
C999   C1003   1.429   .     A
C999   C1001   1.418   .     A
C1000  C484    1.404   1_556 S
C1002  C1005   1.416   .     A
C1002  C481    1.421   1_556 S
C1003  C1004   1.416   .     A
C1004  F1015   1.358   .     S
C1004  C1006   1.390   .     A
C1005  C1007   1.390   .     A
C1005  F1016   1.358   .     S
C1007  C479    1.404   1_556 S
C1007  F898    1.358   1_655 S
C1008  C661    1.347   1_565 S
C1008  O687    1.389   1_565 S
C1010  O1042   1.298   .     A
C1010  O1040   1.300   .     A
Cu1011 N1028   2.018   .     S
Cu1011 O1029   1.969   .     S
Cu1011 O1039   1.963   .     S
Cu1011 O1043   1.899   .     S
Cu1011 O1040   1.923   .     S
Cu1011 Cu1012  2.686   .     S
Cu1012 O1038   1.963   .     S
Cu1012 O1041   1.923   .     S
Cu1012 O1037   1.969   .     S
Cu1012 N1027   2.018   .     S
Cu1012 O1042   1.899   .     S
F1013  C890    1.358   1_655 S
H1019  N912    1.029   1_655 S
H1020  O1044   0.991   .     S
H1021  O1030   0.991   .     S
H1022  O1031   0.990   .     S
H1023  O1032   0.990   .     S
H1024  O1033   0.990   .     S
H1025  O1034   0.990   .     S
H1026  O687    0.991   1_565 S
N1027  H901    1.029   1_655 S
N1027  N912    1.281   1_655 S
O1033  C875    1.384   1_655 S
O1036  C661    1.389   1_565 S
O1036  H670    0.991   1_565 S
