data_str_m2_o10_o16_pcu_sym.168
_audit_creation_date              2020-01-03
_audit_creation_method            'Materials Studio'
_symmetry_space_group_name_H-M    'P1'
_symmetry_Int_Tables_number       1
_symmetry_cell_setting            triclinic
loop_
_symmetry_equiv_pos_as_xyz
  x,y,z
_cell_length_a                    22.3360
_cell_length_b                    26.0807
_cell_length_c                    26.6206
_cell_angle_alpha                 93.9763
_cell_angle_beta                  77.3860
_cell_angle_gamma                 103.1543
loop_
_atom_site_label
_atom_site_type_symbol
_atom_site_fract_x
_atom_site_fract_y
_atom_site_fract_z
_atom_site_U_iso_or_equiv
_atom_site_adp_type
_atom_site_occupancy
C1     C     0.18176   0.26672   0.25152   0.00000  Uiso   1.00
C2     C     0.13576   0.17354   0.49017   0.00000  Uiso   1.00
C3     C     0.15211   0.18733   0.43742   0.00000  Uiso   1.00
C4     C     0.18388   0.18703   0.01935   0.00000  Uiso   1.00
C5     C     0.23992   0.22451   0.00037   0.00000  Uiso   1.00
C6     C     0.25023   0.24450   0.45132   0.00000  Uiso   1.00
C7     C     0.20769   0.22541   0.41985   0.00000  Uiso   1.00
C8     C     0.17939   0.16274   0.06580   0.00000  Uiso   1.00
C9     C     0.27391   0.22286   0.08060   0.00000  Uiso   1.00
C10    C     0.11173   0.16364   0.40390   0.00000  Uiso   1.00
C11    C     0.19025   0.32268   0.25226   0.00000  Uiso   1.00
C12    C     0.13304   0.16528   0.34740   0.00000  Uiso   1.00
C13    C     0.14308   0.01064   0.24775   0.00000  Uiso   1.00
C14    C     0.15157   0.06662   0.24849   0.00000  Uiso   1.00
C15    C     0.20059   0.17101   0.15287   0.00000  Uiso   1.00
C16    C     0.28471   0.24192   0.03104   0.00000  Uiso   1.00
C17    C     0.22105   0.18310   0.09812   0.00000  Uiso   1.00
C18    C     0.05196   0.13365   0.42444   0.00000  Uiso   1.00
C19    C     0.03187   0.12711   0.47719   0.00000  Uiso   1.00
C20    C     0.07208   0.14764   0.01077   0.00000  Uiso   1.00
Cu21   Cu    0.10710   0.16105   0.24435   0.00000  Uiso   1.00
Cu22   Cu    0.22623   0.17228   0.25564   0.00000  Uiso   1.00
H23    H     0.30562   0.24026   0.10569   0.00000  Uiso   1.00
H24    H     0.09762   0.32017   0.24349   0.00000  Uiso   1.00
H25    H     0.00354   0.20599   0.28980   0.00000  Uiso   1.00
H26    H     0.32981   0.12738   0.21017   0.00000  Uiso   1.00
H27    H     0.29221   0.27394   0.43665   0.00000  Uiso   1.00
H28    H     0.32672   0.27173   0.01747   0.00000  Uiso   1.00
H29    H     0.14218   0.12896   0.07855   0.00000  Uiso   1.00
H30    H     0.02019   0.11550   0.39960   0.00000  Uiso   1.00
H31    H     0.31714   0.10669   0.49201   0.00000  Uiso   1.00
H32    H     0.21799   0.24234   0.38218   0.00000  Uiso   1.00
H33    H     0.23572   0.01315   0.25653   0.00000  Uiso   1.00
N34    N     0.31574   0.18074   0.26416   0.00000  Uiso   1.00
N35    N     0.01759   0.15259   0.23584   0.00000  Uiso   1.00
O36    O     0.12797   0.23807   0.24633   0.00000  Uiso   1.00
O37    O     0.22858   0.24755   0.25586   0.00000  Uiso   1.00
O38    O     0.09181   0.15960   0.31839   0.00000  Uiso   1.00
O39    O     0.19242   0.16908   0.32793   0.00000  Uiso   1.00
O40    O     0.10476   0.08578   0.24413   0.00000  Uiso   1.00
O41    O     0.20536   0.09526   0.25367   0.00000  Uiso   1.00
O42    O     0.14092   0.16425   0.17207   0.00000  Uiso   1.00
O43    O     0.24152   0.17373   0.18160   0.00000  Uiso   1.00
C44    C     0.04177   0.14731   0.06624   0.00000  Uiso   1.00
H45    H     0.00162   0.11609   0.08097   0.00000  Uiso   1.00
O46    O     0.05852   0.18341   0.09532   0.00000  Uiso   1.00
C47    C     0.51510   0.26672   0.25152   0.00000  Uiso   1.00
C48    C     0.46910   0.17354   0.49017   0.00000  Uiso   1.00
C49    C     0.48544   0.18733   0.43742   0.00000  Uiso   1.00
C50    C     0.51722   0.18703   0.01935   0.00000  Uiso   1.00
C51    C     0.57325   0.22451   0.00037   0.00000  Uiso   1.00
C52    C     0.58356   0.24450   0.45132   0.00000  Uiso   1.00
C53    C     0.54103   0.22541   0.41985   0.00000  Uiso   1.00
C54    C     0.51273   0.16274   0.06580   0.00000  Uiso   1.00
C55    C     0.60724   0.22286   0.08060   0.00000  Uiso   1.00
C56    C     0.44506   0.16364   0.40390   0.00000  Uiso   1.00
C57    C     0.52359   0.32268   0.25226   0.00000  Uiso   1.00
C58    C     0.46637   0.16528   0.34740   0.00000  Uiso   1.00
C59    C     0.47641   0.01064   0.24775   0.00000  Uiso   1.00
C60    C     0.48490   0.06662   0.24849   0.00000  Uiso   1.00
C61    C     0.53393   0.17101   0.15287   0.00000  Uiso   1.00
C62    C     0.61804   0.24192   0.03104   0.00000  Uiso   1.00
C63    C     0.55438   0.18310   0.09812   0.00000  Uiso   1.00
C64    C     0.38530   0.13365   0.42444   0.00000  Uiso   1.00
C65    C     0.36520   0.12711   0.47719   0.00000  Uiso   1.00
C66    C     0.40541   0.14764   0.01077   0.00000  Uiso   1.00
Cu67   Cu    0.44043   0.16105   0.24435   0.00000  Uiso   1.00
Cu68   Cu    0.55957   0.17228   0.25564   0.00000  Uiso   1.00
H69    H     0.63895   0.24026   0.10569   0.00000  Uiso   1.00
H70    H     0.43095   0.32017   0.24349   0.00000  Uiso   1.00
H71    H     0.33687   0.20599   0.28980   0.00000  Uiso   1.00
H72    H     0.66314   0.12738   0.21017   0.00000  Uiso   1.00
H73    H     0.62554   0.27394   0.43665   0.00000  Uiso   1.00
H74    H     0.66006   0.27173   0.01747   0.00000  Uiso   1.00
H75    H     0.47551   0.12896   0.07855   0.00000  Uiso   1.00
H76    H     0.35352   0.11550   0.39960   0.00000  Uiso   1.00
H77    H     0.65048   0.10669   0.49201   0.00000  Uiso   1.00
H78    H     0.55133   0.24234   0.38218   0.00000  Uiso   1.00
H79    H     0.56905   0.01315   0.25653   0.00000  Uiso   1.00
N80    N     0.64908   0.18074   0.26416   0.00000  Uiso   1.00
N81    N     0.35092   0.15259   0.23584   0.00000  Uiso   1.00
O82    O     0.46131   0.23807   0.24633   0.00000  Uiso   1.00
O83    O     0.56191   0.24755   0.25586   0.00000  Uiso   1.00
O84    O     0.42515   0.15960   0.31839   0.00000  Uiso   1.00
O85    O     0.52575   0.16908   0.32793   0.00000  Uiso   1.00
O86    O     0.43809   0.08578   0.24413   0.00000  Uiso   1.00
O87    O     0.53869   0.09526   0.25367   0.00000  Uiso   1.00
O88    O     0.47425   0.16425   0.17207   0.00000  Uiso   1.00
O89    O     0.57485   0.17373   0.18160   0.00000  Uiso   1.00
C90    C     0.37511   0.14731   0.06624   0.00000  Uiso   1.00
H91    H     0.33495   0.11609   0.08097   0.00000  Uiso   1.00
O92    O     0.39185   0.18341   0.09532   0.00000  Uiso   1.00
C93    C     0.84843   0.26672   0.25152   0.00000  Uiso   1.00
C94    C     0.80243   0.17354   0.49017   0.00000  Uiso   1.00
C95    C     0.81878   0.18733   0.43742   0.00000  Uiso   1.00
C96    C     0.85055   0.18703   0.01935   0.00000  Uiso   1.00
C97    C     0.90659   0.22451   0.00037   0.00000  Uiso   1.00
C98    C     0.91690   0.24450   0.45132   0.00000  Uiso   1.00
C99    C     0.87436   0.22541   0.41985   0.00000  Uiso   1.00
C100   C     0.84606   0.16274   0.06580   0.00000  Uiso   1.00
C101   C     0.94058   0.22286   0.08060   0.00000  Uiso   1.00
C102   C     0.77839   0.16364   0.40390   0.00000  Uiso   1.00
C103   C     0.85692   0.32268   0.25226   0.00000  Uiso   1.00
C104   C     0.79971   0.16528   0.34740   0.00000  Uiso   1.00
C105   C     0.80974   0.01064   0.24775   0.00000  Uiso   1.00
C106   C     0.81823   0.06662   0.24849   0.00000  Uiso   1.00
C107   C     0.86726   0.17101   0.15287   0.00000  Uiso   1.00
C108   C     0.95137   0.24192   0.03104   0.00000  Uiso   1.00
C109   C     0.88771   0.18310   0.09812   0.00000  Uiso   1.00
C110   C     0.71863   0.13365   0.42444   0.00000  Uiso   1.00
C111   C     0.69853   0.12711   0.47719   0.00000  Uiso   1.00
C112   C     0.73874   0.14764   0.01077   0.00000  Uiso   1.00
Cu113  Cu    0.77377   0.16105   0.24435   0.00000  Uiso   1.00
Cu114  Cu    0.89290   0.17228   0.25564   0.00000  Uiso   1.00
H115   H     0.97228   0.24026   0.10569   0.00000  Uiso   1.00
H116   H     0.76428   0.32017   0.24349   0.00000  Uiso   1.00
H117   H     0.67020   0.20599   0.28980   0.00000  Uiso   1.00
H118   H     0.99647   0.12738   0.21017   0.00000  Uiso   1.00
H119   H     0.95887   0.27394   0.43665   0.00000  Uiso   1.00
H120   H     0.99339   0.27173   0.01747   0.00000  Uiso   1.00
H121   H     0.80884   0.12896   0.07855   0.00000  Uiso   1.00
H122   H     0.68685   0.11550   0.39960   0.00000  Uiso   1.00
H123   H     0.98381   0.10669   0.49201   0.00000  Uiso   1.00
H124   H     0.88466   0.24234   0.38218   0.00000  Uiso   1.00
H125   H     0.90238   0.01315   0.25653   0.00000  Uiso   1.00
N126   N     0.98241   0.18074   0.26416   0.00000  Uiso   1.00
N127   N     0.68426   0.15259   0.23584   0.00000  Uiso   1.00
O128   O     0.79464   0.23807   0.24633   0.00000  Uiso   1.00
O129   O     0.89524   0.24755   0.25586   0.00000  Uiso   1.00
O130   O     0.75848   0.15960   0.31839   0.00000  Uiso   1.00
O131   O     0.85908   0.16908   0.32793   0.00000  Uiso   1.00
O132   O     0.77142   0.08578   0.24413   0.00000  Uiso   1.00
O133   O     0.87203   0.09526   0.25367   0.00000  Uiso   1.00
O134   O     0.80758   0.16425   0.17207   0.00000  Uiso   1.00
O135   O     0.90819   0.17373   0.18160   0.00000  Uiso   1.00
C136   C     0.70844   0.14731   0.06624   0.00000  Uiso   1.00
H137   H     0.66829   0.11609   0.08097   0.00000  Uiso   1.00
O138   O     0.72519   0.18341   0.09532   0.00000  Uiso   1.00
C139   C     0.18176   0.60005   0.25152   0.00000  Uiso   1.00
C140   C     0.13576   0.50687   0.49017   0.00000  Uiso   1.00
C141   C     0.15211   0.52067   0.43742   0.00000  Uiso   1.00
C142   C     0.18388   0.52036   0.01935   0.00000  Uiso   1.00
C143   C     0.23992   0.55785   0.00037   0.00000  Uiso   1.00
C144   C     0.25023   0.57783   0.45132   0.00000  Uiso   1.00
C145   C     0.20769   0.55875   0.41985   0.00000  Uiso   1.00
C146   C     0.17939   0.49607   0.06580   0.00000  Uiso   1.00
C147   C     0.27391   0.55619   0.08060   0.00000  Uiso   1.00
C148   C     0.11173   0.49697   0.40390   0.00000  Uiso   1.00
C149   C     0.19025   0.65602   0.25226   0.00000  Uiso   1.00
C150   C     0.13304   0.49862   0.34740   0.00000  Uiso   1.00
C151   C     0.14308   0.34398   0.24775   0.00000  Uiso   1.00
C152   C     0.15157   0.39995   0.24849   0.00000  Uiso   1.00
C153   C     0.20059   0.50434   0.15287   0.00000  Uiso   1.00
C154   C     0.28471   0.57525   0.03104   0.00000  Uiso   1.00
C155   C     0.22105   0.51643   0.09812   0.00000  Uiso   1.00
C156   C     0.05196   0.46698   0.42444   0.00000  Uiso   1.00
C157   C     0.03187   0.46045   0.47719   0.00000  Uiso   1.00
C158   C     0.07208   0.48097   0.01077   0.00000  Uiso   1.00
Cu159  Cu    0.10710   0.49439   0.24435   0.00000  Uiso   1.00
Cu160  Cu    0.22623   0.50561   0.25564   0.00000  Uiso   1.00
H161   H     0.30562   0.57360   0.10569   0.00000  Uiso   1.00
H162   H     0.09762   0.65351   0.24349   0.00000  Uiso   1.00
H163   H     0.00354   0.53932   0.28980   0.00000  Uiso   1.00
H164   H     0.32981   0.46071   0.21017   0.00000  Uiso   1.00
H165   H     0.29221   0.60727   0.43665   0.00000  Uiso   1.00
H166   H     0.32672   0.60506   0.01747   0.00000  Uiso   1.00
H167   H     0.14218   0.46229   0.07855   0.00000  Uiso   1.00
H168   H     0.02019   0.44883   0.39960   0.00000  Uiso   1.00
H169   H     0.31714   0.44002   0.49201   0.00000  Uiso   1.00
H170   H     0.21799   0.57567   0.38218   0.00000  Uiso   1.00
H171   H     0.23572   0.34649   0.25653   0.00000  Uiso   1.00
N172   N     0.31574   0.51407   0.26416   0.00000  Uiso   1.00
N173   N     0.01759   0.48593   0.23584   0.00000  Uiso   1.00
O174   O     0.12797   0.57141   0.24633   0.00000  Uiso   1.00
O175   O     0.22858   0.58089   0.25586   0.00000  Uiso   1.00
O176   O     0.09181   0.49293   0.31839   0.00000  Uiso   1.00
O177   O     0.19242   0.50241   0.32793   0.00000  Uiso   1.00
O178   O     0.10476   0.41911   0.24413   0.00000  Uiso   1.00
O179   O     0.20536   0.42859   0.25367   0.00000  Uiso   1.00
O180   O     0.14092   0.49759   0.17207   0.00000  Uiso   1.00
O181   O     0.24152   0.50707   0.18160   0.00000  Uiso   1.00
C182   C     0.04177   0.48064   0.06624   0.00000  Uiso   1.00
H183   H     0.00162   0.44943   0.08097   0.00000  Uiso   1.00
O184   O     0.05852   0.51674   0.09532   0.00000  Uiso   1.00
C185   C     0.51510   0.60005   0.25152   0.00000  Uiso   1.00
C186   C     0.46910   0.50687   0.49017   0.00000  Uiso   1.00
C187   C     0.48544   0.52067   0.43742   0.00000  Uiso   1.00
C188   C     0.51722   0.52036   0.01935   0.00000  Uiso   1.00
C189   C     0.57325   0.55785   0.00037   0.00000  Uiso   1.00
C190   C     0.58356   0.57783   0.45132   0.00000  Uiso   1.00
C191   C     0.54103   0.55875   0.41985   0.00000  Uiso   1.00
C192   C     0.51273   0.49607   0.06580   0.00000  Uiso   1.00
C193   C     0.60724   0.55619   0.08060   0.00000  Uiso   1.00
C194   C     0.44506   0.49697   0.40390   0.00000  Uiso   1.00
C195   C     0.52359   0.65602   0.25226   0.00000  Uiso   1.00
C196   C     0.46637   0.49862   0.34740   0.00000  Uiso   1.00
C197   C     0.47641   0.34398   0.24775   0.00000  Uiso   1.00
C198   C     0.48490   0.39995   0.24849   0.00000  Uiso   1.00
C199   C     0.53393   0.50434   0.15287   0.00000  Uiso   1.00
C200   C     0.61804   0.57525   0.03104   0.00000  Uiso   1.00
C201   C     0.55438   0.51643   0.09812   0.00000  Uiso   1.00
C202   C     0.38530   0.46698   0.42444   0.00000  Uiso   1.00
C203   C     0.36520   0.46045   0.47719   0.00000  Uiso   1.00
C204   C     0.40541   0.48097   0.01077   0.00000  Uiso   1.00
Cu205  Cu    0.44043   0.49439   0.24435   0.00000  Uiso   1.00
Cu206  Cu    0.55957   0.50561   0.25564   0.00000  Uiso   1.00
H207   H     0.63895   0.57360   0.10569   0.00000  Uiso   1.00
H208   H     0.43095   0.65351   0.24349   0.00000  Uiso   1.00
H209   H     0.33687   0.53932   0.28980   0.00000  Uiso   1.00
H210   H     0.66314   0.46071   0.21017   0.00000  Uiso   1.00
H211   H     0.62554   0.60727   0.43665   0.00000  Uiso   1.00
H212   H     0.66006   0.60506   0.01747   0.00000  Uiso   1.00
H213   H     0.47551   0.46229   0.07855   0.00000  Uiso   1.00
H214   H     0.35352   0.44883   0.39960   0.00000  Uiso   1.00
H215   H     0.65048   0.44002   0.49201   0.00000  Uiso   1.00
H216   H     0.55133   0.57567   0.38218   0.00000  Uiso   1.00
H217   H     0.56905   0.34649   0.25653   0.00000  Uiso   1.00
N218   N     0.64908   0.51407   0.26416   0.00000  Uiso   1.00
N219   N     0.35092   0.48593   0.23584   0.00000  Uiso   1.00
O220   O     0.46131   0.57141   0.24633   0.00000  Uiso   1.00
O221   O     0.56191   0.58089   0.25586   0.00000  Uiso   1.00
O222   O     0.42515   0.49293   0.31839   0.00000  Uiso   1.00
O223   O     0.52575   0.50241   0.32793   0.00000  Uiso   1.00
O224   O     0.43809   0.41911   0.24413   0.00000  Uiso   1.00
O225   O     0.53869   0.42859   0.25367   0.00000  Uiso   1.00
O226   O     0.47425   0.49759   0.17207   0.00000  Uiso   1.00
O227   O     0.57485   0.50707   0.18160   0.00000  Uiso   1.00
C228   C     0.37511   0.48064   0.06624   0.00000  Uiso   1.00
H229   H     0.33495   0.44943   0.08097   0.00000  Uiso   1.00
O230   O     0.39185   0.51674   0.09532   0.00000  Uiso   1.00
C231   C     0.84843   0.60005   0.25152   0.00000  Uiso   1.00
C232   C     0.80243   0.50687   0.49017   0.00000  Uiso   1.00
C233   C     0.81878   0.52067   0.43742   0.00000  Uiso   1.00
C234   C     0.85055   0.52036   0.01935   0.00000  Uiso   1.00
C235   C     0.90659   0.55785   0.00037   0.00000  Uiso   1.00
C236   C     0.91690   0.57783   0.45132   0.00000  Uiso   1.00
C237   C     0.87436   0.55875   0.41985   0.00000  Uiso   1.00
C238   C     0.84606   0.49607   0.06580   0.00000  Uiso   1.00
C239   C     0.94058   0.55619   0.08060   0.00000  Uiso   1.00
C240   C     0.77839   0.49697   0.40390   0.00000  Uiso   1.00
C241   C     0.85692   0.65602   0.25226   0.00000  Uiso   1.00
C242   C     0.79971   0.49862   0.34740   0.00000  Uiso   1.00
C243   C     0.80974   0.34398   0.24775   0.00000  Uiso   1.00
C244   C     0.81823   0.39995   0.24849   0.00000  Uiso   1.00
C245   C     0.86726   0.50434   0.15287   0.00000  Uiso   1.00
C246   C     0.95137   0.57525   0.03104   0.00000  Uiso   1.00
C247   C     0.88771   0.51643   0.09812   0.00000  Uiso   1.00
C248   C     0.71863   0.46698   0.42444   0.00000  Uiso   1.00
C249   C     0.69853   0.46045   0.47719   0.00000  Uiso   1.00
C250   C     0.73874   0.48097   0.01077   0.00000  Uiso   1.00
Cu251  Cu    0.77377   0.49439   0.24435   0.00000  Uiso   1.00
Cu252  Cu    0.89290   0.50561   0.25564   0.00000  Uiso   1.00
H253   H     0.97228   0.57360   0.10569   0.00000  Uiso   1.00
H254   H     0.76428   0.65351   0.24349   0.00000  Uiso   1.00
H255   H     0.67020   0.53932   0.28980   0.00000  Uiso   1.00
H256   H     0.99647   0.46071   0.21017   0.00000  Uiso   1.00
H257   H     0.95887   0.60727   0.43665   0.00000  Uiso   1.00
H258   H     0.99339   0.60506   0.01747   0.00000  Uiso   1.00
H259   H     0.80884   0.46229   0.07855   0.00000  Uiso   1.00
H260   H     0.68685   0.44883   0.39960   0.00000  Uiso   1.00
H261   H     0.98381   0.44002   0.49201   0.00000  Uiso   1.00
H262   H     0.88466   0.57567   0.38218   0.00000  Uiso   1.00
H263   H     0.90238   0.34649   0.25653   0.00000  Uiso   1.00
N264   N     0.98241   0.51407   0.26416   0.00000  Uiso   1.00
N265   N     0.68426   0.48593   0.23584   0.00000  Uiso   1.00
O266   O     0.79464   0.57141   0.24633   0.00000  Uiso   1.00
O267   O     0.89524   0.58089   0.25586   0.00000  Uiso   1.00
O268   O     0.75848   0.49293   0.31839   0.00000  Uiso   1.00
O269   O     0.85908   0.50241   0.32793   0.00000  Uiso   1.00
O270   O     0.77142   0.41911   0.24413   0.00000  Uiso   1.00
O271   O     0.87203   0.42859   0.25367   0.00000  Uiso   1.00
O272   O     0.80758   0.49759   0.17207   0.00000  Uiso   1.00
O273   O     0.90819   0.50707   0.18160   0.00000  Uiso   1.00
C274   C     0.70844   0.48064   0.06624   0.00000  Uiso   1.00
H275   H     0.66829   0.44943   0.08097   0.00000  Uiso   1.00
O276   O     0.72519   0.51674   0.09532   0.00000  Uiso   1.00
C277   C     0.18176   0.93338   0.25152   0.00000  Uiso   1.00
C278   C     0.13576   0.84020   0.49017   0.00000  Uiso   1.00
C279   C     0.15211   0.85400   0.43742   0.00000  Uiso   1.00
C280   C     0.18388   0.85369   0.01935   0.00000  Uiso   1.00
C281   C     0.23992   0.89118   0.00037   0.00000  Uiso   1.00
C282   C     0.25023   0.91117   0.45132   0.00000  Uiso   1.00
C283   C     0.20769   0.89208   0.41985   0.00000  Uiso   1.00
C284   C     0.17939   0.82940   0.06580   0.00000  Uiso   1.00
C285   C     0.27391   0.88952   0.08060   0.00000  Uiso   1.00
C286   C     0.11173   0.83031   0.40390   0.00000  Uiso   1.00
C287   C     0.19025   0.98935   0.25226   0.00000  Uiso   1.00
C288   C     0.13304   0.83195   0.34740   0.00000  Uiso   1.00
C289   C     0.14308   0.67731   0.24775   0.00000  Uiso   1.00
C290   C     0.15157   0.73328   0.24849   0.00000  Uiso   1.00
C291   C     0.20059   0.83767   0.15287   0.00000  Uiso   1.00
C292   C     0.28471   0.90859   0.03104   0.00000  Uiso   1.00
C293   C     0.22105   0.84976   0.09812   0.00000  Uiso   1.00
C294   C     0.05196   0.80032   0.42444   0.00000  Uiso   1.00
C295   C     0.03187   0.79378   0.47719   0.00000  Uiso   1.00
C296   C     0.07208   0.81431   0.01077   0.00000  Uiso   1.00
Cu297  Cu    0.10710   0.82772   0.24435   0.00000  Uiso   1.00
Cu298  Cu    0.22623   0.83895   0.25564   0.00000  Uiso   1.00
H299   H     0.30562   0.90693   0.10569   0.00000  Uiso   1.00
H300   H     0.09762   0.98684   0.24349   0.00000  Uiso   1.00
H301   H     0.00354   0.87265   0.28980   0.00000  Uiso   1.00
H302   H     0.32981   0.79404   0.21017   0.00000  Uiso   1.00
H303   H     0.29221   0.94061   0.43665   0.00000  Uiso   1.00
H304   H     0.32672   0.93840   0.01747   0.00000  Uiso   1.00
H305   H     0.14218   0.79562   0.07855   0.00000  Uiso   1.00
H306   H     0.02019   0.78217   0.39960   0.00000  Uiso   1.00
H307   H     0.31714   0.77335   0.49201   0.00000  Uiso   1.00
H308   H     0.21799   0.90901   0.38218   0.00000  Uiso   1.00
H309   H     0.23572   0.67982   0.25653   0.00000  Uiso   1.00
N310   N     0.31574   0.84741   0.26416   0.00000  Uiso   1.00
N311   N     0.01759   0.81926   0.23584   0.00000  Uiso   1.00
O312   O     0.12797   0.90474   0.24633   0.00000  Uiso   1.00
O313   O     0.22858   0.91422   0.25586   0.00000  Uiso   1.00
O314   O     0.09181   0.82627   0.31839   0.00000  Uiso   1.00
O315   O     0.19242   0.83575   0.32793   0.00000  Uiso   1.00
O316   O     0.10476   0.75245   0.24413   0.00000  Uiso   1.00
O317   O     0.20536   0.76193   0.25367   0.00000  Uiso   1.00
O318   O     0.14092   0.83092   0.17207   0.00000  Uiso   1.00
O319   O     0.24152   0.84040   0.18160   0.00000  Uiso   1.00
C320   C     0.04177   0.81397   0.06624   0.00000  Uiso   1.00
H321   H     0.00162   0.78276   0.08097   0.00000  Uiso   1.00
O322   O     0.05852   0.85008   0.09532   0.00000  Uiso   1.00
C323   C     0.51510   0.93338   0.25152   0.00000  Uiso   1.00
C324   C     0.46910   0.84020   0.49017   0.00000  Uiso   1.00
C325   C     0.48544   0.85400   0.43742   0.00000  Uiso   1.00
C326   C     0.51722   0.85369   0.01935   0.00000  Uiso   1.00
C327   C     0.57325   0.89118   0.00037   0.00000  Uiso   1.00
C328   C     0.58356   0.91117   0.45132   0.00000  Uiso   1.00
C329   C     0.54103   0.89208   0.41985   0.00000  Uiso   1.00
C330   C     0.51273   0.82940   0.06580   0.00000  Uiso   1.00
C331   C     0.60724   0.88952   0.08060   0.00000  Uiso   1.00
C332   C     0.44506   0.83031   0.40390   0.00000  Uiso   1.00
C333   C     0.52359   0.98935   0.25226   0.00000  Uiso   1.00
C334   C     0.46637   0.83195   0.34740   0.00000  Uiso   1.00
C335   C     0.47641   0.67731   0.24775   0.00000  Uiso   1.00
C336   C     0.48490   0.73328   0.24849   0.00000  Uiso   1.00
C337   C     0.53393   0.83767   0.15287   0.00000  Uiso   1.00
C338   C     0.61804   0.90859   0.03104   0.00000  Uiso   1.00
C339   C     0.55438   0.84976   0.09812   0.00000  Uiso   1.00
C340   C     0.38530   0.80032   0.42444   0.00000  Uiso   1.00
C341   C     0.36520   0.79378   0.47719   0.00000  Uiso   1.00
C342   C     0.40541   0.81431   0.01077   0.00000  Uiso   1.00
Cu343  Cu    0.44043   0.82772   0.24435   0.00000  Uiso   1.00
Cu344  Cu    0.55957   0.83895   0.25564   0.00000  Uiso   1.00
H345   H     0.63895   0.90693   0.10569   0.00000  Uiso   1.00
H346   H     0.43095   0.98684   0.24349   0.00000  Uiso   1.00
H347   H     0.33687   0.87265   0.28980   0.00000  Uiso   1.00
H348   H     0.66314   0.79404   0.21017   0.00000  Uiso   1.00
H349   H     0.62554   0.94061   0.43665   0.00000  Uiso   1.00
H350   H     0.66006   0.93840   0.01747   0.00000  Uiso   1.00
H351   H     0.47551   0.79562   0.07855   0.00000  Uiso   1.00
H352   H     0.35352   0.78217   0.39960   0.00000  Uiso   1.00
H353   H     0.65048   0.77335   0.49201   0.00000  Uiso   1.00
H354   H     0.55133   0.90901   0.38218   0.00000  Uiso   1.00
H355   H     0.56905   0.67982   0.25653   0.00000  Uiso   1.00
N356   N     0.64908   0.84741   0.26416   0.00000  Uiso   1.00
N357   N     0.35092   0.81926   0.23584   0.00000  Uiso   1.00
O358   O     0.46131   0.90474   0.24633   0.00000  Uiso   1.00
O359   O     0.56191   0.91422   0.25586   0.00000  Uiso   1.00
O360   O     0.42515   0.82627   0.31839   0.00000  Uiso   1.00
O361   O     0.52575   0.83575   0.32793   0.00000  Uiso   1.00
O362   O     0.43809   0.75245   0.24413   0.00000  Uiso   1.00
O363   O     0.53869   0.76193   0.25367   0.00000  Uiso   1.00
O364   O     0.47425   0.83092   0.17207   0.00000  Uiso   1.00
O365   O     0.57485   0.84040   0.18160   0.00000  Uiso   1.00
C366   C     0.37511   0.81397   0.06624   0.00000  Uiso   1.00
H367   H     0.33495   0.78276   0.08097   0.00000  Uiso   1.00
O368   O     0.39185   0.85008   0.09532   0.00000  Uiso   1.00
C369   C     0.84843   0.93338   0.25152   0.00000  Uiso   1.00
C370   C     0.80243   0.84020   0.49017   0.00000  Uiso   1.00
C371   C     0.81878   0.85400   0.43742   0.00000  Uiso   1.00
C372   C     0.85055   0.85369   0.01935   0.00000  Uiso   1.00
C373   C     0.90659   0.89118   0.00037   0.00000  Uiso   1.00
C374   C     0.91690   0.91117   0.45132   0.00000  Uiso   1.00
C375   C     0.87436   0.89208   0.41985   0.00000  Uiso   1.00
C376   C     0.84606   0.82940   0.06580   0.00000  Uiso   1.00
C377   C     0.94058   0.88952   0.08060   0.00000  Uiso   1.00
C378   C     0.77839   0.83031   0.40390   0.00000  Uiso   1.00
C379   C     0.85692   0.98935   0.25226   0.00000  Uiso   1.00
C380   C     0.79971   0.83195   0.34740   0.00000  Uiso   1.00
C381   C     0.80974   0.67731   0.24775   0.00000  Uiso   1.00
C382   C     0.81823   0.73328   0.24849   0.00000  Uiso   1.00
C383   C     0.86726   0.83767   0.15287   0.00000  Uiso   1.00
C384   C     0.95137   0.90859   0.03104   0.00000  Uiso   1.00
C385   C     0.88771   0.84976   0.09812   0.00000  Uiso   1.00
C386   C     0.71863   0.80032   0.42444   0.00000  Uiso   1.00
C387   C     0.69853   0.79378   0.47719   0.00000  Uiso   1.00
C388   C     0.73874   0.81431   0.01077   0.00000  Uiso   1.00
Cu389  Cu    0.77377   0.82772   0.24435   0.00000  Uiso   1.00
Cu390  Cu    0.89290   0.83895   0.25564   0.00000  Uiso   1.00
H391   H     0.97228   0.90693   0.10569   0.00000  Uiso   1.00
H392   H     0.76428   0.98684   0.24349   0.00000  Uiso   1.00
H393   H     0.67020   0.87265   0.28980   0.00000  Uiso   1.00
H394   H     0.99647   0.79404   0.21017   0.00000  Uiso   1.00
H395   H     0.95887   0.94061   0.43665   0.00000  Uiso   1.00
H396   H     0.99339   0.93840   0.01747   0.00000  Uiso   1.00
H397   H     0.80884   0.79562   0.07855   0.00000  Uiso   1.00
H398   H     0.68685   0.78217   0.39960   0.00000  Uiso   1.00
H399   H     0.98381   0.77335   0.49201   0.00000  Uiso   1.00
H400   H     0.88466   0.90901   0.38218   0.00000  Uiso   1.00
H401   H     0.90238   0.67982   0.25653   0.00000  Uiso   1.00
N402   N     0.98241   0.84741   0.26416   0.00000  Uiso   1.00
N403   N     0.68426   0.81926   0.23584   0.00000  Uiso   1.00
O404   O     0.79464   0.90474   0.24633   0.00000  Uiso   1.00
O405   O     0.89524   0.91422   0.25586   0.00000  Uiso   1.00
O406   O     0.75848   0.82627   0.31839   0.00000  Uiso   1.00
O407   O     0.85908   0.83575   0.32793   0.00000  Uiso   1.00
O408   O     0.77142   0.75245   0.24413   0.00000  Uiso   1.00
O409   O     0.87203   0.76193   0.25367   0.00000  Uiso   1.00
O410   O     0.80758   0.83092   0.17207   0.00000  Uiso   1.00
O411   O     0.90819   0.84040   0.18160   0.00000  Uiso   1.00
C412   C     0.70844   0.81397   0.06624   0.00000  Uiso   1.00
H413   H     0.66829   0.78276   0.08097   0.00000  Uiso   1.00
O414   O     0.72519   0.85008   0.09532   0.00000  Uiso   1.00
C415   C     0.18176   0.26672   0.75152   0.00000  Uiso   1.00
C416   C     0.13576   0.17354   0.99017   0.00000  Uiso   1.00
C417   C     0.15211   0.18733   0.93742   0.00000  Uiso   1.00
C418   C     0.18388   0.18703   0.51935   0.00000  Uiso   1.00
C419   C     0.23992   0.22451   0.50037   0.00000  Uiso   1.00
C420   C     0.25023   0.24450   0.95132   0.00000  Uiso   1.00
C421   C     0.20769   0.22541   0.91985   0.00000  Uiso   1.00
C422   C     0.17939   0.16274   0.56580   0.00000  Uiso   1.00
C423   C     0.27391   0.22286   0.58060   0.00000  Uiso   1.00
C424   C     0.11173   0.16364   0.90390   0.00000  Uiso   1.00
C425   C     0.19025   0.32268   0.75226   0.00000  Uiso   1.00
C426   C     0.13304   0.16528   0.84740   0.00000  Uiso   1.00
C427   C     0.14308   0.01064   0.74775   0.00000  Uiso   1.00
C428   C     0.15157   0.06662   0.74849   0.00000  Uiso   1.00
C429   C     0.20059   0.17101   0.65287   0.00000  Uiso   1.00
C430   C     0.28471   0.24192   0.53104   0.00000  Uiso   1.00
C431   C     0.22105   0.18310   0.59812   0.00000  Uiso   1.00
C432   C     0.05196   0.13365   0.92444   0.00000  Uiso   1.00
C433   C     0.03187   0.12711   0.97719   0.00000  Uiso   1.00
C434   C     0.07208   0.14764   0.51077   0.00000  Uiso   1.00
Cu435  Cu    0.10710   0.16105   0.74435   0.00000  Uiso   1.00
Cu436  Cu    0.22623   0.17228   0.75564   0.00000  Uiso   1.00
H437   H     0.30562   0.24026   0.60569   0.00000  Uiso   1.00
H438   H     0.09762   0.32017   0.74349   0.00000  Uiso   1.00
H439   H     0.00354   0.20599   0.78980   0.00000  Uiso   1.00
H440   H     0.32981   0.12738   0.71017   0.00000  Uiso   1.00
H441   H     0.29221   0.27394   0.93665   0.00000  Uiso   1.00
H442   H     0.32672   0.27173   0.51747   0.00000  Uiso   1.00
H443   H     0.14218   0.12896   0.57855   0.00000  Uiso   1.00
H444   H     0.02019   0.11550   0.89960   0.00000  Uiso   1.00
H445   H     0.31714   0.10669   0.99201   0.00000  Uiso   1.00
H446   H     0.21799   0.24234   0.88218   0.00000  Uiso   1.00
H447   H     0.23572   0.01315   0.75653   0.00000  Uiso   1.00
N448   N     0.31574   0.18074   0.76416   0.00000  Uiso   1.00
N449   N     0.01759   0.15259   0.73584   0.00000  Uiso   1.00
O450   O     0.12797   0.23807   0.74633   0.00000  Uiso   1.00
O451   O     0.22858   0.24755   0.75586   0.00000  Uiso   1.00
O452   O     0.09181   0.15960   0.81839   0.00000  Uiso   1.00
O453   O     0.19242   0.16908   0.82793   0.00000  Uiso   1.00
O454   O     0.10476   0.08578   0.74413   0.00000  Uiso   1.00
O455   O     0.20536   0.09526   0.75367   0.00000  Uiso   1.00
O456   O     0.14092   0.16425   0.67207   0.00000  Uiso   1.00
O457   O     0.24152   0.17373   0.68160   0.00000  Uiso   1.00
C458   C     0.04177   0.14731   0.56624   0.00000  Uiso   1.00
H459   H     0.00162   0.11609   0.58097   0.00000  Uiso   1.00
O460   O     0.05852   0.18341   0.59532   0.00000  Uiso   1.00
C461   C     0.51510   0.26672   0.75152   0.00000  Uiso   1.00
C462   C     0.46910   0.17354   0.99017   0.00000  Uiso   1.00
C463   C     0.48544   0.18733   0.93742   0.00000  Uiso   1.00
C464   C     0.51722   0.18703   0.51935   0.00000  Uiso   1.00
C465   C     0.57325   0.22451   0.50037   0.00000  Uiso   1.00
C466   C     0.58356   0.24450   0.95132   0.00000  Uiso   1.00
C467   C     0.54103   0.22541   0.91985   0.00000  Uiso   1.00
C468   C     0.51273   0.16274   0.56580   0.00000  Uiso   1.00
C469   C     0.60724   0.22286   0.58060   0.00000  Uiso   1.00
C470   C     0.44506   0.16364   0.90390   0.00000  Uiso   1.00
C471   C     0.52359   0.32268   0.75226   0.00000  Uiso   1.00
C472   C     0.46637   0.16528   0.84740   0.00000  Uiso   1.00
C473   C     0.47641   0.01064   0.74775   0.00000  Uiso   1.00
C474   C     0.48490   0.06662   0.74849   0.00000  Uiso   1.00
C475   C     0.53393   0.17101   0.65287   0.00000  Uiso   1.00
C476   C     0.61804   0.24192   0.53104   0.00000  Uiso   1.00
C477   C     0.55438   0.18310   0.59812   0.00000  Uiso   1.00
C478   C     0.38530   0.13365   0.92444   0.00000  Uiso   1.00
C479   C     0.36520   0.12711   0.97719   0.00000  Uiso   1.00
C480   C     0.40541   0.14764   0.51077   0.00000  Uiso   1.00
Cu481  Cu    0.44043   0.16105   0.74435   0.00000  Uiso   1.00
Cu482  Cu    0.55957   0.17228   0.75564   0.00000  Uiso   1.00
H483   H     0.63895   0.24026   0.60569   0.00000  Uiso   1.00
H484   H     0.43095   0.32017   0.74349   0.00000  Uiso   1.00
H485   H     0.33687   0.20599   0.78980   0.00000  Uiso   1.00
H486   H     0.66314   0.12738   0.71017   0.00000  Uiso   1.00
H487   H     0.62554   0.27394   0.93665   0.00000  Uiso   1.00
H488   H     0.66006   0.27173   0.51747   0.00000  Uiso   1.00
H489   H     0.47551   0.12896   0.57855   0.00000  Uiso   1.00
H490   H     0.35352   0.11550   0.89960   0.00000  Uiso   1.00
H491   H     0.65048   0.10669   0.99201   0.00000  Uiso   1.00
H492   H     0.55133   0.24234   0.88218   0.00000  Uiso   1.00
H493   H     0.56905   0.01315   0.75653   0.00000  Uiso   1.00
N494   N     0.64908   0.18074   0.76416   0.00000  Uiso   1.00
N495   N     0.35092   0.15259   0.73584   0.00000  Uiso   1.00
O496   O     0.46131   0.23807   0.74633   0.00000  Uiso   1.00
O497   O     0.56191   0.24755   0.75586   0.00000  Uiso   1.00
O498   O     0.42515   0.15960   0.81839   0.00000  Uiso   1.00
O499   O     0.52575   0.16908   0.82793   0.00000  Uiso   1.00
O500   O     0.43809   0.08578   0.74413   0.00000  Uiso   1.00
O501   O     0.53869   0.09526   0.75367   0.00000  Uiso   1.00
O502   O     0.47425   0.16425   0.67207   0.00000  Uiso   1.00
O503   O     0.57485   0.17373   0.68160   0.00000  Uiso   1.00
C504   C     0.37511   0.14731   0.56624   0.00000  Uiso   1.00
H505   H     0.33495   0.11609   0.58097   0.00000  Uiso   1.00
O506   O     0.39185   0.18341   0.59532   0.00000  Uiso   1.00
C507   C     0.84843   0.26672   0.75152   0.00000  Uiso   1.00
C508   C     0.80243   0.17354   0.99017   0.00000  Uiso   1.00
C509   C     0.81878   0.18733   0.93742   0.00000  Uiso   1.00
C510   C     0.85055   0.18703   0.51935   0.00000  Uiso   1.00
C511   C     0.90659   0.22451   0.50037   0.00000  Uiso   1.00
C512   C     0.91690   0.24450   0.95132   0.00000  Uiso   1.00
C513   C     0.87436   0.22541   0.91985   0.00000  Uiso   1.00
C514   C     0.84606   0.16274   0.56580   0.00000  Uiso   1.00
C515   C     0.94058   0.22286   0.58060   0.00000  Uiso   1.00
C516   C     0.77839   0.16364   0.90390   0.00000  Uiso   1.00
C517   C     0.85692   0.32268   0.75226   0.00000  Uiso   1.00
C518   C     0.79971   0.16528   0.84740   0.00000  Uiso   1.00
C519   C     0.80974   0.01064   0.74775   0.00000  Uiso   1.00
C520   C     0.81823   0.06662   0.74849   0.00000  Uiso   1.00
C521   C     0.86726   0.17101   0.65287   0.00000  Uiso   1.00
C522   C     0.95137   0.24192   0.53104   0.00000  Uiso   1.00
C523   C     0.88771   0.18310   0.59812   0.00000  Uiso   1.00
C524   C     0.71863   0.13365   0.92444   0.00000  Uiso   1.00
C525   C     0.69853   0.12711   0.97719   0.00000  Uiso   1.00
C526   C     0.73874   0.14764   0.51077   0.00000  Uiso   1.00
Cu527  Cu    0.77377   0.16105   0.74435   0.00000  Uiso   1.00
Cu528  Cu    0.89290   0.17228   0.75564   0.00000  Uiso   1.00
H529   H     0.97228   0.24026   0.60569   0.00000  Uiso   1.00
H530   H     0.76428   0.32017   0.74349   0.00000  Uiso   1.00
H531   H     0.67020   0.20599   0.78980   0.00000  Uiso   1.00
H532   H     0.99647   0.12738   0.71017   0.00000  Uiso   1.00
H533   H     0.95887   0.27394   0.93665   0.00000  Uiso   1.00
H534   H     0.99339   0.27173   0.51747   0.00000  Uiso   1.00
H535   H     0.80884   0.12896   0.57855   0.00000  Uiso   1.00
H536   H     0.68685   0.11550   0.89960   0.00000  Uiso   1.00
H537   H     0.98381   0.10669   0.99201   0.00000  Uiso   1.00
H538   H     0.88466   0.24234   0.88218   0.00000  Uiso   1.00
H539   H     0.90238   0.01315   0.75653   0.00000  Uiso   1.00
N540   N     0.98241   0.18074   0.76416   0.00000  Uiso   1.00
N541   N     0.68426   0.15259   0.73584   0.00000  Uiso   1.00
O542   O     0.79464   0.23807   0.74633   0.00000  Uiso   1.00
O543   O     0.89524   0.24755   0.75586   0.00000  Uiso   1.00
O544   O     0.75848   0.15960   0.81839   0.00000  Uiso   1.00
O545   O     0.85908   0.16908   0.82793   0.00000  Uiso   1.00
O546   O     0.77142   0.08578   0.74413   0.00000  Uiso   1.00
O547   O     0.87203   0.09526   0.75367   0.00000  Uiso   1.00
O548   O     0.80758   0.16425   0.67207   0.00000  Uiso   1.00
O549   O     0.90819   0.17373   0.68160   0.00000  Uiso   1.00
C550   C     0.70844   0.14731   0.56624   0.00000  Uiso   1.00
H551   H     0.66829   0.11609   0.58097   0.00000  Uiso   1.00
O552   O     0.72519   0.18341   0.59532   0.00000  Uiso   1.00
C553   C     0.18176   0.60005   0.75152   0.00000  Uiso   1.00
C554   C     0.13576   0.50687   0.99017   0.00000  Uiso   1.00
C555   C     0.15211   0.52067   0.93742   0.00000  Uiso   1.00
C556   C     0.18388   0.52036   0.51935   0.00000  Uiso   1.00
C557   C     0.23992   0.55785   0.50037   0.00000  Uiso   1.00
C558   C     0.25023   0.57783   0.95132   0.00000  Uiso   1.00
C559   C     0.20769   0.55875   0.91985   0.00000  Uiso   1.00
C560   C     0.17939   0.49607   0.56580   0.00000  Uiso   1.00
C561   C     0.27391   0.55619   0.58060   0.00000  Uiso   1.00
C562   C     0.11173   0.49697   0.90390   0.00000  Uiso   1.00
C563   C     0.19025   0.65602   0.75226   0.00000  Uiso   1.00
C564   C     0.13304   0.49862   0.84740   0.00000  Uiso   1.00
C565   C     0.14308   0.34398   0.74775   0.00000  Uiso   1.00
C566   C     0.15157   0.39995   0.74849   0.00000  Uiso   1.00
C567   C     0.20059   0.50434   0.65287   0.00000  Uiso   1.00
C568   C     0.28471   0.57525   0.53104   0.00000  Uiso   1.00
C569   C     0.22105   0.51643   0.59812   0.00000  Uiso   1.00
C570   C     0.05196   0.46698   0.92444   0.00000  Uiso   1.00
C571   C     0.03187   0.46045   0.97719   0.00000  Uiso   1.00
C572   C     0.07208   0.48097   0.51077   0.00000  Uiso   1.00
Cu573  Cu    0.10710   0.49439   0.74435   0.00000  Uiso   1.00
Cu574  Cu    0.22623   0.50561   0.75564   0.00000  Uiso   1.00
H575   H     0.30562   0.57360   0.60569   0.00000  Uiso   1.00
H576   H     0.09762   0.65351   0.74349   0.00000  Uiso   1.00
H577   H     0.00354   0.53932   0.78980   0.00000  Uiso   1.00
H578   H     0.32981   0.46071   0.71017   0.00000  Uiso   1.00
H579   H     0.29221   0.60727   0.93665   0.00000  Uiso   1.00
H580   H     0.32672   0.60506   0.51747   0.00000  Uiso   1.00
H581   H     0.14218   0.46229   0.57855   0.00000  Uiso   1.00
H582   H     0.02019   0.44883   0.89960   0.00000  Uiso   1.00
H583   H     0.31714   0.44002   0.99201   0.00000  Uiso   1.00
H584   H     0.21799   0.57567   0.88218   0.00000  Uiso   1.00
H585   H     0.23572   0.34649   0.75653   0.00000  Uiso   1.00
N586   N     0.31574   0.51407   0.76416   0.00000  Uiso   1.00
N587   N     0.01759   0.48593   0.73584   0.00000  Uiso   1.00
O588   O     0.12797   0.57141   0.74633   0.00000  Uiso   1.00
O589   O     0.22858   0.58089   0.75586   0.00000  Uiso   1.00
O590   O     0.09181   0.49293   0.81839   0.00000  Uiso   1.00
O591   O     0.19242   0.50241   0.82793   0.00000  Uiso   1.00
O592   O     0.10476   0.41911   0.74413   0.00000  Uiso   1.00
O593   O     0.20536   0.42859   0.75367   0.00000  Uiso   1.00
O594   O     0.14092   0.49759   0.67207   0.00000  Uiso   1.00
O595   O     0.24152   0.50707   0.68160   0.00000  Uiso   1.00
C596   C     0.04177   0.48064   0.56624   0.00000  Uiso   1.00
H597   H     0.00162   0.44943   0.58097   0.00000  Uiso   1.00
O598   O     0.05852   0.51674   0.59532   0.00000  Uiso   1.00
C599   C     0.51510   0.60005   0.75152   0.00000  Uiso   1.00
C600   C     0.46910   0.50687   0.99017   0.00000  Uiso   1.00
C601   C     0.48544   0.52067   0.93742   0.00000  Uiso   1.00
C602   C     0.51722   0.52036   0.51935   0.00000  Uiso   1.00
C603   C     0.57325   0.55785   0.50037   0.00000  Uiso   1.00
C604   C     0.58356   0.57783   0.95132   0.00000  Uiso   1.00
C605   C     0.54103   0.55875   0.91985   0.00000  Uiso   1.00
C606   C     0.51273   0.49607   0.56580   0.00000  Uiso   1.00
C607   C     0.60724   0.55619   0.58060   0.00000  Uiso   1.00
C608   C     0.44506   0.49697   0.90390   0.00000  Uiso   1.00
C609   C     0.52359   0.65602   0.75226   0.00000  Uiso   1.00
C610   C     0.46637   0.49862   0.84740   0.00000  Uiso   1.00
C611   C     0.47641   0.34398   0.74775   0.00000  Uiso   1.00
C612   C     0.48490   0.39995   0.74849   0.00000  Uiso   1.00
C613   C     0.53393   0.50434   0.65287   0.00000  Uiso   1.00
C614   C     0.61804   0.57525   0.53104   0.00000  Uiso   1.00
C615   C     0.55438   0.51643   0.59812   0.00000  Uiso   1.00
C616   C     0.38530   0.46698   0.92444   0.00000  Uiso   1.00
C617   C     0.36520   0.46045   0.97719   0.00000  Uiso   1.00
C618   C     0.40541   0.48097   0.51077   0.00000  Uiso   1.00
Cu619  Cu    0.44043   0.49439   0.74435   0.00000  Uiso   1.00
Cu620  Cu    0.55957   0.50561   0.75564   0.00000  Uiso   1.00
H621   H     0.63895   0.57360   0.60569   0.00000  Uiso   1.00
H622   H     0.43095   0.65351   0.74349   0.00000  Uiso   1.00
H623   H     0.33687   0.53932   0.78980   0.00000  Uiso   1.00
H624   H     0.66314   0.46071   0.71017   0.00000  Uiso   1.00
H625   H     0.62554   0.60727   0.93665   0.00000  Uiso   1.00
H626   H     0.66006   0.60506   0.51747   0.00000  Uiso   1.00
H627   H     0.47551   0.46229   0.57855   0.00000  Uiso   1.00
H628   H     0.35352   0.44883   0.89960   0.00000  Uiso   1.00
H629   H     0.65048   0.44002   0.99201   0.00000  Uiso   1.00
H630   H     0.55133   0.57567   0.88218   0.00000  Uiso   1.00
H631   H     0.56905   0.34649   0.75653   0.00000  Uiso   1.00
N632   N     0.64908   0.51407   0.76416   0.00000  Uiso   1.00
N633   N     0.35092   0.48593   0.73584   0.00000  Uiso   1.00
O634   O     0.46131   0.57141   0.74633   0.00000  Uiso   1.00
O635   O     0.56191   0.58089   0.75586   0.00000  Uiso   1.00
O636   O     0.42515   0.49293   0.81839   0.00000  Uiso   1.00
O637   O     0.52575   0.50241   0.82793   0.00000  Uiso   1.00
O638   O     0.43809   0.41911   0.74413   0.00000  Uiso   1.00
O639   O     0.53869   0.42859   0.75367   0.00000  Uiso   1.00
O640   O     0.47425   0.49759   0.67207   0.00000  Uiso   1.00
O641   O     0.57485   0.50707   0.68160   0.00000  Uiso   1.00
C642   C     0.37511   0.48064   0.56624   0.00000  Uiso   1.00
H643   H     0.33495   0.44943   0.58097   0.00000  Uiso   1.00
O644   O     0.39185   0.51674   0.59532   0.00000  Uiso   1.00
C645   C     0.84843   0.60005   0.75152   0.00000  Uiso   1.00
C646   C     0.80243   0.50687   0.99017   0.00000  Uiso   1.00
C647   C     0.81878   0.52067   0.93742   0.00000  Uiso   1.00
C648   C     0.85055   0.52036   0.51935   0.00000  Uiso   1.00
C649   C     0.90659   0.55785   0.50037   0.00000  Uiso   1.00
C650   C     0.91690   0.57783   0.95132   0.00000  Uiso   1.00
C651   C     0.87436   0.55875   0.91985   0.00000  Uiso   1.00
C652   C     0.84606   0.49607   0.56580   0.00000  Uiso   1.00
C653   C     0.94058   0.55619   0.58060   0.00000  Uiso   1.00
C654   C     0.77839   0.49697   0.90390   0.00000  Uiso   1.00
C655   C     0.85692   0.65602   0.75226   0.00000  Uiso   1.00
C656   C     0.79971   0.49862   0.84740   0.00000  Uiso   1.00
C657   C     0.80974   0.34398   0.74775   0.00000  Uiso   1.00
C658   C     0.81823   0.39995   0.74849   0.00000  Uiso   1.00
C659   C     0.86726   0.50434   0.65287   0.00000  Uiso   1.00
C660   C     0.95137   0.57525   0.53104   0.00000  Uiso   1.00
C661   C     0.88771   0.51643   0.59812   0.00000  Uiso   1.00
C662   C     0.71863   0.46698   0.92444   0.00000  Uiso   1.00
C663   C     0.69853   0.46045   0.97719   0.00000  Uiso   1.00
C664   C     0.73874   0.48097   0.51077   0.00000  Uiso   1.00
Cu665  Cu    0.77377   0.49439   0.74435   0.00000  Uiso   1.00
Cu666  Cu    0.89290   0.50561   0.75564   0.00000  Uiso   1.00
H667   H     0.97228   0.57360   0.60569   0.00000  Uiso   1.00
H668   H     0.76428   0.65351   0.74349   0.00000  Uiso   1.00
H669   H     0.67020   0.53932   0.78980   0.00000  Uiso   1.00
H670   H     0.99647   0.46071   0.71017   0.00000  Uiso   1.00
H671   H     0.95887   0.60727   0.93665   0.00000  Uiso   1.00
H672   H     0.99339   0.60506   0.51747   0.00000  Uiso   1.00
H673   H     0.80884   0.46229   0.57855   0.00000  Uiso   1.00
H674   H     0.68685   0.44883   0.89960   0.00000  Uiso   1.00
H675   H     0.98381   0.44002   0.99201   0.00000  Uiso   1.00
H676   H     0.88466   0.57567   0.88218   0.00000  Uiso   1.00
H677   H     0.90238   0.34649   0.75653   0.00000  Uiso   1.00
N678   N     0.98241   0.51407   0.76416   0.00000  Uiso   1.00
N679   N     0.68426   0.48593   0.73584   0.00000  Uiso   1.00
O680   O     0.79464   0.57141   0.74633   0.00000  Uiso   1.00
O681   O     0.89524   0.58089   0.75586   0.00000  Uiso   1.00
O682   O     0.75848   0.49293   0.81839   0.00000  Uiso   1.00
O683   O     0.85908   0.50241   0.82793   0.00000  Uiso   1.00
O684   O     0.77142   0.41911   0.74413   0.00000  Uiso   1.00
O685   O     0.87203   0.42859   0.75367   0.00000  Uiso   1.00
O686   O     0.80758   0.49759   0.67207   0.00000  Uiso   1.00
O687   O     0.90819   0.50707   0.68160   0.00000  Uiso   1.00
C688   C     0.70844   0.48064   0.56624   0.00000  Uiso   1.00
H689   H     0.66829   0.44943   0.58097   0.00000  Uiso   1.00
O690   O     0.72519   0.51674   0.59532   0.00000  Uiso   1.00
C691   C     0.18176   0.93338   0.75152   0.00000  Uiso   1.00
C692   C     0.13576   0.84020   0.99017   0.00000  Uiso   1.00
C693   C     0.15211   0.85400   0.93742   0.00000  Uiso   1.00
C694   C     0.18388   0.85369   0.51935   0.00000  Uiso   1.00
C695   C     0.23992   0.89118   0.50037   0.00000  Uiso   1.00
C696   C     0.25023   0.91117   0.95132   0.00000  Uiso   1.00
C697   C     0.20769   0.89208   0.91985   0.00000  Uiso   1.00
C698   C     0.17939   0.82940   0.56580   0.00000  Uiso   1.00
C699   C     0.27391   0.88952   0.58060   0.00000  Uiso   1.00
C700   C     0.11173   0.83031   0.90390   0.00000  Uiso   1.00
C701   C     0.19025   0.98935   0.75226   0.00000  Uiso   1.00
C702   C     0.13304   0.83195   0.84740   0.00000  Uiso   1.00
C703   C     0.14308   0.67731   0.74775   0.00000  Uiso   1.00
C704   C     0.15157   0.73328   0.74849   0.00000  Uiso   1.00
C705   C     0.20059   0.83767   0.65287   0.00000  Uiso   1.00
C706   C     0.28471   0.90859   0.53104   0.00000  Uiso   1.00
C707   C     0.22105   0.84976   0.59812   0.00000  Uiso   1.00
C708   C     0.05196   0.80032   0.92444   0.00000  Uiso   1.00
C709   C     0.03187   0.79378   0.97719   0.00000  Uiso   1.00
C710   C     0.07208   0.81431   0.51077   0.00000  Uiso   1.00
Cu711  Cu    0.10710   0.82772   0.74435   0.00000  Uiso   1.00
Cu712  Cu    0.22623   0.83895   0.75564   0.00000  Uiso   1.00
H713   H     0.30562   0.90693   0.60569   0.00000  Uiso   1.00
H714   H     0.09762   0.98684   0.74349   0.00000  Uiso   1.00
H715   H     0.00354   0.87265   0.78980   0.00000  Uiso   1.00
H716   H     0.32981   0.79404   0.71017   0.00000  Uiso   1.00
H717   H     0.29221   0.94061   0.93665   0.00000  Uiso   1.00
H718   H     0.32672   0.93840   0.51747   0.00000  Uiso   1.00
H719   H     0.14218   0.79562   0.57855   0.00000  Uiso   1.00
H720   H     0.02019   0.78217   0.89960   0.00000  Uiso   1.00
H721   H     0.31714   0.77335   0.99201   0.00000  Uiso   1.00
H722   H     0.21799   0.90901   0.88218   0.00000  Uiso   1.00
H723   H     0.23572   0.67982   0.75653   0.00000  Uiso   1.00
N724   N     0.31574   0.84741   0.76416   0.00000  Uiso   1.00
N725   N     0.01759   0.81926   0.73584   0.00000  Uiso   1.00
O726   O     0.12797   0.90474   0.74633   0.00000  Uiso   1.00
O727   O     0.22858   0.91422   0.75586   0.00000  Uiso   1.00
O728   O     0.09181   0.82627   0.81839   0.00000  Uiso   1.00
O729   O     0.19242   0.83575   0.82793   0.00000  Uiso   1.00
O730   O     0.10476   0.75245   0.74413   0.00000  Uiso   1.00
O731   O     0.20536   0.76193   0.75367   0.00000  Uiso   1.00
O732   O     0.14092   0.83092   0.67207   0.00000  Uiso   1.00
O733   O     0.24152   0.84040   0.68160   0.00000  Uiso   1.00
C734   C     0.04177   0.81397   0.56624   0.00000  Uiso   1.00
H735   H     0.00162   0.78276   0.58097   0.00000  Uiso   1.00
O736   O     0.05852   0.85008   0.59532   0.00000  Uiso   1.00
C737   C     0.51510   0.93338   0.75152   0.00000  Uiso   1.00
C738   C     0.46910   0.84020   0.99017   0.00000  Uiso   1.00
C739   C     0.48544   0.85400   0.93742   0.00000  Uiso   1.00
C740   C     0.51722   0.85369   0.51935   0.00000  Uiso   1.00
C741   C     0.57325   0.89118   0.50037   0.00000  Uiso   1.00
C742   C     0.58356   0.91117   0.95132   0.00000  Uiso   1.00
C743   C     0.54103   0.89208   0.91985   0.00000  Uiso   1.00
C744   C     0.51273   0.82940   0.56580   0.00000  Uiso   1.00
C745   C     0.60724   0.88952   0.58060   0.00000  Uiso   1.00
C746   C     0.44506   0.83031   0.90390   0.00000  Uiso   1.00
C747   C     0.52359   0.98935   0.75226   0.00000  Uiso   1.00
C748   C     0.46637   0.83195   0.84740   0.00000  Uiso   1.00
C749   C     0.47641   0.67731   0.74775   0.00000  Uiso   1.00
C750   C     0.48490   0.73328   0.74849   0.00000  Uiso   1.00
C751   C     0.53393   0.83767   0.65287   0.00000  Uiso   1.00
C752   C     0.61804   0.90859   0.53104   0.00000  Uiso   1.00
C753   C     0.55438   0.84976   0.59812   0.00000  Uiso   1.00
C754   C     0.38530   0.80032   0.92444   0.00000  Uiso   1.00
C755   C     0.36520   0.79378   0.97719   0.00000  Uiso   1.00
C756   C     0.40541   0.81431   0.51077   0.00000  Uiso   1.00
Cu757  Cu    0.44043   0.82772   0.74435   0.00000  Uiso   1.00
Cu758  Cu    0.55957   0.83895   0.75564   0.00000  Uiso   1.00
H759   H     0.63895   0.90693   0.60569   0.00000  Uiso   1.00
H760   H     0.43095   0.98684   0.74349   0.00000  Uiso   1.00
H761   H     0.33687   0.87265   0.78980   0.00000  Uiso   1.00
H762   H     0.66314   0.79404   0.71017   0.00000  Uiso   1.00
H763   H     0.62554   0.94061   0.93665   0.00000  Uiso   1.00
H764   H     0.66006   0.93840   0.51747   0.00000  Uiso   1.00
H765   H     0.47551   0.79562   0.57855   0.00000  Uiso   1.00
H766   H     0.35352   0.78217   0.89960   0.00000  Uiso   1.00
H767   H     0.65048   0.77335   0.99201   0.00000  Uiso   1.00
H768   H     0.55133   0.90901   0.88218   0.00000  Uiso   1.00
H769   H     0.56905   0.67982   0.75653   0.00000  Uiso   1.00
N770   N     0.64908   0.84741   0.76416   0.00000  Uiso   1.00
N771   N     0.35092   0.81926   0.73584   0.00000  Uiso   1.00
O772   O     0.46131   0.90474   0.74633   0.00000  Uiso   1.00
O773   O     0.56191   0.91422   0.75586   0.00000  Uiso   1.00
O774   O     0.42515   0.82627   0.81839   0.00000  Uiso   1.00
O775   O     0.52575   0.83575   0.82793   0.00000  Uiso   1.00
O776   O     0.43809   0.75245   0.74413   0.00000  Uiso   1.00
O777   O     0.53869   0.76193   0.75367   0.00000  Uiso   1.00
O778   O     0.47425   0.83092   0.67207   0.00000  Uiso   1.00
O779   O     0.57485   0.84040   0.68160   0.00000  Uiso   1.00
C780   C     0.37511   0.81397   0.56624   0.00000  Uiso   1.00
H781   H     0.33495   0.78276   0.58097   0.00000  Uiso   1.00
O782   O     0.39185   0.85008   0.59532   0.00000  Uiso   1.00
C783   C     0.84843   0.93338   0.75152   0.00000  Uiso   1.00
C784   C     0.80243   0.84020   0.99017   0.00000  Uiso   1.00
C785   C     0.81878   0.85400   0.93742   0.00000  Uiso   1.00
C786   C     0.85055   0.85369   0.51935   0.00000  Uiso   1.00
C787   C     0.90659   0.89118   0.50037   0.00000  Uiso   1.00
C788   C     0.91690   0.91117   0.95132   0.00000  Uiso   1.00
C789   C     0.87436   0.89208   0.91985   0.00000  Uiso   1.00
C790   C     0.84606   0.82940   0.56580   0.00000  Uiso   1.00
C791   C     0.94058   0.88952   0.58060   0.00000  Uiso   1.00
C792   C     0.77839   0.83031   0.90390   0.00000  Uiso   1.00
C793   C     0.85692   0.98935   0.75226   0.00000  Uiso   1.00
C794   C     0.79971   0.83195   0.84740   0.00000  Uiso   1.00
C795   C     0.80974   0.67731   0.74775   0.00000  Uiso   1.00
C796   C     0.81823   0.73328   0.74849   0.00000  Uiso   1.00
C797   C     0.86726   0.83767   0.65287   0.00000  Uiso   1.00
C798   C     0.95137   0.90859   0.53104   0.00000  Uiso   1.00
C799   C     0.88771   0.84976   0.59812   0.00000  Uiso   1.00
C800   C     0.71863   0.80032   0.92444   0.00000  Uiso   1.00
C801   C     0.69853   0.79378   0.97719   0.00000  Uiso   1.00
C802   C     0.73874   0.81431   0.51077   0.00000  Uiso   1.00
Cu803  Cu    0.77377   0.82772   0.74435   0.00000  Uiso   1.00
Cu804  Cu    0.89290   0.83895   0.75564   0.00000  Uiso   1.00
H805   H     0.97228   0.90693   0.60569   0.00000  Uiso   1.00
H806   H     0.76428   0.98684   0.74349   0.00000  Uiso   1.00
H807   H     0.67020   0.87265   0.78980   0.00000  Uiso   1.00
H808   H     0.99647   0.79404   0.71017   0.00000  Uiso   1.00
H809   H     0.95887   0.94061   0.93665   0.00000  Uiso   1.00
H810   H     0.99339   0.93840   0.51747   0.00000  Uiso   1.00
H811   H     0.80884   0.79562   0.57855   0.00000  Uiso   1.00
H812   H     0.68685   0.78217   0.89960   0.00000  Uiso   1.00
H813   H     0.98381   0.77335   0.99201   0.00000  Uiso   1.00
H814   H     0.88466   0.90901   0.88218   0.00000  Uiso   1.00
H815   H     0.90238   0.67982   0.75653   0.00000  Uiso   1.00
N816   N     0.98241   0.84741   0.76416   0.00000  Uiso   1.00
N817   N     0.68426   0.81926   0.73584   0.00000  Uiso   1.00
O818   O     0.79464   0.90474   0.74633   0.00000  Uiso   1.00
O819   O     0.89524   0.91422   0.75586   0.00000  Uiso   1.00
O820   O     0.75848   0.82627   0.81839   0.00000  Uiso   1.00
O821   O     0.85908   0.83575   0.82793   0.00000  Uiso   1.00
O822   O     0.77142   0.75245   0.74413   0.00000  Uiso   1.00
O823   O     0.87203   0.76193   0.75367   0.00000  Uiso   1.00
O824   O     0.80758   0.83092   0.67207   0.00000  Uiso   1.00
O825   O     0.90819   0.84040   0.68160   0.00000  Uiso   1.00
C826   C     0.70844   0.81397   0.56624   0.00000  Uiso   1.00
H827   H     0.66829   0.78276   0.58097   0.00000  Uiso   1.00
O828   O     0.72519   0.85008   0.59532   0.00000  Uiso   1.00
loop_
_geom_bond_atom_site_label_1
_geom_bond_atom_site_label_2
_geom_bond_distance
_geom_bond_site_symmetry_2
_ccdc_geom_bond_type
C1     C11     1.428   .     S
C1     O37     1.287   .     A
C1     O36     1.292   .     A
C2     C3      1.422   .     A
C2     C418    1.427   .     S
C2     C434    1.433   .     S
C3     C10     1.419   .     A
C3     C7      1.413   .     A
C4     C8      1.402   .     A
C4     C5      1.419   .     A
C4     C416    1.427   1_554 S
C5     C16     1.404   .     A
C5     C420    1.392   1_554 S
C6     C7      1.388   .     A
C6     H27     1.084   .     S
C6     C419    1.392   .     S
C7     H32     1.081   .     S
C8     C17     1.396   .     A
C8     H29     1.080   .     S
C9     C17     1.399   .     A
C9     C16     1.394   .     A
C9     H23     1.083   .     S
C10    C12     1.476   .     S
C10    C18     1.399   .     A
C11    C151    1.328   .     S
C11    H171    1.088   .     S
C12    O39     1.298   .     A
C12    O38     1.303   .     A
C13    C14     1.428   .     S
C13    C287    1.328   1_545 S
C13    H300    1.088   1_545 S
C14    O41     1.292   .     A
C14    O40     1.287   .     A
C15    O42     1.295   .     A
C15    O43     1.302   .     A
C15    C17     1.463   .     S
C16    H28     1.084   .     S
C18    H30     1.083   .     S
C18    C19     1.387   .     A
C19    C434    1.399   .     S
C19    H123    1.084   1_455 S
C20    C44     1.484   .     S
C20    C416    1.433   1_554 S
C20    C433    1.399   1_554 S
Cu21   O40     1.952   .     S
Cu21   N35     2.022   .     S
Cu21   O42     1.908   .     S
Cu21   O36     1.956   .     S
Cu21   Cu22    2.691   .     S
Cu21   O38     1.927   .     S
Cu22   N34     2.022   .     S
Cu22   O41     1.956   .     S
Cu22   O39     1.908   .     S
Cu22   O37     1.952   .     S
Cu22   O43     1.927   .     S
H24    C151    1.088   .     S
H25    N126    1.029   1_455 S
H26    N81     1.029   .     S
H31    C65     1.084   .     S
H33    C287    1.088   1_545 S
N34    H71     1.029   .     S
N34    N81     1.285   .     S
N35    N126    1.285   1_455 S
N35    H118    1.029   1_455 S
C44    O46     1.221   .     D
C44    H45     1.086   .     S
C47    C57     1.428   .     S
C47    O83     1.287   .     A
C47    O82     1.292   .     A
C48    C49     1.422   .     A
C48    C464    1.427   .     S
C48    C480    1.433   .     S
C49    C56     1.419   .     A
C49    C53     1.413   .     A
C50    C54     1.402   .     A
C50    C51     1.419   .     A
C50    C462    1.427   1_554 S
C51    C62     1.404   .     A
C51    C466    1.392   1_554 S
C52    C53     1.388   .     A
C52    H73     1.084   .     S
C52    C465    1.392   .     S
C53    H78     1.081   .     S
C54    C63     1.396   .     A
C54    H75     1.080   .     S
C55    C63     1.399   .     A
C55    C62     1.394   .     A
C55    H69     1.083   .     S
C56    C58     1.476   .     S
C56    C64     1.399   .     A
C57    C197    1.328   .     S
C57    H217    1.088   .     S
C58    O85     1.298   .     A
C58    O84     1.303   .     A
C59    C60     1.428   .     S
C59    C333    1.328   1_545 S
C59    H346    1.088   1_545 S
C60    O87     1.292   .     A
C60    O86     1.287   .     A
C61    O88     1.295   .     A
C61    O89     1.302   .     A
C61    C63     1.463   .     S
C62    H74     1.084   .     S
C64    H76     1.083   .     S
C64    C65     1.387   .     A
C65    C480    1.399   .     S
C66    C90     1.484   .     S
C66    C462    1.433   1_554 S
C66    C479    1.399   1_554 S
Cu67   O86     1.952   .     S
Cu67   N81     2.022   .     S
Cu67   O88     1.908   .     S
Cu67   O82     1.956   .     S
Cu67   Cu68    2.691   .     S
Cu67   O84     1.927   .     S
Cu68   N80     2.022   .     S
Cu68   O87     1.956   .     S
Cu68   O85     1.908   .     S
Cu68   O83     1.952   .     S
Cu68   O89     1.927   .     S
H70    C197    1.088   .     S
H72    N127    1.029   .     S
H77    C111    1.084   .     S
H79    C333    1.088   1_545 S
N80    H117    1.029   .     S
N80    N127    1.285   .     S
C90    O92     1.221   .     D
C90    H91     1.086   .     S
C93    C103    1.428   .     S
C93    O129    1.287   .     A
C93    O128    1.292   .     A
C94    C95     1.422   .     A
C94    C510    1.427   .     S
C94    C526    1.433   .     S
C95    C102    1.419   .     A
C95    C99     1.413   .     A
C96    C100    1.402   .     A
C96    C97     1.419   .     A
C96    C508    1.427   1_554 S
C97    C108    1.404   .     A
C97    C512    1.392   1_554 S
C98    C99     1.388   .     A
C98    H119    1.084   .     S
C98    C511    1.392   .     S
C99    H124    1.081   .     S
C100   C109    1.396   .     A
C100   H121    1.080   .     S
C101   C109    1.399   .     A
C101   C108    1.394   .     A
C101   H115    1.083   .     S
C102   C104    1.476   .     S
C102   C110    1.399   .     A
C103   C243    1.328   .     S
C103   H263    1.088   .     S
C104   O131    1.298   .     A
C104   O130    1.303   .     A
C105   C106    1.428   .     S
C105   C379    1.328   1_545 S
C105   H392    1.088   1_545 S
C106   O133    1.292   .     A
C106   O132    1.287   .     A
C107   O134    1.295   .     A
C107   O135    1.302   .     A
C107   C109    1.463   .     S
C108   H120    1.084   .     S
C110   H122    1.083   .     S
C110   C111    1.387   .     A
C111   C526    1.399   .     S
C112   C136    1.484   .     S
C112   C508    1.433   1_554 S
C112   C525    1.399   1_554 S
Cu113  O132    1.952   .     S
Cu113  N127    2.022   .     S
Cu113  O134    1.908   .     S
Cu113  O128    1.956   .     S
Cu113  Cu114   2.691   .     S
Cu113  O130    1.927   .     S
Cu114  N126    2.022   .     S
Cu114  O133    1.956   .     S
Cu114  O131    1.908   .     S
Cu114  O129    1.952   .     S
Cu114  O135    1.927   .     S
H116   C243    1.088   .     S
H118   N35     1.029   1_655 S
H123   C19     1.084   1_655 S
H125   C379    1.088   1_545 S
N126   H25     1.029   1_655 S
N126   N35     1.285   1_655 S
C136   O138    1.221   .     D
C136   H137    1.086   .     S
C139   C149    1.428   .     S
C139   O175    1.287   .     A
C139   O174    1.292   .     A
C140   C141    1.422   .     A
C140   C556    1.427   .     S
C140   C572    1.433   .     S
C141   C148    1.419   .     A
C141   C145    1.413   .     A
C142   C146    1.402   .     A
C142   C143    1.419   .     A
C142   C554    1.427   1_554 S
C143   C154    1.404   .     A
C143   C558    1.392   1_554 S
C144   C145    1.388   .     A
C144   H165    1.084   .     S
C144   C557    1.392   .     S
C145   H170    1.081   .     S
C146   C155    1.396   .     A
C146   H167    1.080   .     S
C147   C155    1.399   .     A
C147   C154    1.394   .     A
C147   H161    1.083   .     S
C148   C150    1.476   .     S
C148   C156    1.399   .     A
C149   C289    1.328   .     S
C149   H309    1.088   .     S
C150   O177    1.298   .     A
C150   O176    1.303   .     A
C151   C152    1.428   .     S
C152   O179    1.292   .     A
C152   O178    1.287   .     A
C153   O180    1.295   .     A
C153   O181    1.302   .     A
C153   C155    1.463   .     S
C154   H166    1.084   .     S
C156   H168    1.083   .     S
C156   C157    1.387   .     A
C157   C572    1.399   .     S
C157   H261    1.084   1_455 S
C158   C182    1.484   .     S
C158   C554    1.433   1_554 S
C158   C571    1.399   1_554 S
Cu159  O178    1.952   .     S
Cu159  N173    2.022   .     S
Cu159  O180    1.908   .     S
Cu159  O174    1.956   .     S
Cu159  Cu160   2.691   .     S
Cu159  O176    1.927   .     S
Cu160  N172    2.022   .     S
Cu160  O179    1.956   .     S
Cu160  O177    1.908   .     S
Cu160  O175    1.952   .     S
Cu160  O181    1.927   .     S
H162   C289    1.088   .     S
H163   N264    1.029   1_455 S
H164   N219    1.029   .     S
H169   C203    1.084   .     S
N172   H209    1.029   .     S
N172   N219    1.285   .     S
N173   N264    1.285   1_455 S
N173   H256    1.029   1_455 S
C182   O184    1.221   .     D
C182   H183    1.086   .     S
C185   C195    1.428   .     S
C185   O221    1.287   .     A
C185   O220    1.292   .     A
C186   C187    1.422   .     A
C186   C602    1.427   .     S
C186   C618    1.433   .     S
C187   C194    1.419   .     A
C187   C191    1.413   .     A
C188   C192    1.402   .     A
C188   C189    1.419   .     A
C188   C600    1.427   1_554 S
C189   C200    1.404   .     A
C189   C604    1.392   1_554 S
C190   C191    1.388   .     A
C190   H211    1.084   .     S
C190   C603    1.392   .     S
C191   H216    1.081   .     S
C192   C201    1.396   .     A
C192   H213    1.080   .     S
C193   C201    1.399   .     A
C193   C200    1.394   .     A
C193   H207    1.083   .     S
C194   C196    1.476   .     S
C194   C202    1.399   .     A
C195   C335    1.328   .     S
C195   H355    1.088   .     S
C196   O223    1.298   .     A
C196   O222    1.303   .     A
C197   C198    1.428   .     S
C198   O225    1.292   .     A
C198   O224    1.287   .     A
C199   O226    1.295   .     A
C199   O227    1.302   .     A
C199   C201    1.463   .     S
C200   H212    1.084   .     S
C202   H214    1.083   .     S
C202   C203    1.387   .     A
C203   C618    1.399   .     S
C204   C228    1.484   .     S
C204   C600    1.433   1_554 S
C204   C617    1.399   1_554 S
Cu205  O224    1.952   .     S
Cu205  N219    2.022   .     S
Cu205  O226    1.908   .     S
Cu205  O220    1.956   .     S
Cu205  Cu206   2.691   .     S
Cu205  O222    1.927   .     S
Cu206  N218    2.022   .     S
Cu206  O225    1.956   .     S
Cu206  O223    1.908   .     S
Cu206  O221    1.952   .     S
Cu206  O227    1.927   .     S
H208   C335    1.088   .     S
H210   N265    1.029   .     S
H215   C249    1.084   .     S
N218   H255    1.029   .     S
N218   N265    1.285   .     S
C228   O230    1.221   .     D
C228   H229    1.086   .     S
C231   C241    1.428   .     S
C231   O267    1.287   .     A
C231   O266    1.292   .     A
C232   C233    1.422   .     A
C232   C648    1.427   .     S
C232   C664    1.433   .     S
C233   C240    1.419   .     A
C233   C237    1.413   .     A
C234   C238    1.402   .     A
C234   C235    1.419   .     A
C234   C646    1.427   1_554 S
C235   C246    1.404   .     A
C235   C650    1.392   1_554 S
C236   C237    1.388   .     A
C236   H257    1.084   .     S
C236   C649    1.392   .     S
C237   H262    1.081   .     S
C238   C247    1.396   .     A
C238   H259    1.080   .     S
C239   C247    1.399   .     A
C239   C246    1.394   .     A
C239   H253    1.083   .     S
C240   C242    1.476   .     S
C240   C248    1.399   .     A
C241   C381    1.328   .     S
C241   H401    1.088   .     S
C242   O269    1.298   .     A
C242   O268    1.303   .     A
C243   C244    1.428   .     S
C244   O271    1.292   .     A
C244   O270    1.287   .     A
C245   O272    1.295   .     A
C245   O273    1.302   .     A
C245   C247    1.463   .     S
C246   H258    1.084   .     S
C248   H260    1.083   .     S
C248   C249    1.387   .     A
C249   C664    1.399   .     S
C250   C274    1.484   .     S
C250   C646    1.433   1_554 S
C250   C663    1.399   1_554 S
Cu251  O270    1.952   .     S
Cu251  N265    2.022   .     S
Cu251  O272    1.908   .     S
Cu251  O266    1.956   .     S
Cu251  Cu252   2.691   .     S
Cu251  O268    1.927   .     S
Cu252  N264    2.022   .     S
Cu252  O271    1.956   .     S
Cu252  O269    1.908   .     S
Cu252  O267    1.952   .     S
Cu252  O273    1.927   .     S
H254   C381    1.088   .     S
H256   N173    1.029   1_655 S
H261   C157    1.084   1_655 S
N264   H163    1.029   1_655 S
N264   N173    1.285   1_655 S
C274   O276    1.221   .     D
C274   H275    1.086   .     S
C277   C287    1.428   .     S
C277   O313    1.287   .     A
C277   O312    1.292   .     A
C278   C279    1.422   .     A
C278   C694    1.427   .     S
C278   C710    1.433   .     S
C279   C286    1.419   .     A
C279   C283    1.413   .     A
C280   C284    1.402   .     A
C280   C281    1.419   .     A
C280   C692    1.427   1_554 S
C281   C292    1.404   .     A
C281   C696    1.392   1_554 S
C282   C283    1.388   .     A
C282   H303    1.084   .     S
C282   C695    1.392   .     S
C283   H308    1.081   .     S
C284   C293    1.396   .     A
C284   H305    1.080   .     S
C285   C293    1.399   .     A
C285   C292    1.394   .     A
C285   H299    1.083   .     S
C286   C288    1.476   .     S
C286   C294    1.399   .     A
C287   C13     1.328   1_565 S
C287   H33     1.088   1_565 S
C288   O315    1.298   .     A
C288   O314    1.303   .     A
C289   C290    1.428   .     S
C290   O317    1.292   .     A
C290   O316    1.287   .     A
C291   O318    1.295   .     A
C291   O319    1.302   .     A
C291   C293    1.463   .     S
C292   H304    1.084   .     S
C294   H306    1.083   .     S
C294   C295    1.387   .     A
C295   C710    1.399   .     S
C295   H399    1.084   1_455 S
C296   C320    1.484   .     S
C296   C692    1.433   1_554 S
C296   C709    1.399   1_554 S
Cu297  O316    1.952   .     S
Cu297  N311    2.022   .     S
Cu297  O318    1.908   .     S
Cu297  O312    1.956   .     S
Cu297  Cu298   2.691   .     S
Cu297  O314    1.927   .     S
Cu298  N310    2.022   .     S
Cu298  O317    1.956   .     S
Cu298  O315    1.908   .     S
Cu298  O313    1.952   .     S
Cu298  O319    1.927   .     S
H300   C13     1.088   1_565 S
H301   N402    1.029   1_455 S
H302   N357    1.029   .     S
H307   C341    1.084   .     S
N310   H347    1.029   .     S
N310   N357    1.285   .     S
N311   N402    1.285   1_455 S
N311   H394    1.029   1_455 S
C320   O322    1.221   .     D
C320   H321    1.086   .     S
C323   C333    1.428   .     S
C323   O359    1.287   .     A
C323   O358    1.292   .     A
C324   C325    1.422   .     A
C324   C740    1.427   .     S
C324   C756    1.433   .     S
C325   C332    1.419   .     A
C325   C329    1.413   .     A
C326   C330    1.402   .     A
C326   C327    1.419   .     A
C326   C738    1.427   1_554 S
C327   C338    1.404   .     A
C327   C742    1.392   1_554 S
C328   C329    1.388   .     A
C328   H349    1.084   .     S
C328   C741    1.392   .     S
C329   H354    1.081   .     S
C330   C339    1.396   .     A
C330   H351    1.080   .     S
C331   C339    1.399   .     A
C331   C338    1.394   .     A
C331   H345    1.083   .     S
C332   C334    1.476   .     S
C332   C340    1.399   .     A
C333   C59     1.328   1_565 S
C333   H79     1.088   1_565 S
C334   O361    1.298   .     A
C334   O360    1.303   .     A
C335   C336    1.428   .     S
C336   O363    1.292   .     A
C336   O362    1.287   .     A
C337   O364    1.295   .     A
C337   O365    1.302   .     A
C337   C339    1.463   .     S
C338   H350    1.084   .     S
C340   H352    1.083   .     S
C340   C341    1.387   .     A
C341   C756    1.399   .     S
C342   C366    1.484   .     S
C342   C738    1.433   1_554 S
C342   C755    1.399   1_554 S
Cu343  O362    1.952   .     S
Cu343  N357    2.022   .     S
Cu343  O364    1.908   .     S
Cu343  O358    1.956   .     S
Cu343  Cu344   2.691   .     S
Cu343  O360    1.927   .     S
Cu344  N356    2.022   .     S
Cu344  O363    1.956   .     S
Cu344  O361    1.908   .     S
Cu344  O359    1.952   .     S
Cu344  O365    1.927   .     S
H346   C59     1.088   1_565 S
H348   N403    1.029   .     S
H353   C387    1.084   .     S
N356   H393    1.029   .     S
N356   N403    1.285   .     S
C366   O368    1.221   .     D
C366   H367    1.086   .     S
C369   C379    1.428   .     S
C369   O405    1.287   .     A
C369   O404    1.292   .     A
C370   C371    1.422   .     A
C370   C786    1.427   .     S
C370   C802    1.433   .     S
C371   C378    1.419   .     A
C371   C375    1.413   .     A
C372   C376    1.402   .     A
C372   C373    1.419   .     A
C372   C784    1.427   1_554 S
C373   C384    1.404   .     A
C373   C788    1.392   1_554 S
C374   C375    1.388   .     A
C374   H395    1.084   .     S
C374   C787    1.392   .     S
C375   H400    1.081   .     S
C376   C385    1.396   .     A
C376   H397    1.080   .     S
C377   C385    1.399   .     A
C377   C384    1.394   .     A
C377   H391    1.083   .     S
C378   C380    1.476   .     S
C378   C386    1.399   .     A
C379   C105    1.328   1_565 S
C379   H125    1.088   1_565 S
C380   O407    1.298   .     A
C380   O406    1.303   .     A
C381   C382    1.428   .     S
C382   O409    1.292   .     A
C382   O408    1.287   .     A
C383   O410    1.295   .     A
C383   O411    1.302   .     A
C383   C385    1.463   .     S
C384   H396    1.084   .     S
C386   H398    1.083   .     S
C386   C387    1.387   .     A
C387   C802    1.399   .     S
C388   C412    1.484   .     S
C388   C784    1.433   1_554 S
C388   C801    1.399   1_554 S
Cu389  O408    1.952   .     S
Cu389  N403    2.022   .     S
Cu389  O410    1.908   .     S
Cu389  O404    1.956   .     S
Cu389  Cu390   2.691   .     S
Cu389  O406    1.927   .     S
Cu390  N402    2.022   .     S
Cu390  O409    1.956   .     S
Cu390  O407    1.908   .     S
Cu390  O405    1.952   .     S
Cu390  O411    1.927   .     S
H392   C105    1.088   1_565 S
H394   N311    1.029   1_655 S
H399   C295    1.084   1_655 S
N402   H301    1.029   1_655 S
N402   N311    1.285   1_655 S
C412   O414    1.221   .     D
C412   H413    1.086   .     S
C415   C425    1.428   .     S
C415   O451    1.287   .     A
C415   O450    1.292   .     A
C416   C417    1.422   .     A
C416   C4      1.427   1_556 S
C416   C20     1.433   1_556 S
C417   C424    1.419   .     A
C417   C421    1.413   .     A
C418   C422    1.402   .     A
C418   C419    1.419   .     A
C419   C430    1.404   .     A
C420   C421    1.388   .     A
C420   H441    1.084   .     S
C420   C5      1.392   1_556 S
C421   H446    1.081   .     S
C422   C431    1.396   .     A
C422   H443    1.080   .     S
C423   C431    1.399   .     A
C423   C430    1.394   .     A
C423   H437    1.083   .     S
C424   C426    1.476   .     S
C424   C432    1.399   .     A
C425   C565    1.328   .     S
C425   H585    1.088   .     S
C426   O453    1.298   .     A
C426   O452    1.303   .     A
C427   C428    1.428   .     S
C427   C701    1.328   1_545 S
C427   H714    1.088   1_545 S
C428   O455    1.292   .     A
C428   O454    1.287   .     A
C429   O456    1.295   .     A
C429   O457    1.302   .     A
C429   C431    1.463   .     S
C430   H442    1.084   .     S
C432   H444    1.083   .     S
C432   C433    1.387   .     A
C433   C20     1.399   1_556 S
C433   H537    1.084   1_455 S
C434   C458    1.484   .     S
Cu435  O454    1.952   .     S
Cu435  N449    2.022   .     S
Cu435  O456    1.908   .     S
Cu435  O450    1.956   .     S
Cu435  Cu436   2.691   .     S
Cu435  O452    1.927   .     S
Cu436  N448    2.022   .     S
Cu436  O455    1.956   .     S
Cu436  O453    1.908   .     S
Cu436  O451    1.952   .     S
Cu436  O457    1.927   .     S
H438   C565    1.088   .     S
H439   N540    1.029   1_455 S
H440   N495    1.029   .     S
H445   C479    1.084   .     S
H447   C701    1.088   1_545 S
N448   H485    1.029   .     S
N448   N495    1.285   .     S
N449   N540    1.285   1_455 S
N449   H532    1.029   1_455 S
C458   O460    1.221   .     D
C458   H459    1.086   .     S
C461   C471    1.428   .     S
C461   O497    1.287   .     A
C461   O496    1.292   .     A
C462   C463    1.422   .     A
C462   C50     1.427   1_556 S
C462   C66     1.433   1_556 S
C463   C470    1.419   .     A
C463   C467    1.413   .     A
C464   C468    1.402   .     A
C464   C465    1.419   .     A
C465   C476    1.404   .     A
C466   C467    1.388   .     A
C466   H487    1.084   .     S
C466   C51     1.392   1_556 S
C467   H492    1.081   .     S
C468   C477    1.396   .     A
C468   H489    1.080   .     S
C469   C477    1.399   .     A
C469   C476    1.394   .     A
C469   H483    1.083   .     S
C470   C472    1.476   .     S
C470   C478    1.399   .     A
C471   C611    1.328   .     S
C471   H631    1.088   .     S
C472   O499    1.298   .     A
C472   O498    1.303   .     A
C473   C474    1.428   .     S
C473   C747    1.328   1_545 S
C473   H760    1.088   1_545 S
C474   O501    1.292   .     A
C474   O500    1.287   .     A
C475   O502    1.295   .     A
C475   O503    1.302   .     A
C475   C477    1.463   .     S
C476   H488    1.084   .     S
C478   H490    1.083   .     S
C478   C479    1.387   .     A
C479   C66     1.399   1_556 S
C480   C504    1.484   .     S
Cu481  O500    1.952   .     S
Cu481  N495    2.022   .     S
Cu481  O502    1.908   .     S
Cu481  O496    1.956   .     S
Cu481  Cu482   2.691   .     S
Cu481  O498    1.927   .     S
Cu482  N494    2.022   .     S
Cu482  O501    1.956   .     S
Cu482  O499    1.908   .     S
Cu482  O497    1.952   .     S
Cu482  O503    1.927   .     S
H484   C611    1.088   .     S
H486   N541    1.029   .     S
H491   C525    1.084   .     S
H493   C747    1.088   1_545 S
N494   H531    1.029   .     S
N494   N541    1.285   .     S
C504   O506    1.221   .     D
C504   H505    1.086   .     S
C507   C517    1.428   .     S
C507   O543    1.287   .     A
C507   O542    1.292   .     A
C508   C509    1.422   .     A
C508   C96     1.427   1_556 S
C508   C112    1.433   1_556 S
C509   C516    1.419   .     A
C509   C513    1.413   .     A
C510   C514    1.402   .     A
C510   C511    1.419   .     A
C511   C522    1.404   .     A
C512   C513    1.388   .     A
C512   H533    1.084   .     S
C512   C97     1.392   1_556 S
C513   H538    1.081   .     S
C514   C523    1.396   .     A
C514   H535    1.080   .     S
C515   C523    1.399   .     A
C515   C522    1.394   .     A
C515   H529    1.083   .     S
C516   C518    1.476   .     S
C516   C524    1.399   .     A
C517   C657    1.328   .     S
C517   H677    1.088   .     S
C518   O545    1.298   .     A
C518   O544    1.303   .     A
C519   C520    1.428   .     S
C519   C793    1.328   1_545 S
C519   H806    1.088   1_545 S
C520   O547    1.292   .     A
C520   O546    1.287   .     A
C521   O548    1.295   .     A
C521   O549    1.302   .     A
C521   C523    1.463   .     S
C522   H534    1.084   .     S
C524   H536    1.083   .     S
C524   C525    1.387   .     A
C525   C112    1.399   1_556 S
C526   C550    1.484   .     S
Cu527  O546    1.952   .     S
Cu527  N541    2.022   .     S
Cu527  O548    1.908   .     S
Cu527  O542    1.956   .     S
Cu527  Cu528   2.691   .     S
Cu527  O544    1.927   .     S
Cu528  N540    2.022   .     S
Cu528  O547    1.956   .     S
Cu528  O545    1.908   .     S
Cu528  O543    1.952   .     S
Cu528  O549    1.927   .     S
H530   C657    1.088   .     S
H532   N449    1.029   1_655 S
H537   C433    1.084   1_655 S
H539   C793    1.088   1_545 S
N540   H439    1.029   1_655 S
N540   N449    1.285   1_655 S
C550   O552    1.221   .     D
C550   H551    1.086   .     S
C553   C563    1.428   .     S
C553   O589    1.287   .     A
C553   O588    1.292   .     A
C554   C555    1.422   .     A
C554   C142    1.427   1_556 S
C554   C158    1.433   1_556 S
C555   C562    1.419   .     A
C555   C559    1.413   .     A
C556   C560    1.402   .     A
C556   C557    1.419   .     A
C557   C568    1.404   .     A
C558   C559    1.388   .     A
C558   H579    1.084   .     S
C558   C143    1.392   1_556 S
C559   H584    1.081   .     S
C560   C569    1.396   .     A
C560   H581    1.080   .     S
C561   C569    1.399   .     A
C561   C568    1.394   .     A
C561   H575    1.083   .     S
C562   C564    1.476   .     S
C562   C570    1.399   .     A
C563   C703    1.328   .     S
C563   H723    1.088   .     S
C564   O591    1.298   .     A
C564   O590    1.303   .     A
C565   C566    1.428   .     S
C566   O593    1.292   .     A
C566   O592    1.287   .     A
C567   O594    1.295   .     A
C567   O595    1.302   .     A
C567   C569    1.463   .     S
C568   H580    1.084   .     S
C570   H582    1.083   .     S
C570   C571    1.387   .     A
C571   C158    1.399   1_556 S
C571   H675    1.084   1_455 S
C572   C596    1.484   .     S
Cu573  O592    1.952   .     S
Cu573  N587    2.022   .     S
Cu573  O594    1.908   .     S
Cu573  O588    1.956   .     S
Cu573  Cu574   2.691   .     S
Cu573  O590    1.927   .     S
Cu574  N586    2.022   .     S
Cu574  O593    1.956   .     S
Cu574  O591    1.908   .     S
Cu574  O589    1.952   .     S
Cu574  O595    1.927   .     S
H576   C703    1.088   .     S
H577   N678    1.029   1_455 S
H578   N633    1.029   .     S
H583   C617    1.084   .     S
N586   H623    1.029   .     S
N586   N633    1.285   .     S
N587   N678    1.285   1_455 S
N587   H670    1.029   1_455 S
C596   O598    1.221   .     D
C596   H597    1.086   .     S
C599   C609    1.428   .     S
C599   O635    1.287   .     A
C599   O634    1.292   .     A
C600   C601    1.422   .     A
C600   C188    1.427   1_556 S
C600   C204    1.433   1_556 S
C601   C608    1.419   .     A
C601   C605    1.413   .     A
C602   C606    1.402   .     A
C602   C603    1.419   .     A
C603   C614    1.404   .     A
C604   C605    1.388   .     A
C604   H625    1.084   .     S
C604   C189    1.392   1_556 S
C605   H630    1.081   .     S
C606   C615    1.396   .     A
C606   H627    1.080   .     S
C607   C615    1.399   .     A
C607   C614    1.394   .     A
C607   H621    1.083   .     S
C608   C610    1.476   .     S
C608   C616    1.399   .     A
C609   C749    1.328   .     S
C609   H769    1.088   .     S
C610   O637    1.298   .     A
C610   O636    1.303   .     A
C611   C612    1.428   .     S
C612   O639    1.292   .     A
C612   O638    1.287   .     A
C613   O640    1.295   .     A
C613   O641    1.302   .     A
C613   C615    1.463   .     S
C614   H626    1.084   .     S
C616   H628    1.083   .     S
C616   C617    1.387   .     A
C617   C204    1.399   1_556 S
C618   C642    1.484   .     S
Cu619  O638    1.952   .     S
Cu619  N633    2.022   .     S
Cu619  O640    1.908   .     S
Cu619  O634    1.956   .     S
Cu619  Cu620   2.691   .     S
Cu619  O636    1.927   .     S
Cu620  N632    2.022   .     S
Cu620  O639    1.956   .     S
Cu620  O637    1.908   .     S
Cu620  O635    1.952   .     S
Cu620  O641    1.927   .     S
H622   C749    1.088   .     S
H624   N679    1.029   .     S
H629   C663    1.084   .     S
N632   H669    1.029   .     S
N632   N679    1.285   .     S
C642   O644    1.221   .     D
C642   H643    1.086   .     S
C645   C655    1.428   .     S
C645   O681    1.287   .     A
C645   O680    1.292   .     A
C646   C647    1.422   .     A
C646   C234    1.427   1_556 S
C646   C250    1.433   1_556 S
C647   C654    1.419   .     A
C647   C651    1.413   .     A
C648   C652    1.402   .     A
C648   C649    1.419   .     A
C649   C660    1.404   .     A
C650   C651    1.388   .     A
C650   H671    1.084   .     S
C650   C235    1.392   1_556 S
C651   H676    1.081   .     S
C652   C661    1.396   .     A
C652   H673    1.080   .     S
C653   C661    1.399   .     A
C653   C660    1.394   .     A
C653   H667    1.083   .     S
C654   C656    1.476   .     S
C654   C662    1.399   .     A
C655   C795    1.328   .     S
C655   H815    1.088   .     S
C656   O683    1.298   .     A
C656   O682    1.303   .     A
C657   C658    1.428   .     S
C658   O685    1.292   .     A
C658   O684    1.287   .     A
C659   O686    1.295   .     A
C659   O687    1.302   .     A
C659   C661    1.463   .     S
C660   H672    1.084   .     S
C662   H674    1.083   .     S
C662   C663    1.387   .     A
C663   C250    1.399   1_556 S
C664   C688    1.484   .     S
Cu665  O684    1.952   .     S
Cu665  N679    2.022   .     S
Cu665  O686    1.908   .     S
Cu665  O680    1.956   .     S
Cu665  Cu666   2.691   .     S
Cu665  O682    1.927   .     S
Cu666  N678    2.022   .     S
Cu666  O685    1.956   .     S
Cu666  O683    1.908   .     S
Cu666  O681    1.952   .     S
Cu666  O687    1.927   .     S
H668   C795    1.088   .     S
H670   N587    1.029   1_655 S
H675   C571    1.084   1_655 S
N678   H577    1.029   1_655 S
N678   N587    1.285   1_655 S
C688   O690    1.221   .     D
C688   H689    1.086   .     S
C691   C701    1.428   .     S
C691   O727    1.287   .     A
C691   O726    1.292   .     A
C692   C693    1.422   .     A
C692   C280    1.427   1_556 S
C692   C296    1.433   1_556 S
C693   C700    1.419   .     A
C693   C697    1.413   .     A
C694   C698    1.402   .     A
C694   C695    1.419   .     A
C695   C706    1.404   .     A
C696   C697    1.388   .     A
C696   H717    1.084   .     S
C696   C281    1.392   1_556 S
C697   H722    1.081   .     S
C698   C707    1.396   .     A
C698   H719    1.080   .     S
C699   C707    1.399   .     A
C699   C706    1.394   .     A
C699   H713    1.083   .     S
C700   C702    1.476   .     S
C700   C708    1.399   .     A
C701   C427    1.328   1_565 S
C701   H447    1.088   1_565 S
C702   O729    1.298   .     A
C702   O728    1.303   .     A
C703   C704    1.428   .     S
C704   O731    1.292   .     A
C704   O730    1.287   .     A
C705   O732    1.295   .     A
C705   O733    1.302   .     A
C705   C707    1.463   .     S
C706   H718    1.084   .     S
C708   H720    1.083   .     S
C708   C709    1.387   .     A
C709   C296    1.399   1_556 S
C709   H813    1.084   1_455 S
C710   C734    1.484   .     S
Cu711  O730    1.952   .     S
Cu711  N725    2.022   .     S
Cu711  O732    1.908   .     S
Cu711  O726    1.956   .     S
Cu711  Cu712   2.691   .     S
Cu711  O728    1.927   .     S
Cu712  N724    2.022   .     S
Cu712  O731    1.956   .     S
Cu712  O729    1.908   .     S
Cu712  O727    1.952   .     S
Cu712  O733    1.927   .     S
H714   C427    1.088   1_565 S
H715   N816    1.029   1_455 S
H716   N771    1.029   .     S
H721   C755    1.084   .     S
N724   H761    1.029   .     S
N724   N771    1.285   .     S
N725   N816    1.285   1_455 S
N725   H808    1.029   1_455 S
C734   O736    1.221   .     D
C734   H735    1.086   .     S
C737   C747    1.428   .     S
C737   O773    1.287   .     A
C737   O772    1.292   .     A
C738   C739    1.422   .     A
C738   C326    1.427   1_556 S
C738   C342    1.433   1_556 S
C739   C746    1.419   .     A
C739   C743    1.413   .     A
C740   C744    1.402   .     A
C740   C741    1.419   .     A
C741   C752    1.404   .     A
C742   C743    1.388   .     A
C742   H763    1.084   .     S
C742   C327    1.392   1_556 S
C743   H768    1.081   .     S
C744   C753    1.396   .     A
C744   H765    1.080   .     S
C745   C753    1.399   .     A
C745   C752    1.394   .     A
C745   H759    1.083   .     S
C746   C748    1.476   .     S
C746   C754    1.399   .     A
C747   C473    1.328   1_565 S
C747   H493    1.088   1_565 S
C748   O775    1.298   .     A
C748   O774    1.303   .     A
C749   C750    1.428   .     S
C750   O777    1.292   .     A
C750   O776    1.287   .     A
C751   O778    1.295   .     A
C751   O779    1.302   .     A
C751   C753    1.463   .     S
C752   H764    1.084   .     S
C754   H766    1.083   .     S
C754   C755    1.387   .     A
C755   C342    1.399   1_556 S
C756   C780    1.484   .     S
Cu757  O776    1.952   .     S
Cu757  N771    2.022   .     S
Cu757  O778    1.908   .     S
Cu757  O772    1.956   .     S
Cu757  Cu758   2.691   .     S
Cu757  O774    1.927   .     S
Cu758  N770    2.022   .     S
Cu758  O777    1.956   .     S
Cu758  O775    1.908   .     S
Cu758  O773    1.952   .     S
Cu758  O779    1.927   .     S
H760   C473    1.088   1_565 S
H762   N817    1.029   .     S
H767   C801    1.084   .     S
N770   H807    1.029   .     S
N770   N817    1.285   .     S
C780   O782    1.221   .     D
C780   H781    1.086   .     S
C783   C793    1.428   .     S
C783   O819    1.287   .     A
C783   O818    1.292   .     A
C784   C785    1.422   .     A
C784   C372    1.427   1_556 S
C784   C388    1.433   1_556 S
C785   C792    1.419   .     A
C785   C789    1.413   .     A
C786   C790    1.402   .     A
C786   C787    1.419   .     A
C787   C798    1.404   .     A
C788   C789    1.388   .     A
C788   H809    1.084   .     S
C788   C373    1.392   1_556 S
C789   H814    1.081   .     S
C790   C799    1.396   .     A
C790   H811    1.080   .     S
C791   C799    1.399   .     A
C791   C798    1.394   .     A
C791   H805    1.083   .     S
C792   C794    1.476   .     S
C792   C800    1.399   .     A
C793   C519    1.328   1_565 S
C793   H539    1.088   1_565 S
C794   O821    1.298   .     A
C794   O820    1.303   .     A
C795   C796    1.428   .     S
C796   O823    1.292   .     A
C796   O822    1.287   .     A
C797   O824    1.295   .     A
C797   O825    1.302   .     A
C797   C799    1.463   .     S
C798   H810    1.084   .     S
C800   H812    1.083   .     S
C800   C801    1.387   .     A
C801   C388    1.399   1_556 S
C802   C826    1.484   .     S
Cu803  O822    1.952   .     S
Cu803  N817    2.022   .     S
Cu803  O824    1.908   .     S
Cu803  O818    1.956   .     S
Cu803  Cu804   2.691   .     S
Cu803  O820    1.927   .     S
Cu804  N816    2.022   .     S
Cu804  O823    1.956   .     S
Cu804  O821    1.908   .     S
Cu804  O819    1.952   .     S
Cu804  O825    1.927   .     S
H806   C519    1.088   1_565 S
H808   N725    1.029   1_655 S
H813   C709    1.084   1_655 S
N816   H715    1.029   1_655 S
N816   N725    1.285   1_655 S
C826   O828    1.221   .     D
C826   H827    1.086   .     S
