data_str_m2_o10_o17_pcu_sym.35
_audit_creation_date              2020-01-03
_audit_creation_method            'Materials Studio'
_symmetry_space_group_name_H-M    'P1'
_symmetry_Int_Tables_number       1
_symmetry_cell_setting            triclinic
loop_
_symmetry_equiv_pos_as_xyz
  x,y,z
_cell_length_a                    30.0880
_cell_length_b                    26.3613
_cell_length_c                    22.3081
_cell_angle_alpha                 102.8565
_cell_angle_beta                  93.9152
_cell_angle_gamma                 93.1563
loop_
_atom_site_label
_atom_site_type_symbol
_atom_site_fract_x
_atom_site_fract_y
_atom_site_fract_z
_atom_site_U_iso_or_equiv
_atom_site_adp_type
_atom_site_occupancy
C1     C     0.24808   0.06681   0.15134   0.00000  Uiso   1.00
C2     C     0.09037   0.11897   0.14944   0.00000  Uiso   1.00
C3     C     0.38341   0.16703   0.16373   0.00000  Uiso   1.00
C4     C     0.11659   0.16631   0.16960   0.00000  Uiso   1.00
C5     C     0.40293   0.11963   0.14371   0.00000  Uiso   1.00
C6     C     0.09707   0.21370   0.18962   0.00000  Uiso   1.00
C7     C     0.44970   0.11925   0.14517   0.00000  Uiso   1.00
C8     C     0.05030   0.21408   0.18816   0.00000  Uiso   1.00
C9     C     0.47648   0.16676   0.16583   0.00000  Uiso   1.00
C10    C     0.02352   0.16657   0.16751   0.00000  Uiso   1.00
C11    C     0.45637   0.21445   0.18485   0.00000  Uiso   1.00
C12    C     0.25192   0.26653   0.18199   0.00000  Uiso   1.00
C13    C     0.04363   0.11889   0.14849   0.00000  Uiso   1.00
C14    C     0.47037   0.07240   0.12691   0.00000  Uiso   1.00
C15    C     0.02963   0.26094   0.20642   0.00000  Uiso   1.00
C16    C     0.38817   0.26271   0.20316   0.00000  Uiso   1.00
C17    C     0.11183   0.07062   0.13017   0.00000  Uiso   1.00
C18    C     0.37463   0.07152   0.12279   0.00000  Uiso   1.00
C19    C     0.12537   0.26181   0.21054   0.00000  Uiso   1.00
C20    C     0.22195   0.31604   0.08395   0.00000  Uiso   1.00
C21    C     0.27805   0.01730   0.24938   0.00000  Uiso   1.00
C22    C     0.01646   0.07220   0.12860   0.00000  Uiso   1.00
C23    C     0.48354   0.26113   0.20473   0.00000  Uiso   1.00
C24    C     0.24349   0.01130   0.14334   0.00000  Uiso   1.00
C25    C     0.25651   0.32203   0.19000   0.00000  Uiso   1.00
C26    C     0.16469   0.16643   0.16759   0.00000  Uiso   1.00
C27    C     0.33531   0.16690   0.16575   0.00000  Uiso   1.00
C28    C     0.40963   0.21436   0.18389   0.00000  Uiso   1.00
Cu29   Cu    0.25500   0.17246   0.22813   0.00000  Uiso   1.00
Cu30   Cu    0.24499   0.16087   0.10521   0.00000  Uiso   1.00
H31    H     0.45114   0.03528   0.11119   0.00000  Uiso   1.00
H32    H     0.04886   0.29805   0.22215   0.00000  Uiso   1.00
H33    H     0.03052   0.03495   0.11399   0.00000  Uiso   1.00
H34    H     0.46948   0.29839   0.21935   0.00000  Uiso   1.00
H35    H     0.21514   0.12591   0.31612   0.00000  Uiso   1.00
H36    H     0.28486   0.20743   0.01722   0.00000  Uiso   1.00
N37    N     0.23744   0.15214   0.01284   0.00000  Uiso   1.00
N38    N     0.26255   0.18119   0.32049   0.00000  Uiso   1.00
N39    N     0.37123   0.30130   0.21854   0.00000  Uiso   1.00
N40    N     0.12877   0.03203   0.11479   0.00000  Uiso   1.00
N41    N     0.35212   0.03323   0.10607   0.00000  Uiso   1.00
N42    N     0.14788   0.30011   0.22726   0.00000  Uiso   1.00
N43    N     0.20484   0.29359   0.03671   0.00000  Uiso   1.00
N44    N     0.29516   0.03975   0.29662   0.00000  Uiso   1.00
O45    O     0.25325   0.09538   0.20659   0.00000  Uiso   1.00
O46    O     0.24674   0.23796   0.12674   0.00000  Uiso   1.00
O47    O     0.24480   0.08559   0.10279   0.00000  Uiso   1.00
O48    O     0.25520   0.24774   0.23055   0.00000  Uiso   1.00
O49    O     0.18935   0.17155   0.21857   0.00000  Uiso   1.00
O50    O     0.31064   0.16179   0.11476   0.00000  Uiso   1.00
O51    O     0.18090   0.16176   0.11477   0.00000  Uiso   1.00
O52    O     0.31910   0.17157   0.21857   0.00000  Uiso   1.00
C53    C     0.74808   0.06681   0.15134   0.00000  Uiso   1.00
C54    C     0.59037   0.11897   0.14944   0.00000  Uiso   1.00
C55    C     0.88341   0.16703   0.16373   0.00000  Uiso   1.00
C56    C     0.61659   0.16631   0.16960   0.00000  Uiso   1.00
C57    C     0.90293   0.11963   0.14371   0.00000  Uiso   1.00
C58    C     0.59707   0.21370   0.18962   0.00000  Uiso   1.00
C59    C     0.94970   0.11925   0.14517   0.00000  Uiso   1.00
C60    C     0.55030   0.21408   0.18816   0.00000  Uiso   1.00
C61    C     0.97648   0.16676   0.16583   0.00000  Uiso   1.00
C62    C     0.52352   0.16657   0.16751   0.00000  Uiso   1.00
C63    C     0.95637   0.21445   0.18485   0.00000  Uiso   1.00
C64    C     0.75192   0.26653   0.18199   0.00000  Uiso   1.00
C65    C     0.54363   0.11889   0.14849   0.00000  Uiso   1.00
C66    C     0.97037   0.07240   0.12691   0.00000  Uiso   1.00
C67    C     0.52963   0.26094   0.20642   0.00000  Uiso   1.00
C68    C     0.88817   0.26271   0.20316   0.00000  Uiso   1.00
C69    C     0.61183   0.07062   0.13017   0.00000  Uiso   1.00
C70    C     0.87463   0.07152   0.12279   0.00000  Uiso   1.00
C71    C     0.62537   0.26181   0.21054   0.00000  Uiso   1.00
C72    C     0.72195   0.31604   0.08395   0.00000  Uiso   1.00
C73    C     0.77805   0.01730   0.24938   0.00000  Uiso   1.00
C74    C     0.51646   0.07220   0.12860   0.00000  Uiso   1.00
C75    C     0.98354   0.26113   0.20473   0.00000  Uiso   1.00
C76    C     0.74349   0.01130   0.14334   0.00000  Uiso   1.00
C77    C     0.75651   0.32203   0.19000   0.00000  Uiso   1.00
C78    C     0.66469   0.16643   0.16759   0.00000  Uiso   1.00
C79    C     0.83531   0.16690   0.16575   0.00000  Uiso   1.00
C80    C     0.90963   0.21436   0.18389   0.00000  Uiso   1.00
Cu81   Cu    0.75500   0.17246   0.22813   0.00000  Uiso   1.00
Cu82   Cu    0.74499   0.16087   0.10521   0.00000  Uiso   1.00
H83    H     0.95114   0.03528   0.11119   0.00000  Uiso   1.00
H84    H     0.54886   0.29805   0.22215   0.00000  Uiso   1.00
H85    H     0.53052   0.03495   0.11399   0.00000  Uiso   1.00
H86    H     0.96948   0.29839   0.21935   0.00000  Uiso   1.00
H87    H     0.71514   0.12591   0.31612   0.00000  Uiso   1.00
H88    H     0.78486   0.20743   0.01722   0.00000  Uiso   1.00
N89    N     0.73744   0.15214   0.01284   0.00000  Uiso   1.00
N90    N     0.76255   0.18119   0.32049   0.00000  Uiso   1.00
N91    N     0.87123   0.30130   0.21854   0.00000  Uiso   1.00
N92    N     0.62877   0.03203   0.11479   0.00000  Uiso   1.00
N93    N     0.85212   0.03323   0.10607   0.00000  Uiso   1.00
N94    N     0.64788   0.30011   0.22726   0.00000  Uiso   1.00
N95    N     0.70484   0.29359   0.03671   0.00000  Uiso   1.00
N96    N     0.79516   0.03975   0.29662   0.00000  Uiso   1.00
O97    O     0.75325   0.09538   0.20659   0.00000  Uiso   1.00
O98    O     0.74674   0.23796   0.12674   0.00000  Uiso   1.00
O99    O     0.74480   0.08559   0.10279   0.00000  Uiso   1.00
O100   O     0.75520   0.24774   0.23055   0.00000  Uiso   1.00
O101   O     0.68935   0.17155   0.21857   0.00000  Uiso   1.00
O102   O     0.81064   0.16179   0.11476   0.00000  Uiso   1.00
O103   O     0.68090   0.16176   0.11477   0.00000  Uiso   1.00
O104   O     0.81910   0.17157   0.21857   0.00000  Uiso   1.00
C105   C     0.24808   0.40014   0.15134   0.00000  Uiso   1.00
C106   C     0.09037   0.45231   0.14944   0.00000  Uiso   1.00
C107   C     0.38341   0.50036   0.16373   0.00000  Uiso   1.00
C108   C     0.11659   0.49964   0.16960   0.00000  Uiso   1.00
C109   C     0.40293   0.45296   0.14371   0.00000  Uiso   1.00
C110   C     0.09707   0.54704   0.18962   0.00000  Uiso   1.00
C111   C     0.44970   0.45259   0.14517   0.00000  Uiso   1.00
C112   C     0.05030   0.54741   0.18816   0.00000  Uiso   1.00
C113   C     0.47648   0.50009   0.16583   0.00000  Uiso   1.00
C114   C     0.02352   0.49991   0.16751   0.00000  Uiso   1.00
C115   C     0.45637   0.54778   0.18485   0.00000  Uiso   1.00
C116   C     0.25192   0.59986   0.18199   0.00000  Uiso   1.00
C117   C     0.04363   0.45222   0.14849   0.00000  Uiso   1.00
C118   C     0.47037   0.40573   0.12691   0.00000  Uiso   1.00
C119   C     0.02963   0.59427   0.20642   0.00000  Uiso   1.00
C120   C     0.38817   0.59604   0.20316   0.00000  Uiso   1.00
C121   C     0.11183   0.40396   0.13017   0.00000  Uiso   1.00
C122   C     0.37463   0.40486   0.12279   0.00000  Uiso   1.00
C123   C     0.12537   0.59514   0.21054   0.00000  Uiso   1.00
C124   C     0.22195   0.64937   0.08395   0.00000  Uiso   1.00
C125   C     0.27805   0.35063   0.24938   0.00000  Uiso   1.00
C126   C     0.01646   0.40554   0.12860   0.00000  Uiso   1.00
C127   C     0.48354   0.59446   0.20473   0.00000  Uiso   1.00
C128   C     0.24349   0.34464   0.14334   0.00000  Uiso   1.00
C129   C     0.25651   0.65536   0.19000   0.00000  Uiso   1.00
C130   C     0.16469   0.49977   0.16759   0.00000  Uiso   1.00
C131   C     0.33531   0.50023   0.16575   0.00000  Uiso   1.00
C132   C     0.40963   0.54770   0.18389   0.00000  Uiso   1.00
Cu133  Cu    0.25500   0.50579   0.22813   0.00000  Uiso   1.00
Cu134  Cu    0.24499   0.49421   0.10521   0.00000  Uiso   1.00
H135   H     0.45114   0.36862   0.11119   0.00000  Uiso   1.00
H136   H     0.04886   0.63138   0.22215   0.00000  Uiso   1.00
H137   H     0.03052   0.36828   0.11399   0.00000  Uiso   1.00
H138   H     0.46948   0.63172   0.21935   0.00000  Uiso   1.00
H139   H     0.21514   0.45924   0.31612   0.00000  Uiso   1.00
H140   H     0.28486   0.54076   0.01722   0.00000  Uiso   1.00
N141   N     0.23744   0.48547   0.01284   0.00000  Uiso   1.00
N142   N     0.26255   0.51453   0.32049   0.00000  Uiso   1.00
N143   N     0.37123   0.63464   0.21854   0.00000  Uiso   1.00
N144   N     0.12877   0.36536   0.11479   0.00000  Uiso   1.00
N145   N     0.35212   0.36656   0.10607   0.00000  Uiso   1.00
N146   N     0.14788   0.63344   0.22726   0.00000  Uiso   1.00
N147   N     0.20484   0.62692   0.03671   0.00000  Uiso   1.00
N148   N     0.29516   0.37308   0.29662   0.00000  Uiso   1.00
O149   O     0.25325   0.42871   0.20659   0.00000  Uiso   1.00
O150   O     0.24674   0.57129   0.12674   0.00000  Uiso   1.00
O151   O     0.24480   0.41892   0.10279   0.00000  Uiso   1.00
O152   O     0.25520   0.58108   0.23055   0.00000  Uiso   1.00
O153   O     0.18935   0.50488   0.21857   0.00000  Uiso   1.00
O154   O     0.31064   0.49512   0.11476   0.00000  Uiso   1.00
O155   O     0.18090   0.49510   0.11477   0.00000  Uiso   1.00
O156   O     0.31910   0.50490   0.21857   0.00000  Uiso   1.00
C157   C     0.74808   0.40014   0.15134   0.00000  Uiso   1.00
C158   C     0.59037   0.45231   0.14944   0.00000  Uiso   1.00
C159   C     0.88341   0.50036   0.16373   0.00000  Uiso   1.00
C160   C     0.61659   0.49964   0.16960   0.00000  Uiso   1.00
C161   C     0.90293   0.45296   0.14371   0.00000  Uiso   1.00
C162   C     0.59707   0.54704   0.18962   0.00000  Uiso   1.00
C163   C     0.94970   0.45259   0.14517   0.00000  Uiso   1.00
C164   C     0.55030   0.54741   0.18816   0.00000  Uiso   1.00
C165   C     0.97648   0.50009   0.16583   0.00000  Uiso   1.00
C166   C     0.52352   0.49991   0.16751   0.00000  Uiso   1.00
C167   C     0.95637   0.54778   0.18485   0.00000  Uiso   1.00
C168   C     0.75192   0.59986   0.18199   0.00000  Uiso   1.00
C169   C     0.54363   0.45222   0.14849   0.00000  Uiso   1.00
C170   C     0.97037   0.40573   0.12691   0.00000  Uiso   1.00
C171   C     0.52963   0.59427   0.20642   0.00000  Uiso   1.00
C172   C     0.88817   0.59604   0.20316   0.00000  Uiso   1.00
C173   C     0.61183   0.40396   0.13017   0.00000  Uiso   1.00
C174   C     0.87463   0.40486   0.12279   0.00000  Uiso   1.00
C175   C     0.62537   0.59514   0.21054   0.00000  Uiso   1.00
C176   C     0.72195   0.64937   0.08395   0.00000  Uiso   1.00
C177   C     0.77805   0.35063   0.24938   0.00000  Uiso   1.00
C178   C     0.51646   0.40554   0.12860   0.00000  Uiso   1.00
C179   C     0.98354   0.59446   0.20473   0.00000  Uiso   1.00
C180   C     0.74349   0.34464   0.14334   0.00000  Uiso   1.00
C181   C     0.75651   0.65536   0.19000   0.00000  Uiso   1.00
C182   C     0.66469   0.49977   0.16759   0.00000  Uiso   1.00
C183   C     0.83531   0.50023   0.16575   0.00000  Uiso   1.00
C184   C     0.90963   0.54770   0.18389   0.00000  Uiso   1.00
Cu185  Cu    0.75500   0.50579   0.22813   0.00000  Uiso   1.00
Cu186  Cu    0.74499   0.49421   0.10521   0.00000  Uiso   1.00
H187   H     0.95114   0.36862   0.11119   0.00000  Uiso   1.00
H188   H     0.54886   0.63138   0.22215   0.00000  Uiso   1.00
H189   H     0.53052   0.36828   0.11399   0.00000  Uiso   1.00
H190   H     0.96948   0.63172   0.21935   0.00000  Uiso   1.00
H191   H     0.71514   0.45924   0.31612   0.00000  Uiso   1.00
H192   H     0.78486   0.54076   0.01722   0.00000  Uiso   1.00
N193   N     0.73744   0.48547   0.01284   0.00000  Uiso   1.00
N194   N     0.76255   0.51453   0.32049   0.00000  Uiso   1.00
N195   N     0.87123   0.63464   0.21854   0.00000  Uiso   1.00
N196   N     0.62877   0.36536   0.11479   0.00000  Uiso   1.00
N197   N     0.85212   0.36656   0.10607   0.00000  Uiso   1.00
N198   N     0.64788   0.63344   0.22726   0.00000  Uiso   1.00
N199   N     0.70484   0.62692   0.03671   0.00000  Uiso   1.00
N200   N     0.79516   0.37308   0.29662   0.00000  Uiso   1.00
O201   O     0.75325   0.42871   0.20659   0.00000  Uiso   1.00
O202   O     0.74674   0.57129   0.12674   0.00000  Uiso   1.00
O203   O     0.74480   0.41892   0.10279   0.00000  Uiso   1.00
O204   O     0.75520   0.58108   0.23055   0.00000  Uiso   1.00
O205   O     0.68935   0.50488   0.21857   0.00000  Uiso   1.00
O206   O     0.81064   0.49512   0.11476   0.00000  Uiso   1.00
O207   O     0.68090   0.49510   0.11477   0.00000  Uiso   1.00
O208   O     0.81910   0.50490   0.21857   0.00000  Uiso   1.00
C209   C     0.24808   0.73347   0.15134   0.00000  Uiso   1.00
C210   C     0.09037   0.78564   0.14944   0.00000  Uiso   1.00
C211   C     0.38341   0.83369   0.16373   0.00000  Uiso   1.00
C212   C     0.11659   0.83297   0.16960   0.00000  Uiso   1.00
C213   C     0.40293   0.78630   0.14371   0.00000  Uiso   1.00
C214   C     0.09707   0.88037   0.18962   0.00000  Uiso   1.00
C215   C     0.44970   0.78592   0.14517   0.00000  Uiso   1.00
C216   C     0.05030   0.88075   0.18816   0.00000  Uiso   1.00
C217   C     0.47648   0.83343   0.16583   0.00000  Uiso   1.00
C218   C     0.02352   0.83324   0.16751   0.00000  Uiso   1.00
C219   C     0.45637   0.88111   0.18485   0.00000  Uiso   1.00
C220   C     0.25192   0.93319   0.18199   0.00000  Uiso   1.00
C221   C     0.04363   0.78555   0.14849   0.00000  Uiso   1.00
C222   C     0.47037   0.73906   0.12691   0.00000  Uiso   1.00
C223   C     0.02963   0.92761   0.20642   0.00000  Uiso   1.00
C224   C     0.38817   0.92938   0.20316   0.00000  Uiso   1.00
C225   C     0.11183   0.73729   0.13017   0.00000  Uiso   1.00
C226   C     0.37463   0.73819   0.12279   0.00000  Uiso   1.00
C227   C     0.12537   0.92848   0.21054   0.00000  Uiso   1.00
C228   C     0.22195   0.98270   0.08395   0.00000  Uiso   1.00
C229   C     0.27805   0.68396   0.24938   0.00000  Uiso   1.00
C230   C     0.01646   0.73887   0.12860   0.00000  Uiso   1.00
C231   C     0.48354   0.92780   0.20473   0.00000  Uiso   1.00
C232   C     0.24349   0.67797   0.14334   0.00000  Uiso   1.00
C233   C     0.25651   0.98870   0.19000   0.00000  Uiso   1.00
C234   C     0.16469   0.83310   0.16759   0.00000  Uiso   1.00
C235   C     0.33531   0.83357   0.16575   0.00000  Uiso   1.00
C236   C     0.40963   0.88103   0.18389   0.00000  Uiso   1.00
Cu237  Cu    0.25500   0.83913   0.22813   0.00000  Uiso   1.00
Cu238  Cu    0.24499   0.82754   0.10521   0.00000  Uiso   1.00
H239   H     0.45114   0.70195   0.11119   0.00000  Uiso   1.00
H240   H     0.04886   0.96472   0.22215   0.00000  Uiso   1.00
H241   H     0.03052   0.70161   0.11399   0.00000  Uiso   1.00
H242   H     0.46948   0.96505   0.21935   0.00000  Uiso   1.00
H243   H     0.21514   0.79257   0.31612   0.00000  Uiso   1.00
H244   H     0.28486   0.87409   0.01722   0.00000  Uiso   1.00
N245   N     0.23744   0.81881   0.01284   0.00000  Uiso   1.00
N246   N     0.26255   0.84786   0.32049   0.00000  Uiso   1.00
N247   N     0.37123   0.96797   0.21854   0.00000  Uiso   1.00
N248   N     0.12877   0.69870   0.11479   0.00000  Uiso   1.00
N249   N     0.35212   0.69989   0.10607   0.00000  Uiso   1.00
N250   N     0.14788   0.96677   0.22726   0.00000  Uiso   1.00
N251   N     0.20484   0.96025   0.03671   0.00000  Uiso   1.00
N252   N     0.29516   0.70641   0.29662   0.00000  Uiso   1.00
O253   O     0.25325   0.76204   0.20659   0.00000  Uiso   1.00
O254   O     0.24674   0.90462   0.12674   0.00000  Uiso   1.00
O255   O     0.24480   0.75226   0.10279   0.00000  Uiso   1.00
O256   O     0.25520   0.91441   0.23055   0.00000  Uiso   1.00
O257   O     0.18935   0.83821   0.21857   0.00000  Uiso   1.00
O258   O     0.31064   0.82845   0.11476   0.00000  Uiso   1.00
O259   O     0.18090   0.82843   0.11477   0.00000  Uiso   1.00
O260   O     0.31910   0.83824   0.21857   0.00000  Uiso   1.00
C261   C     0.74808   0.73347   0.15134   0.00000  Uiso   1.00
C262   C     0.59037   0.78564   0.14944   0.00000  Uiso   1.00
C263   C     0.88341   0.83369   0.16373   0.00000  Uiso   1.00
C264   C     0.61659   0.83297   0.16960   0.00000  Uiso   1.00
C265   C     0.90293   0.78630   0.14371   0.00000  Uiso   1.00
C266   C     0.59707   0.88037   0.18962   0.00000  Uiso   1.00
C267   C     0.94970   0.78592   0.14517   0.00000  Uiso   1.00
C268   C     0.55030   0.88075   0.18816   0.00000  Uiso   1.00
C269   C     0.97648   0.83343   0.16583   0.00000  Uiso   1.00
C270   C     0.52352   0.83324   0.16751   0.00000  Uiso   1.00
C271   C     0.95637   0.88111   0.18485   0.00000  Uiso   1.00
C272   C     0.75192   0.93319   0.18199   0.00000  Uiso   1.00
C273   C     0.54363   0.78555   0.14849   0.00000  Uiso   1.00
C274   C     0.97037   0.73906   0.12691   0.00000  Uiso   1.00
C275   C     0.52963   0.92761   0.20642   0.00000  Uiso   1.00
C276   C     0.88817   0.92938   0.20316   0.00000  Uiso   1.00
C277   C     0.61183   0.73729   0.13017   0.00000  Uiso   1.00
C278   C     0.87463   0.73819   0.12279   0.00000  Uiso   1.00
C279   C     0.62537   0.92848   0.21054   0.00000  Uiso   1.00
C280   C     0.72195   0.98270   0.08395   0.00000  Uiso   1.00
C281   C     0.77805   0.68396   0.24938   0.00000  Uiso   1.00
C282   C     0.51646   0.73887   0.12860   0.00000  Uiso   1.00
C283   C     0.98354   0.92780   0.20473   0.00000  Uiso   1.00
C284   C     0.74349   0.67797   0.14334   0.00000  Uiso   1.00
C285   C     0.75651   0.98870   0.19000   0.00000  Uiso   1.00
C286   C     0.66469   0.83310   0.16759   0.00000  Uiso   1.00
C287   C     0.83531   0.83357   0.16575   0.00000  Uiso   1.00
C288   C     0.90963   0.88103   0.18389   0.00000  Uiso   1.00
Cu289  Cu    0.75500   0.83913   0.22813   0.00000  Uiso   1.00
Cu290  Cu    0.74499   0.82754   0.10521   0.00000  Uiso   1.00
H291   H     0.95114   0.70195   0.11119   0.00000  Uiso   1.00
H292   H     0.54886   0.96472   0.22215   0.00000  Uiso   1.00
H293   H     0.53052   0.70161   0.11399   0.00000  Uiso   1.00
H294   H     0.96948   0.96505   0.21935   0.00000  Uiso   1.00
H295   H     0.71514   0.79257   0.31612   0.00000  Uiso   1.00
H296   H     0.78486   0.87409   0.01722   0.00000  Uiso   1.00
N297   N     0.73744   0.81881   0.01284   0.00000  Uiso   1.00
N298   N     0.76255   0.84786   0.32049   0.00000  Uiso   1.00
N299   N     0.87123   0.96797   0.21854   0.00000  Uiso   1.00
N300   N     0.62877   0.69870   0.11479   0.00000  Uiso   1.00
N301   N     0.85212   0.69989   0.10607   0.00000  Uiso   1.00
N302   N     0.64788   0.96677   0.22726   0.00000  Uiso   1.00
N303   N     0.70484   0.96025   0.03671   0.00000  Uiso   1.00
N304   N     0.79516   0.70641   0.29662   0.00000  Uiso   1.00
O305   O     0.75325   0.76204   0.20659   0.00000  Uiso   1.00
O306   O     0.74674   0.90462   0.12674   0.00000  Uiso   1.00
O307   O     0.74480   0.75226   0.10279   0.00000  Uiso   1.00
O308   O     0.75520   0.91441   0.23055   0.00000  Uiso   1.00
O309   O     0.68935   0.83821   0.21857   0.00000  Uiso   1.00
O310   O     0.81064   0.82845   0.11476   0.00000  Uiso   1.00
O311   O     0.68090   0.82843   0.11477   0.00000  Uiso   1.00
O312   O     0.81910   0.83824   0.21857   0.00000  Uiso   1.00
C313   C     0.24808   0.06681   0.48468   0.00000  Uiso   1.00
C314   C     0.09037   0.11897   0.48278   0.00000  Uiso   1.00
C315   C     0.38341   0.16703   0.49706   0.00000  Uiso   1.00
C316   C     0.11659   0.16631   0.50294   0.00000  Uiso   1.00
C317   C     0.40293   0.11963   0.47704   0.00000  Uiso   1.00
C318   C     0.09707   0.21370   0.52296   0.00000  Uiso   1.00
C319   C     0.44970   0.11925   0.47850   0.00000  Uiso   1.00
C320   C     0.05030   0.21408   0.52150   0.00000  Uiso   1.00
C321   C     0.47648   0.16676   0.49916   0.00000  Uiso   1.00
C322   C     0.02352   0.16657   0.50084   0.00000  Uiso   1.00
C323   C     0.45637   0.21445   0.51818   0.00000  Uiso   1.00
C324   C     0.25192   0.26653   0.51532   0.00000  Uiso   1.00
C325   C     0.04363   0.11889   0.48182   0.00000  Uiso   1.00
C326   C     0.47037   0.07240   0.46025   0.00000  Uiso   1.00
C327   C     0.02963   0.26094   0.53976   0.00000  Uiso   1.00
C328   C     0.38817   0.26271   0.53650   0.00000  Uiso   1.00
C329   C     0.11183   0.07062   0.46350   0.00000  Uiso   1.00
C330   C     0.37463   0.07152   0.45612   0.00000  Uiso   1.00
C331   C     0.12537   0.26181   0.54387   0.00000  Uiso   1.00
C332   C     0.22195   0.31604   0.41729   0.00000  Uiso   1.00
C333   C     0.27805   0.01730   0.58272   0.00000  Uiso   1.00
C334   C     0.01646   0.07220   0.46194   0.00000  Uiso   1.00
C335   C     0.48354   0.26113   0.53807   0.00000  Uiso   1.00
C336   C     0.24349   0.01130   0.47667   0.00000  Uiso   1.00
C337   C     0.25651   0.32203   0.52333   0.00000  Uiso   1.00
C338   C     0.16469   0.16643   0.50092   0.00000  Uiso   1.00
C339   C     0.33531   0.16690   0.49908   0.00000  Uiso   1.00
C340   C     0.40963   0.21436   0.51722   0.00000  Uiso   1.00
Cu341  Cu    0.25500   0.17246   0.56146   0.00000  Uiso   1.00
Cu342  Cu    0.24499   0.16087   0.43854   0.00000  Uiso   1.00
H343   H     0.45114   0.03528   0.44452   0.00000  Uiso   1.00
H344   H     0.04886   0.29805   0.55548   0.00000  Uiso   1.00
H345   H     0.03052   0.03495   0.44732   0.00000  Uiso   1.00
H346   H     0.46948   0.29839   0.55268   0.00000  Uiso   1.00
H347   H     0.21514   0.12591   0.64945   0.00000  Uiso   1.00
H348   H     0.28486   0.20743   0.35055   0.00000  Uiso   1.00
N349   N     0.23744   0.15214   0.34617   0.00000  Uiso   1.00
N350   N     0.26255   0.18119   0.65383   0.00000  Uiso   1.00
N351   N     0.37123   0.30130   0.55187   0.00000  Uiso   1.00
N352   N     0.12877   0.03203   0.44813   0.00000  Uiso   1.00
N353   N     0.35212   0.03323   0.43940   0.00000  Uiso   1.00
N354   N     0.14788   0.30011   0.56059   0.00000  Uiso   1.00
N355   N     0.20484   0.29359   0.37004   0.00000  Uiso   1.00
N356   N     0.29516   0.03975   0.62996   0.00000  Uiso   1.00
O357   O     0.25325   0.09538   0.53992   0.00000  Uiso   1.00
O358   O     0.24674   0.23796   0.46008   0.00000  Uiso   1.00
O359   O     0.24480   0.08559   0.43612   0.00000  Uiso   1.00
O360   O     0.25520   0.24774   0.56388   0.00000  Uiso   1.00
O361   O     0.18935   0.17155   0.55191   0.00000  Uiso   1.00
O362   O     0.31064   0.16179   0.44809   0.00000  Uiso   1.00
O363   O     0.18090   0.16176   0.44810   0.00000  Uiso   1.00
O364   O     0.31910   0.17157   0.55190   0.00000  Uiso   1.00
C365   C     0.74808   0.06681   0.48468   0.00000  Uiso   1.00
C366   C     0.59037   0.11897   0.48278   0.00000  Uiso   1.00
C367   C     0.88341   0.16703   0.49706   0.00000  Uiso   1.00
C368   C     0.61659   0.16631   0.50294   0.00000  Uiso   1.00
C369   C     0.90293   0.11963   0.47704   0.00000  Uiso   1.00
C370   C     0.59707   0.21370   0.52296   0.00000  Uiso   1.00
C371   C     0.94970   0.11925   0.47850   0.00000  Uiso   1.00
C372   C     0.55030   0.21408   0.52150   0.00000  Uiso   1.00
C373   C     0.97648   0.16676   0.49916   0.00000  Uiso   1.00
C374   C     0.52352   0.16657   0.50084   0.00000  Uiso   1.00
C375   C     0.95637   0.21445   0.51818   0.00000  Uiso   1.00
C376   C     0.75192   0.26653   0.51532   0.00000  Uiso   1.00
C377   C     0.54363   0.11889   0.48182   0.00000  Uiso   1.00
C378   C     0.97037   0.07240   0.46025   0.00000  Uiso   1.00
C379   C     0.52963   0.26094   0.53976   0.00000  Uiso   1.00
C380   C     0.88817   0.26271   0.53650   0.00000  Uiso   1.00
C381   C     0.61183   0.07062   0.46350   0.00000  Uiso   1.00
C382   C     0.87463   0.07152   0.45612   0.00000  Uiso   1.00
C383   C     0.62537   0.26181   0.54387   0.00000  Uiso   1.00
C384   C     0.72195   0.31604   0.41729   0.00000  Uiso   1.00
C385   C     0.77805   0.01730   0.58272   0.00000  Uiso   1.00
C386   C     0.51646   0.07220   0.46194   0.00000  Uiso   1.00
C387   C     0.98354   0.26113   0.53807   0.00000  Uiso   1.00
C388   C     0.74349   0.01130   0.47667   0.00000  Uiso   1.00
C389   C     0.75651   0.32203   0.52333   0.00000  Uiso   1.00
C390   C     0.66469   0.16643   0.50092   0.00000  Uiso   1.00
C391   C     0.83531   0.16690   0.49908   0.00000  Uiso   1.00
C392   C     0.90963   0.21436   0.51722   0.00000  Uiso   1.00
Cu393  Cu    0.75500   0.17246   0.56146   0.00000  Uiso   1.00
Cu394  Cu    0.74499   0.16087   0.43854   0.00000  Uiso   1.00
H395   H     0.95114   0.03528   0.44452   0.00000  Uiso   1.00
H396   H     0.54886   0.29805   0.55548   0.00000  Uiso   1.00
H397   H     0.53052   0.03495   0.44732   0.00000  Uiso   1.00
H398   H     0.96948   0.29839   0.55268   0.00000  Uiso   1.00
H399   H     0.71514   0.12591   0.64945   0.00000  Uiso   1.00
H400   H     0.78486   0.20743   0.35055   0.00000  Uiso   1.00
N401   N     0.73744   0.15214   0.34617   0.00000  Uiso   1.00
N402   N     0.76255   0.18119   0.65383   0.00000  Uiso   1.00
N403   N     0.87123   0.30130   0.55187   0.00000  Uiso   1.00
N404   N     0.62877   0.03203   0.44813   0.00000  Uiso   1.00
N405   N     0.85212   0.03323   0.43940   0.00000  Uiso   1.00
N406   N     0.64788   0.30011   0.56059   0.00000  Uiso   1.00
N407   N     0.70484   0.29359   0.37004   0.00000  Uiso   1.00
N408   N     0.79516   0.03975   0.62996   0.00000  Uiso   1.00
O409   O     0.75325   0.09538   0.53992   0.00000  Uiso   1.00
O410   O     0.74674   0.23796   0.46008   0.00000  Uiso   1.00
O411   O     0.74480   0.08559   0.43612   0.00000  Uiso   1.00
O412   O     0.75520   0.24774   0.56388   0.00000  Uiso   1.00
O413   O     0.68935   0.17155   0.55191   0.00000  Uiso   1.00
O414   O     0.81064   0.16179   0.44809   0.00000  Uiso   1.00
O415   O     0.68090   0.16176   0.44810   0.00000  Uiso   1.00
O416   O     0.81910   0.17157   0.55190   0.00000  Uiso   1.00
C417   C     0.24808   0.40014   0.48468   0.00000  Uiso   1.00
C418   C     0.09037   0.45231   0.48278   0.00000  Uiso   1.00
C419   C     0.38341   0.50036   0.49706   0.00000  Uiso   1.00
C420   C     0.11659   0.49964   0.50294   0.00000  Uiso   1.00
C421   C     0.40293   0.45296   0.47704   0.00000  Uiso   1.00
C422   C     0.09707   0.54704   0.52296   0.00000  Uiso   1.00
C423   C     0.44970   0.45259   0.47850   0.00000  Uiso   1.00
C424   C     0.05030   0.54741   0.52150   0.00000  Uiso   1.00
C425   C     0.47648   0.50009   0.49916   0.00000  Uiso   1.00
C426   C     0.02352   0.49991   0.50084   0.00000  Uiso   1.00
C427   C     0.45637   0.54778   0.51818   0.00000  Uiso   1.00
C428   C     0.25192   0.59986   0.51532   0.00000  Uiso   1.00
C429   C     0.04363   0.45222   0.48182   0.00000  Uiso   1.00
C430   C     0.47037   0.40573   0.46025   0.00000  Uiso   1.00
C431   C     0.02963   0.59427   0.53976   0.00000  Uiso   1.00
C432   C     0.38817   0.59604   0.53650   0.00000  Uiso   1.00
C433   C     0.11183   0.40396   0.46350   0.00000  Uiso   1.00
C434   C     0.37463   0.40486   0.45612   0.00000  Uiso   1.00
C435   C     0.12537   0.59514   0.54387   0.00000  Uiso   1.00
C436   C     0.22195   0.64937   0.41729   0.00000  Uiso   1.00
C437   C     0.27805   0.35063   0.58272   0.00000  Uiso   1.00
C438   C     0.01646   0.40554   0.46194   0.00000  Uiso   1.00
C439   C     0.48354   0.59446   0.53807   0.00000  Uiso   1.00
C440   C     0.24349   0.34464   0.47667   0.00000  Uiso   1.00
C441   C     0.25651   0.65536   0.52333   0.00000  Uiso   1.00
C442   C     0.16469   0.49977   0.50092   0.00000  Uiso   1.00
C443   C     0.33531   0.50023   0.49908   0.00000  Uiso   1.00
C444   C     0.40963   0.54770   0.51722   0.00000  Uiso   1.00
Cu445  Cu    0.25500   0.50579   0.56146   0.00000  Uiso   1.00
Cu446  Cu    0.24499   0.49421   0.43854   0.00000  Uiso   1.00
H447   H     0.45114   0.36862   0.44452   0.00000  Uiso   1.00
H448   H     0.04886   0.63138   0.55548   0.00000  Uiso   1.00
H449   H     0.03052   0.36828   0.44732   0.00000  Uiso   1.00
H450   H     0.46948   0.63172   0.55268   0.00000  Uiso   1.00
H451   H     0.21514   0.45924   0.64945   0.00000  Uiso   1.00
H452   H     0.28486   0.54076   0.35055   0.00000  Uiso   1.00
N453   N     0.23744   0.48547   0.34617   0.00000  Uiso   1.00
N454   N     0.26255   0.51453   0.65383   0.00000  Uiso   1.00
N455   N     0.37123   0.63464   0.55187   0.00000  Uiso   1.00
N456   N     0.12877   0.36536   0.44813   0.00000  Uiso   1.00
N457   N     0.35212   0.36656   0.43940   0.00000  Uiso   1.00
N458   N     0.14788   0.63344   0.56059   0.00000  Uiso   1.00
N459   N     0.20484   0.62692   0.37004   0.00000  Uiso   1.00
N460   N     0.29516   0.37308   0.62996   0.00000  Uiso   1.00
O461   O     0.25325   0.42871   0.53992   0.00000  Uiso   1.00
O462   O     0.24674   0.57129   0.46008   0.00000  Uiso   1.00
O463   O     0.24480   0.41892   0.43612   0.00000  Uiso   1.00
O464   O     0.25520   0.58108   0.56388   0.00000  Uiso   1.00
O465   O     0.18935   0.50488   0.55191   0.00000  Uiso   1.00
O466   O     0.31064   0.49512   0.44809   0.00000  Uiso   1.00
O467   O     0.18090   0.49510   0.44810   0.00000  Uiso   1.00
O468   O     0.31910   0.50490   0.55190   0.00000  Uiso   1.00
C469   C     0.74808   0.40014   0.48468   0.00000  Uiso   1.00
C470   C     0.59037   0.45231   0.48278   0.00000  Uiso   1.00
C471   C     0.88341   0.50036   0.49706   0.00000  Uiso   1.00
C472   C     0.61659   0.49964   0.50294   0.00000  Uiso   1.00
C473   C     0.90293   0.45296   0.47704   0.00000  Uiso   1.00
C474   C     0.59707   0.54704   0.52296   0.00000  Uiso   1.00
C475   C     0.94970   0.45259   0.47850   0.00000  Uiso   1.00
C476   C     0.55030   0.54741   0.52150   0.00000  Uiso   1.00
C477   C     0.97648   0.50009   0.49916   0.00000  Uiso   1.00
C478   C     0.52352   0.49991   0.50084   0.00000  Uiso   1.00
C479   C     0.95637   0.54778   0.51818   0.00000  Uiso   1.00
C480   C     0.75192   0.59986   0.51532   0.00000  Uiso   1.00
C481   C     0.54363   0.45222   0.48182   0.00000  Uiso   1.00
C482   C     0.97037   0.40573   0.46025   0.00000  Uiso   1.00
C483   C     0.52963   0.59427   0.53976   0.00000  Uiso   1.00
C484   C     0.88817   0.59604   0.53650   0.00000  Uiso   1.00
C485   C     0.61183   0.40396   0.46350   0.00000  Uiso   1.00
C486   C     0.87463   0.40486   0.45612   0.00000  Uiso   1.00
C487   C     0.62537   0.59514   0.54387   0.00000  Uiso   1.00
C488   C     0.72195   0.64937   0.41729   0.00000  Uiso   1.00
C489   C     0.77805   0.35063   0.58272   0.00000  Uiso   1.00
C490   C     0.51646   0.40554   0.46194   0.00000  Uiso   1.00
C491   C     0.98354   0.59446   0.53807   0.00000  Uiso   1.00
C492   C     0.74349   0.34464   0.47667   0.00000  Uiso   1.00
C493   C     0.75651   0.65536   0.52333   0.00000  Uiso   1.00
C494   C     0.66469   0.49977   0.50092   0.00000  Uiso   1.00
C495   C     0.83531   0.50023   0.49908   0.00000  Uiso   1.00
C496   C     0.90963   0.54770   0.51722   0.00000  Uiso   1.00
Cu497  Cu    0.75500   0.50579   0.56146   0.00000  Uiso   1.00
Cu498  Cu    0.74499   0.49421   0.43854   0.00000  Uiso   1.00
H499   H     0.95114   0.36862   0.44452   0.00000  Uiso   1.00
H500   H     0.54886   0.63138   0.55548   0.00000  Uiso   1.00
H501   H     0.53052   0.36828   0.44732   0.00000  Uiso   1.00
H502   H     0.96948   0.63172   0.55268   0.00000  Uiso   1.00
H503   H     0.71514   0.45924   0.64945   0.00000  Uiso   1.00
H504   H     0.78486   0.54076   0.35055   0.00000  Uiso   1.00
N505   N     0.73744   0.48547   0.34617   0.00000  Uiso   1.00
N506   N     0.76255   0.51453   0.65383   0.00000  Uiso   1.00
N507   N     0.87123   0.63464   0.55187   0.00000  Uiso   1.00
N508   N     0.62877   0.36536   0.44813   0.00000  Uiso   1.00
N509   N     0.85212   0.36656   0.43940   0.00000  Uiso   1.00
N510   N     0.64788   0.63344   0.56059   0.00000  Uiso   1.00
N511   N     0.70484   0.62692   0.37004   0.00000  Uiso   1.00
N512   N     0.79516   0.37308   0.62996   0.00000  Uiso   1.00
O513   O     0.75325   0.42871   0.53992   0.00000  Uiso   1.00
O514   O     0.74674   0.57129   0.46008   0.00000  Uiso   1.00
O515   O     0.74480   0.41892   0.43612   0.00000  Uiso   1.00
O516   O     0.75520   0.58108   0.56388   0.00000  Uiso   1.00
O517   O     0.68935   0.50488   0.55191   0.00000  Uiso   1.00
O518   O     0.81064   0.49512   0.44809   0.00000  Uiso   1.00
O519   O     0.68090   0.49510   0.44810   0.00000  Uiso   1.00
O520   O     0.81910   0.50490   0.55190   0.00000  Uiso   1.00
C521   C     0.24808   0.73347   0.48468   0.00000  Uiso   1.00
C522   C     0.09037   0.78564   0.48278   0.00000  Uiso   1.00
C523   C     0.38341   0.83369   0.49706   0.00000  Uiso   1.00
C524   C     0.11659   0.83297   0.50294   0.00000  Uiso   1.00
C525   C     0.40293   0.78630   0.47704   0.00000  Uiso   1.00
C526   C     0.09707   0.88037   0.52296   0.00000  Uiso   1.00
C527   C     0.44970   0.78592   0.47850   0.00000  Uiso   1.00
C528   C     0.05030   0.88075   0.52150   0.00000  Uiso   1.00
C529   C     0.47648   0.83343   0.49916   0.00000  Uiso   1.00
C530   C     0.02352   0.83324   0.50084   0.00000  Uiso   1.00
C531   C     0.45637   0.88111   0.51818   0.00000  Uiso   1.00
C532   C     0.25192   0.93319   0.51532   0.00000  Uiso   1.00
C533   C     0.04363   0.78555   0.48182   0.00000  Uiso   1.00
C534   C     0.47037   0.73906   0.46025   0.00000  Uiso   1.00
C535   C     0.02963   0.92761   0.53976   0.00000  Uiso   1.00
C536   C     0.38817   0.92938   0.53650   0.00000  Uiso   1.00
C537   C     0.11183   0.73729   0.46350   0.00000  Uiso   1.00
C538   C     0.37463   0.73819   0.45612   0.00000  Uiso   1.00
C539   C     0.12537   0.92848   0.54387   0.00000  Uiso   1.00
C540   C     0.22195   0.98270   0.41729   0.00000  Uiso   1.00
C541   C     0.27805   0.68396   0.58272   0.00000  Uiso   1.00
C542   C     0.01646   0.73887   0.46194   0.00000  Uiso   1.00
C543   C     0.48354   0.92780   0.53807   0.00000  Uiso   1.00
C544   C     0.24349   0.67797   0.47667   0.00000  Uiso   1.00
C545   C     0.25651   0.98870   0.52333   0.00000  Uiso   1.00
C546   C     0.16469   0.83310   0.50092   0.00000  Uiso   1.00
C547   C     0.33531   0.83357   0.49908   0.00000  Uiso   1.00
C548   C     0.40963   0.88103   0.51722   0.00000  Uiso   1.00
Cu549  Cu    0.25500   0.83913   0.56146   0.00000  Uiso   1.00
Cu550  Cu    0.24499   0.82754   0.43854   0.00000  Uiso   1.00
H551   H     0.45114   0.70195   0.44452   0.00000  Uiso   1.00
H552   H     0.04886   0.96472   0.55548   0.00000  Uiso   1.00
H553   H     0.03052   0.70161   0.44732   0.00000  Uiso   1.00
H554   H     0.46948   0.96505   0.55268   0.00000  Uiso   1.00
H555   H     0.21514   0.79257   0.64945   0.00000  Uiso   1.00
H556   H     0.28486   0.87409   0.35055   0.00000  Uiso   1.00
N557   N     0.23744   0.81881   0.34617   0.00000  Uiso   1.00
N558   N     0.26255   0.84786   0.65383   0.00000  Uiso   1.00
N559   N     0.37123   0.96797   0.55187   0.00000  Uiso   1.00
N560   N     0.12877   0.69870   0.44813   0.00000  Uiso   1.00
N561   N     0.35212   0.69989   0.43940   0.00000  Uiso   1.00
N562   N     0.14788   0.96677   0.56059   0.00000  Uiso   1.00
N563   N     0.20484   0.96025   0.37004   0.00000  Uiso   1.00
N564   N     0.29516   0.70641   0.62996   0.00000  Uiso   1.00
O565   O     0.25325   0.76204   0.53992   0.00000  Uiso   1.00
O566   O     0.24674   0.90462   0.46008   0.00000  Uiso   1.00
O567   O     0.24480   0.75226   0.43612   0.00000  Uiso   1.00
O568   O     0.25520   0.91441   0.56388   0.00000  Uiso   1.00
O569   O     0.18935   0.83821   0.55191   0.00000  Uiso   1.00
O570   O     0.31064   0.82845   0.44809   0.00000  Uiso   1.00
O571   O     0.18090   0.82843   0.44810   0.00000  Uiso   1.00
O572   O     0.31910   0.83824   0.55190   0.00000  Uiso   1.00
C573   C     0.74808   0.73347   0.48468   0.00000  Uiso   1.00
C574   C     0.59037   0.78564   0.48278   0.00000  Uiso   1.00
C575   C     0.88341   0.83369   0.49706   0.00000  Uiso   1.00
C576   C     0.61659   0.83297   0.50294   0.00000  Uiso   1.00
C577   C     0.90293   0.78630   0.47704   0.00000  Uiso   1.00
C578   C     0.59707   0.88037   0.52296   0.00000  Uiso   1.00
C579   C     0.94970   0.78592   0.47850   0.00000  Uiso   1.00
C580   C     0.55030   0.88075   0.52150   0.00000  Uiso   1.00
C581   C     0.97648   0.83343   0.49916   0.00000  Uiso   1.00
C582   C     0.52352   0.83324   0.50084   0.00000  Uiso   1.00
C583   C     0.95637   0.88111   0.51818   0.00000  Uiso   1.00
C584   C     0.75192   0.93319   0.51532   0.00000  Uiso   1.00
C585   C     0.54363   0.78555   0.48182   0.00000  Uiso   1.00
C586   C     0.97037   0.73906   0.46025   0.00000  Uiso   1.00
C587   C     0.52963   0.92761   0.53976   0.00000  Uiso   1.00
C588   C     0.88817   0.92938   0.53650   0.00000  Uiso   1.00
C589   C     0.61183   0.73729   0.46350   0.00000  Uiso   1.00
C590   C     0.87463   0.73819   0.45612   0.00000  Uiso   1.00
C591   C     0.62537   0.92848   0.54387   0.00000  Uiso   1.00
C592   C     0.72195   0.98270   0.41729   0.00000  Uiso   1.00
C593   C     0.77805   0.68396   0.58272   0.00000  Uiso   1.00
C594   C     0.51646   0.73887   0.46194   0.00000  Uiso   1.00
C595   C     0.98354   0.92780   0.53807   0.00000  Uiso   1.00
C596   C     0.74349   0.67797   0.47667   0.00000  Uiso   1.00
C597   C     0.75651   0.98870   0.52333   0.00000  Uiso   1.00
C598   C     0.66469   0.83310   0.50092   0.00000  Uiso   1.00
C599   C     0.83531   0.83357   0.49908   0.00000  Uiso   1.00
C600   C     0.90963   0.88103   0.51722   0.00000  Uiso   1.00
Cu601  Cu    0.75500   0.83913   0.56146   0.00000  Uiso   1.00
Cu602  Cu    0.74499   0.82754   0.43854   0.00000  Uiso   1.00
H603   H     0.95114   0.70195   0.44452   0.00000  Uiso   1.00
H604   H     0.54886   0.96472   0.55548   0.00000  Uiso   1.00
H605   H     0.53052   0.70161   0.44732   0.00000  Uiso   1.00
H606   H     0.96948   0.96505   0.55268   0.00000  Uiso   1.00
H607   H     0.71514   0.79257   0.64945   0.00000  Uiso   1.00
H608   H     0.78486   0.87409   0.35055   0.00000  Uiso   1.00
N609   N     0.73744   0.81881   0.34617   0.00000  Uiso   1.00
N610   N     0.76255   0.84786   0.65383   0.00000  Uiso   1.00
N611   N     0.87123   0.96797   0.55187   0.00000  Uiso   1.00
N612   N     0.62877   0.69870   0.44813   0.00000  Uiso   1.00
N613   N     0.85212   0.69989   0.43940   0.00000  Uiso   1.00
N614   N     0.64788   0.96677   0.56059   0.00000  Uiso   1.00
N615   N     0.70484   0.96025   0.37004   0.00000  Uiso   1.00
N616   N     0.79516   0.70641   0.62996   0.00000  Uiso   1.00
O617   O     0.75325   0.76204   0.53992   0.00000  Uiso   1.00
O618   O     0.74674   0.90462   0.46008   0.00000  Uiso   1.00
O619   O     0.74480   0.75226   0.43612   0.00000  Uiso   1.00
O620   O     0.75520   0.91441   0.56388   0.00000  Uiso   1.00
O621   O     0.68935   0.83821   0.55191   0.00000  Uiso   1.00
O622   O     0.81064   0.82845   0.44809   0.00000  Uiso   1.00
O623   O     0.68090   0.82843   0.44810   0.00000  Uiso   1.00
O624   O     0.81910   0.83824   0.55190   0.00000  Uiso   1.00
C625   C     0.24808   0.06681   0.81801   0.00000  Uiso   1.00
C626   C     0.09037   0.11897   0.81611   0.00000  Uiso   1.00
C627   C     0.38341   0.16703   0.83040   0.00000  Uiso   1.00
C628   C     0.11659   0.16631   0.83627   0.00000  Uiso   1.00
C629   C     0.40293   0.11963   0.81038   0.00000  Uiso   1.00
C630   C     0.09707   0.21370   0.85629   0.00000  Uiso   1.00
C631   C     0.44970   0.11925   0.81184   0.00000  Uiso   1.00
C632   C     0.05030   0.21408   0.85483   0.00000  Uiso   1.00
C633   C     0.47648   0.16676   0.83250   0.00000  Uiso   1.00
C634   C     0.02352   0.16657   0.83417   0.00000  Uiso   1.00
C635   C     0.45637   0.21445   0.85151   0.00000  Uiso   1.00
C636   C     0.25192   0.26653   0.84866   0.00000  Uiso   1.00
C637   C     0.04363   0.11889   0.81516   0.00000  Uiso   1.00
C638   C     0.47037   0.07240   0.79358   0.00000  Uiso   1.00
C639   C     0.02963   0.26094   0.87309   0.00000  Uiso   1.00
C640   C     0.38817   0.26271   0.86983   0.00000  Uiso   1.00
C641   C     0.11183   0.07062   0.79683   0.00000  Uiso   1.00
C642   C     0.37463   0.07152   0.78946   0.00000  Uiso   1.00
C643   C     0.12537   0.26181   0.87721   0.00000  Uiso   1.00
C644   C     0.22195   0.31604   0.75062   0.00000  Uiso   1.00
C645   C     0.27805   0.01730   0.91605   0.00000  Uiso   1.00
C646   C     0.01646   0.07220   0.79527   0.00000  Uiso   1.00
C647   C     0.48354   0.26113   0.87140   0.00000  Uiso   1.00
C648   C     0.24349   0.01130   0.81000   0.00000  Uiso   1.00
C649   C     0.25651   0.32203   0.85666   0.00000  Uiso   1.00
C650   C     0.16469   0.16643   0.83425   0.00000  Uiso   1.00
C651   C     0.33531   0.16690   0.83241   0.00000  Uiso   1.00
C652   C     0.40963   0.21436   0.85056   0.00000  Uiso   1.00
Cu653  Cu    0.25500   0.17246   0.89479   0.00000  Uiso   1.00
Cu654  Cu    0.24499   0.16087   0.77187   0.00000  Uiso   1.00
H655   H     0.45114   0.03528   0.77785   0.00000  Uiso   1.00
H656   H     0.04886   0.29805   0.88882   0.00000  Uiso   1.00
H657   H     0.03052   0.03495   0.78065   0.00000  Uiso   1.00
H658   H     0.46948   0.29839   0.88602   0.00000  Uiso   1.00
H659   H     0.21514   0.12591   0.98278   0.00000  Uiso   1.00
H660   H     0.28486   0.20743   0.68388   0.00000  Uiso   1.00
N661   N     0.23744   0.15214   0.67951   0.00000  Uiso   1.00
N662   N     0.26255   0.18119   0.98716   0.00000  Uiso   1.00
N663   N     0.37123   0.30130   0.88520   0.00000  Uiso   1.00
N664   N     0.12877   0.03203   0.78146   0.00000  Uiso   1.00
N665   N     0.35212   0.03323   0.77274   0.00000  Uiso   1.00
N666   N     0.14788   0.30011   0.89392   0.00000  Uiso   1.00
N667   N     0.20484   0.29359   0.70338   0.00000  Uiso   1.00
N668   N     0.29516   0.03975   0.96329   0.00000  Uiso   1.00
O669   O     0.25325   0.09538   0.87326   0.00000  Uiso   1.00
O670   O     0.24674   0.23796   0.79341   0.00000  Uiso   1.00
O671   O     0.24480   0.08559   0.76945   0.00000  Uiso   1.00
O672   O     0.25520   0.24774   0.89721   0.00000  Uiso   1.00
O673   O     0.18935   0.17155   0.88524   0.00000  Uiso   1.00
O674   O     0.31064   0.16179   0.78143   0.00000  Uiso   1.00
O675   O     0.18090   0.16176   0.78143   0.00000  Uiso   1.00
O676   O     0.31910   0.17157   0.88523   0.00000  Uiso   1.00
C677   C     0.74808   0.06681   0.81801   0.00000  Uiso   1.00
C678   C     0.59037   0.11897   0.81611   0.00000  Uiso   1.00
C679   C     0.88341   0.16703   0.83040   0.00000  Uiso   1.00
C680   C     0.61659   0.16631   0.83627   0.00000  Uiso   1.00
C681   C     0.90293   0.11963   0.81038   0.00000  Uiso   1.00
C682   C     0.59707   0.21370   0.85629   0.00000  Uiso   1.00
C683   C     0.94970   0.11925   0.81184   0.00000  Uiso   1.00
C684   C     0.55030   0.21408   0.85483   0.00000  Uiso   1.00
C685   C     0.97648   0.16676   0.83250   0.00000  Uiso   1.00
C686   C     0.52352   0.16657   0.83417   0.00000  Uiso   1.00
C687   C     0.95637   0.21445   0.85151   0.00000  Uiso   1.00
C688   C     0.75192   0.26653   0.84866   0.00000  Uiso   1.00
C689   C     0.54363   0.11889   0.81516   0.00000  Uiso   1.00
C690   C     0.97037   0.07240   0.79358   0.00000  Uiso   1.00
C691   C     0.52963   0.26094   0.87309   0.00000  Uiso   1.00
C692   C     0.88817   0.26271   0.86983   0.00000  Uiso   1.00
C693   C     0.61183   0.07062   0.79683   0.00000  Uiso   1.00
C694   C     0.87463   0.07152   0.78946   0.00000  Uiso   1.00
C695   C     0.62537   0.26181   0.87721   0.00000  Uiso   1.00
C696   C     0.72195   0.31604   0.75062   0.00000  Uiso   1.00
C697   C     0.77805   0.01730   0.91605   0.00000  Uiso   1.00
C698   C     0.51646   0.07220   0.79527   0.00000  Uiso   1.00
C699   C     0.98354   0.26113   0.87140   0.00000  Uiso   1.00
C700   C     0.74349   0.01130   0.81000   0.00000  Uiso   1.00
C701   C     0.75651   0.32203   0.85666   0.00000  Uiso   1.00
C702   C     0.66469   0.16643   0.83425   0.00000  Uiso   1.00
C703   C     0.83531   0.16690   0.83241   0.00000  Uiso   1.00
C704   C     0.90963   0.21436   0.85056   0.00000  Uiso   1.00
Cu705  Cu    0.75500   0.17246   0.89479   0.00000  Uiso   1.00
Cu706  Cu    0.74499   0.16087   0.77187   0.00000  Uiso   1.00
H707   H     0.95114   0.03528   0.77785   0.00000  Uiso   1.00
H708   H     0.54886   0.29805   0.88882   0.00000  Uiso   1.00
H709   H     0.53052   0.03495   0.78065   0.00000  Uiso   1.00
H710   H     0.96948   0.29839   0.88602   0.00000  Uiso   1.00
H711   H     0.71514   0.12591   0.98278   0.00000  Uiso   1.00
H712   H     0.78486   0.20743   0.68388   0.00000  Uiso   1.00
N713   N     0.73744   0.15214   0.67951   0.00000  Uiso   1.00
N714   N     0.76255   0.18119   0.98716   0.00000  Uiso   1.00
N715   N     0.87123   0.30130   0.88520   0.00000  Uiso   1.00
N716   N     0.62877   0.03203   0.78146   0.00000  Uiso   1.00
N717   N     0.85212   0.03323   0.77274   0.00000  Uiso   1.00
N718   N     0.64788   0.30011   0.89392   0.00000  Uiso   1.00
N719   N     0.70484   0.29359   0.70338   0.00000  Uiso   1.00
N720   N     0.79516   0.03975   0.96329   0.00000  Uiso   1.00
O721   O     0.75325   0.09538   0.87326   0.00000  Uiso   1.00
O722   O     0.74674   0.23796   0.79341   0.00000  Uiso   1.00
O723   O     0.74480   0.08559   0.76945   0.00000  Uiso   1.00
O724   O     0.75520   0.24774   0.89721   0.00000  Uiso   1.00
O725   O     0.68935   0.17155   0.88524   0.00000  Uiso   1.00
O726   O     0.81064   0.16179   0.78143   0.00000  Uiso   1.00
O727   O     0.68090   0.16176   0.78143   0.00000  Uiso   1.00
O728   O     0.81910   0.17157   0.88523   0.00000  Uiso   1.00
C729   C     0.24808   0.40014   0.81801   0.00000  Uiso   1.00
C730   C     0.09037   0.45231   0.81611   0.00000  Uiso   1.00
C731   C     0.38341   0.50036   0.83040   0.00000  Uiso   1.00
C732   C     0.11659   0.49964   0.83627   0.00000  Uiso   1.00
C733   C     0.40293   0.45296   0.81038   0.00000  Uiso   1.00
C734   C     0.09707   0.54704   0.85629   0.00000  Uiso   1.00
C735   C     0.44970   0.45259   0.81184   0.00000  Uiso   1.00
C736   C     0.05030   0.54741   0.85483   0.00000  Uiso   1.00
C737   C     0.47648   0.50009   0.83250   0.00000  Uiso   1.00
C738   C     0.02352   0.49991   0.83417   0.00000  Uiso   1.00
C739   C     0.45637   0.54778   0.85151   0.00000  Uiso   1.00
C740   C     0.25192   0.59986   0.84866   0.00000  Uiso   1.00
C741   C     0.04363   0.45222   0.81516   0.00000  Uiso   1.00
C742   C     0.47037   0.40573   0.79358   0.00000  Uiso   1.00
C743   C     0.02963   0.59427   0.87309   0.00000  Uiso   1.00
C744   C     0.38817   0.59604   0.86983   0.00000  Uiso   1.00
C745   C     0.11183   0.40396   0.79683   0.00000  Uiso   1.00
C746   C     0.37463   0.40486   0.78946   0.00000  Uiso   1.00
C747   C     0.12537   0.59514   0.87721   0.00000  Uiso   1.00
C748   C     0.22195   0.64937   0.75062   0.00000  Uiso   1.00
C749   C     0.27805   0.35063   0.91605   0.00000  Uiso   1.00
C750   C     0.01646   0.40554   0.79527   0.00000  Uiso   1.00
C751   C     0.48354   0.59446   0.87140   0.00000  Uiso   1.00
C752   C     0.24349   0.34464   0.81000   0.00000  Uiso   1.00
C753   C     0.25651   0.65536   0.85666   0.00000  Uiso   1.00
C754   C     0.16469   0.49977   0.83425   0.00000  Uiso   1.00
C755   C     0.33531   0.50023   0.83241   0.00000  Uiso   1.00
C756   C     0.40963   0.54770   0.85056   0.00000  Uiso   1.00
Cu757  Cu    0.25500   0.50579   0.89479   0.00000  Uiso   1.00
Cu758  Cu    0.24499   0.49421   0.77187   0.00000  Uiso   1.00
H759   H     0.45114   0.36862   0.77785   0.00000  Uiso   1.00
H760   H     0.04886   0.63138   0.88882   0.00000  Uiso   1.00
H761   H     0.03052   0.36828   0.78065   0.00000  Uiso   1.00
H762   H     0.46948   0.63172   0.88602   0.00000  Uiso   1.00
H763   H     0.21514   0.45924   0.98278   0.00000  Uiso   1.00
H764   H     0.28486   0.54076   0.68388   0.00000  Uiso   1.00
N765   N     0.23744   0.48547   0.67951   0.00000  Uiso   1.00
N766   N     0.26255   0.51453   0.98716   0.00000  Uiso   1.00
N767   N     0.37123   0.63464   0.88520   0.00000  Uiso   1.00
N768   N     0.12877   0.36536   0.78146   0.00000  Uiso   1.00
N769   N     0.35212   0.36656   0.77274   0.00000  Uiso   1.00
N770   N     0.14788   0.63344   0.89392   0.00000  Uiso   1.00
N771   N     0.20484   0.62692   0.70338   0.00000  Uiso   1.00
N772   N     0.29516   0.37308   0.96329   0.00000  Uiso   1.00
O773   O     0.25325   0.42871   0.87326   0.00000  Uiso   1.00
O774   O     0.24674   0.57129   0.79341   0.00000  Uiso   1.00
O775   O     0.24480   0.41892   0.76945   0.00000  Uiso   1.00
O776   O     0.25520   0.58108   0.89721   0.00000  Uiso   1.00
O777   O     0.18935   0.50488   0.88524   0.00000  Uiso   1.00
O778   O     0.31064   0.49512   0.78143   0.00000  Uiso   1.00
O779   O     0.18090   0.49510   0.78143   0.00000  Uiso   1.00
O780   O     0.31910   0.50490   0.88523   0.00000  Uiso   1.00
C781   C     0.74808   0.40014   0.81801   0.00000  Uiso   1.00
C782   C     0.59037   0.45231   0.81611   0.00000  Uiso   1.00
C783   C     0.88341   0.50036   0.83040   0.00000  Uiso   1.00
C784   C     0.61659   0.49964   0.83627   0.00000  Uiso   1.00
C785   C     0.90293   0.45296   0.81038   0.00000  Uiso   1.00
C786   C     0.59707   0.54704   0.85629   0.00000  Uiso   1.00
C787   C     0.94970   0.45259   0.81184   0.00000  Uiso   1.00
C788   C     0.55030   0.54741   0.85483   0.00000  Uiso   1.00
C789   C     0.97648   0.50009   0.83250   0.00000  Uiso   1.00
C790   C     0.52352   0.49991   0.83417   0.00000  Uiso   1.00
C791   C     0.95637   0.54778   0.85151   0.00000  Uiso   1.00
C792   C     0.75192   0.59986   0.84866   0.00000  Uiso   1.00
C793   C     0.54363   0.45222   0.81516   0.00000  Uiso   1.00
C794   C     0.97037   0.40573   0.79358   0.00000  Uiso   1.00
C795   C     0.52963   0.59427   0.87309   0.00000  Uiso   1.00
C796   C     0.88817   0.59604   0.86983   0.00000  Uiso   1.00
C797   C     0.61183   0.40396   0.79683   0.00000  Uiso   1.00
C798   C     0.87463   0.40486   0.78946   0.00000  Uiso   1.00
C799   C     0.62537   0.59514   0.87721   0.00000  Uiso   1.00
C800   C     0.72195   0.64937   0.75062   0.00000  Uiso   1.00
C801   C     0.77805   0.35063   0.91605   0.00000  Uiso   1.00
C802   C     0.51646   0.40554   0.79527   0.00000  Uiso   1.00
C803   C     0.98354   0.59446   0.87140   0.00000  Uiso   1.00
C804   C     0.74349   0.34464   0.81000   0.00000  Uiso   1.00
C805   C     0.75651   0.65536   0.85666   0.00000  Uiso   1.00
C806   C     0.66469   0.49977   0.83425   0.00000  Uiso   1.00
C807   C     0.83531   0.50023   0.83241   0.00000  Uiso   1.00
C808   C     0.90963   0.54770   0.85056   0.00000  Uiso   1.00
Cu809  Cu    0.75500   0.50579   0.89479   0.00000  Uiso   1.00
Cu810  Cu    0.74499   0.49421   0.77187   0.00000  Uiso   1.00
H811   H     0.95114   0.36862   0.77785   0.00000  Uiso   1.00
H812   H     0.54886   0.63138   0.88882   0.00000  Uiso   1.00
H813   H     0.53052   0.36828   0.78065   0.00000  Uiso   1.00
H814   H     0.96948   0.63172   0.88602   0.00000  Uiso   1.00
H815   H     0.71514   0.45924   0.98278   0.00000  Uiso   1.00
H816   H     0.78486   0.54076   0.68388   0.00000  Uiso   1.00
N817   N     0.73744   0.48547   0.67951   0.00000  Uiso   1.00
N818   N     0.76255   0.51453   0.98716   0.00000  Uiso   1.00
N819   N     0.87123   0.63464   0.88520   0.00000  Uiso   1.00
N820   N     0.62877   0.36536   0.78146   0.00000  Uiso   1.00
N821   N     0.85212   0.36656   0.77274   0.00000  Uiso   1.00
N822   N     0.64788   0.63344   0.89392   0.00000  Uiso   1.00
N823   N     0.70484   0.62692   0.70338   0.00000  Uiso   1.00
N824   N     0.79516   0.37308   0.96329   0.00000  Uiso   1.00
O825   O     0.75325   0.42871   0.87326   0.00000  Uiso   1.00
O826   O     0.74674   0.57129   0.79341   0.00000  Uiso   1.00
O827   O     0.74480   0.41892   0.76945   0.00000  Uiso   1.00
O828   O     0.75520   0.58108   0.89721   0.00000  Uiso   1.00
O829   O     0.68935   0.50488   0.88524   0.00000  Uiso   1.00
O830   O     0.81064   0.49512   0.78143   0.00000  Uiso   1.00
O831   O     0.68090   0.49510   0.78143   0.00000  Uiso   1.00
O832   O     0.81910   0.50490   0.88523   0.00000  Uiso   1.00
C833   C     0.24808   0.73347   0.81801   0.00000  Uiso   1.00
C834   C     0.09037   0.78564   0.81611   0.00000  Uiso   1.00
C835   C     0.38341   0.83369   0.83040   0.00000  Uiso   1.00
C836   C     0.11659   0.83297   0.83627   0.00000  Uiso   1.00
C837   C     0.40293   0.78630   0.81038   0.00000  Uiso   1.00
C838   C     0.09707   0.88037   0.85629   0.00000  Uiso   1.00
C839   C     0.44970   0.78592   0.81184   0.00000  Uiso   1.00
C840   C     0.05030   0.88075   0.85483   0.00000  Uiso   1.00
C841   C     0.47648   0.83343   0.83250   0.00000  Uiso   1.00
C842   C     0.02352   0.83324   0.83417   0.00000  Uiso   1.00
C843   C     0.45637   0.88111   0.85151   0.00000  Uiso   1.00
C844   C     0.25192   0.93319   0.84866   0.00000  Uiso   1.00
C845   C     0.04363   0.78555   0.81516   0.00000  Uiso   1.00
C846   C     0.47037   0.73906   0.79358   0.00000  Uiso   1.00
C847   C     0.02963   0.92761   0.87309   0.00000  Uiso   1.00
C848   C     0.38817   0.92938   0.86983   0.00000  Uiso   1.00
C849   C     0.11183   0.73729   0.79683   0.00000  Uiso   1.00
C850   C     0.37463   0.73819   0.78946   0.00000  Uiso   1.00
C851   C     0.12537   0.92848   0.87721   0.00000  Uiso   1.00
C852   C     0.22195   0.98270   0.75062   0.00000  Uiso   1.00
C853   C     0.27805   0.68396   0.91605   0.00000  Uiso   1.00
C854   C     0.01646   0.73887   0.79527   0.00000  Uiso   1.00
C855   C     0.48354   0.92780   0.87140   0.00000  Uiso   1.00
C856   C     0.24349   0.67797   0.81000   0.00000  Uiso   1.00
C857   C     0.25651   0.98870   0.85666   0.00000  Uiso   1.00
C858   C     0.16469   0.83310   0.83425   0.00000  Uiso   1.00
C859   C     0.33531   0.83357   0.83241   0.00000  Uiso   1.00
C860   C     0.40963   0.88103   0.85056   0.00000  Uiso   1.00
Cu861  Cu    0.25500   0.83913   0.89479   0.00000  Uiso   1.00
Cu862  Cu    0.24499   0.82754   0.77187   0.00000  Uiso   1.00
H863   H     0.45114   0.70195   0.77785   0.00000  Uiso   1.00
H864   H     0.04886   0.96472   0.88882   0.00000  Uiso   1.00
H865   H     0.03052   0.70161   0.78065   0.00000  Uiso   1.00
H866   H     0.46948   0.96505   0.88602   0.00000  Uiso   1.00
H867   H     0.21514   0.79257   0.98278   0.00000  Uiso   1.00
H868   H     0.28486   0.87409   0.68388   0.00000  Uiso   1.00
N869   N     0.23744   0.81881   0.67951   0.00000  Uiso   1.00
N870   N     0.26255   0.84786   0.98716   0.00000  Uiso   1.00
N871   N     0.37123   0.96797   0.88520   0.00000  Uiso   1.00
N872   N     0.12877   0.69870   0.78146   0.00000  Uiso   1.00
N873   N     0.35212   0.69989   0.77274   0.00000  Uiso   1.00
N874   N     0.14788   0.96677   0.89392   0.00000  Uiso   1.00
N875   N     0.20484   0.96025   0.70338   0.00000  Uiso   1.00
N876   N     0.29516   0.70641   0.96329   0.00000  Uiso   1.00
O877   O     0.25325   0.76204   0.87326   0.00000  Uiso   1.00
O878   O     0.24674   0.90462   0.79341   0.00000  Uiso   1.00
O879   O     0.24480   0.75226   0.76945   0.00000  Uiso   1.00
O880   O     0.25520   0.91441   0.89721   0.00000  Uiso   1.00
O881   O     0.18935   0.83821   0.88524   0.00000  Uiso   1.00
O882   O     0.31064   0.82845   0.78143   0.00000  Uiso   1.00
O883   O     0.18090   0.82843   0.78143   0.00000  Uiso   1.00
O884   O     0.31910   0.83824   0.88523   0.00000  Uiso   1.00
C885   C     0.74808   0.73347   0.81801   0.00000  Uiso   1.00
C886   C     0.59037   0.78564   0.81611   0.00000  Uiso   1.00
C887   C     0.88341   0.83369   0.83040   0.00000  Uiso   1.00
C888   C     0.61659   0.83297   0.83627   0.00000  Uiso   1.00
C889   C     0.90293   0.78630   0.81038   0.00000  Uiso   1.00
C890   C     0.59707   0.88037   0.85629   0.00000  Uiso   1.00
C891   C     0.94970   0.78592   0.81184   0.00000  Uiso   1.00
C892   C     0.55030   0.88075   0.85483   0.00000  Uiso   1.00
C893   C     0.97648   0.83343   0.83250   0.00000  Uiso   1.00
C894   C     0.52352   0.83324   0.83417   0.00000  Uiso   1.00
C895   C     0.95637   0.88111   0.85151   0.00000  Uiso   1.00
C896   C     0.75192   0.93319   0.84866   0.00000  Uiso   1.00
C897   C     0.54363   0.78555   0.81516   0.00000  Uiso   1.00
C898   C     0.97037   0.73906   0.79358   0.00000  Uiso   1.00
C899   C     0.52963   0.92761   0.87309   0.00000  Uiso   1.00
C900   C     0.88817   0.92938   0.86983   0.00000  Uiso   1.00
C901   C     0.61183   0.73729   0.79683   0.00000  Uiso   1.00
C902   C     0.87463   0.73819   0.78946   0.00000  Uiso   1.00
C903   C     0.62537   0.92848   0.87721   0.00000  Uiso   1.00
C904   C     0.72195   0.98270   0.75062   0.00000  Uiso   1.00
C905   C     0.77805   0.68396   0.91605   0.00000  Uiso   1.00
C906   C     0.51646   0.73887   0.79527   0.00000  Uiso   1.00
C907   C     0.98354   0.92780   0.87140   0.00000  Uiso   1.00
C908   C     0.74349   0.67797   0.81000   0.00000  Uiso   1.00
C909   C     0.75651   0.98870   0.85666   0.00000  Uiso   1.00
C910   C     0.66469   0.83310   0.83425   0.00000  Uiso   1.00
C911   C     0.83531   0.83357   0.83241   0.00000  Uiso   1.00
C912   C     0.90963   0.88103   0.85056   0.00000  Uiso   1.00
Cu913  Cu    0.75500   0.83913   0.89479   0.00000  Uiso   1.00
Cu914  Cu    0.74499   0.82754   0.77187   0.00000  Uiso   1.00
H915   H     0.95114   0.70195   0.77785   0.00000  Uiso   1.00
H916   H     0.54886   0.96472   0.88882   0.00000  Uiso   1.00
H917   H     0.53052   0.70161   0.78065   0.00000  Uiso   1.00
H918   H     0.96948   0.96505   0.88602   0.00000  Uiso   1.00
H919   H     0.71514   0.79257   0.98278   0.00000  Uiso   1.00
H920   H     0.78486   0.87409   0.68388   0.00000  Uiso   1.00
N921   N     0.73744   0.81881   0.67951   0.00000  Uiso   1.00
N922   N     0.76255   0.84786   0.98716   0.00000  Uiso   1.00
N923   N     0.87123   0.96797   0.88520   0.00000  Uiso   1.00
N924   N     0.62877   0.69870   0.78146   0.00000  Uiso   1.00
N925   N     0.85212   0.69989   0.77274   0.00000  Uiso   1.00
N926   N     0.64788   0.96677   0.89392   0.00000  Uiso   1.00
N927   N     0.70484   0.96025   0.70338   0.00000  Uiso   1.00
N928   N     0.79516   0.70641   0.96329   0.00000  Uiso   1.00
O929   O     0.75325   0.76204   0.87326   0.00000  Uiso   1.00
O930   O     0.74674   0.90462   0.79341   0.00000  Uiso   1.00
O931   O     0.74480   0.75226   0.76945   0.00000  Uiso   1.00
O932   O     0.75520   0.91441   0.89721   0.00000  Uiso   1.00
O933   O     0.68935   0.83821   0.88524   0.00000  Uiso   1.00
O934   O     0.81064   0.82845   0.78143   0.00000  Uiso   1.00
O935   O     0.68090   0.82843   0.78143   0.00000  Uiso   1.00
O936   O     0.81910   0.83824   0.88523   0.00000  Uiso   1.00
loop_
_geom_bond_atom_site_label_1
_geom_bond_atom_site_label_2
_geom_bond_distance
_geom_bond_site_symmetry_2
_ccdc_geom_bond_type
C1     O45     1.288   .     A
C1     C24     1.432   .     S
C1     O47     1.288   .     A
C2     C4      1.405   .     A
C2     C17     1.453   .     S
C2     C13     1.405   .     A
C3     C28     1.405   .     A
C3     C27     1.451   .     S
C3     C5      1.405   .     A
C4     C26     1.451   .     S
C4     C6      1.405   .     A
C5     C7      1.406   .     A
C5     C18     1.454   .     S
C6     C19     1.454   .     S
C6     C8      1.406   .     A
C7     C9      1.418   .     A
C7     C14     1.405   .     A
C8     C15     1.405   .     A
C8     C10     1.418   .     A
C9     C11     1.417   .     A
C9     C62     1.414   .     S
C10    C13     1.417   .     A
C10    C61     1.414   1_455 S
C11    C28     1.405   .     A
C11    C23     1.406   .     A
C12    C25     1.432   .     S
C12    O48     1.288   .     A
C12    O46     1.288   .     A
C13    C22     1.406   .     A
C14    H31     1.083   .     S
C14    C74     1.385   .     S
C15    H32     1.083   .     S
C15    C75     1.385   1_455 S
C16    C28     1.453   .     S
C16    N39     1.157   .     T
C17    N40     1.157   .     T
C18    N41     1.157   .     T
C19    N42     1.157   .     T
C20    N43     1.158   .     T
C20    C128    1.459   .     S
C21    N44     1.158   .     T
C21    C233    1.459   1_545 S
C22    H33     1.083   .     S
C22    C66     1.385   1_455 S
C23    H34     1.083   .     S
C23    C67     1.385   .     S
C24    C228    1.459   1_545 S
C24    C233    1.356   1_545 S
C25    C128    1.356   .     S
C25    C125    1.459   .     S
C26    O51     1.289   .     A
C26    O49     1.291   .     A
C27    O50     1.291   .     A
C27    O52     1.289   .     A
Cu29   N38     2.017   .     S
Cu29   O52     1.956   .     S
Cu29   O49     1.970   .     S
Cu29   Cu30    2.685   .     S
Cu29   O48     1.973   .     S
Cu29   O45     1.978   .     S
Cu30   O51     1.956   .     S
Cu30   O50     1.970   .     S
Cu30   O47     1.973   .     S
Cu30   O46     1.978   .     S
Cu30   N37     2.017   .     S
H35    N349    1.029   .     S
H36    N662    1.029   1_554 S
N37    H659    1.029   1_554 S
N37    N662    1.295   1_554 S
N38    N349    1.295   .     S
N38    H348    1.029   .     S
C53    O97     1.288   .     A
C53    C76     1.432   .     S
C53    O99     1.288   .     A
C54    C56     1.405   .     A
C54    C69     1.453   .     S
C54    C65     1.405   .     A
C55    C80     1.405   .     A
C55    C79     1.451   .     S
C55    C57     1.405   .     A
C56    C78     1.451   .     S
C56    C58     1.405   .     A
C57    C59     1.406   .     A
C57    C70     1.454   .     S
C58    C71     1.454   .     S
C58    C60     1.406   .     A
C59    C61     1.418   .     A
C59    C66     1.405   .     A
C60    C67     1.405   .     A
C60    C62     1.418   .     A
C61    C63     1.417   .     A
C61    C10     1.414   1_655 S
C62    C65     1.417   .     A
C63    C80     1.405   .     A
C63    C75     1.406   .     A
C64    C77     1.432   .     S
C64    O100    1.288   .     A
C64    O98     1.288   .     A
C65    C74     1.406   .     A
C66    H83     1.083   .     S
C66    C22     1.385   1_655 S
C67    H84     1.083   .     S
C68    C80     1.453   .     S
C68    N91     1.157   .     T
C69    N92     1.157   .     T
C70    N93     1.157   .     T
C71    N94     1.157   .     T
C72    N95     1.158   .     T
C72    C180    1.459   .     S
C73    N96     1.158   .     T
C73    C285    1.459   1_545 S
C74    H85     1.083   .     S
C75    H86     1.083   .     S
C75    C15     1.385   1_655 S
C76    C280    1.459   1_545 S
C76    C285    1.356   1_545 S
C77    C180    1.356   .     S
C77    C177    1.459   .     S
C78    O103    1.289   .     A
C78    O101    1.291   .     A
C79    O102    1.291   .     A
C79    O104    1.289   .     A
Cu81   N90     2.017   .     S
Cu81   O104    1.956   .     S
Cu81   O101    1.970   .     S
Cu81   Cu82    2.685   .     S
Cu81   O100    1.973   .     S
Cu81   O97     1.978   .     S
Cu82   O103    1.956   .     S
Cu82   O102    1.970   .     S
Cu82   O99     1.973   .     S
Cu82   O98     1.978   .     S
Cu82   N89     2.017   .     S
H87    N401    1.029   .     S
H88    N714    1.029   1_554 S
N89    H711    1.029   1_554 S
N89    N714    1.295   1_554 S
N90    N401    1.295   .     S
N90    H400    1.029   .     S
C105   O149    1.288   .     A
C105   C128    1.432   .     S
C105   O151    1.288   .     A
C106   C108    1.405   .     A
C106   C121    1.453   .     S
C106   C117    1.405   .     A
C107   C132    1.405   .     A
C107   C131    1.451   .     S
C107   C109    1.405   .     A
C108   C130    1.451   .     S
C108   C110    1.405   .     A
C109   C111    1.406   .     A
C109   C122    1.454   .     S
C110   C123    1.454   .     S
C110   C112    1.406   .     A
C111   C113    1.418   .     A
C111   C118    1.405   .     A
C112   C119    1.405   .     A
C112   C114    1.418   .     A
C113   C115    1.417   .     A
C113   C166    1.414   .     S
C114   C117    1.417   .     A
C114   C165    1.414   1_455 S
C115   C132    1.405   .     A
C115   C127    1.406   .     A
C116   C129    1.432   .     S
C116   O152    1.288   .     A
C116   O150    1.288   .     A
C117   C126    1.406   .     A
C118   H135    1.083   .     S
C118   C178    1.385   .     S
C119   H136    1.083   .     S
C119   C179    1.385   1_455 S
C120   C132    1.453   .     S
C120   N143    1.157   .     T
C121   N144    1.157   .     T
C122   N145    1.157   .     T
C123   N146    1.157   .     T
C124   N147    1.158   .     T
C124   C232    1.459   .     S
C125   N148    1.158   .     T
C126   H137    1.083   .     S
C126   C170    1.385   1_455 S
C127   H138    1.083   .     S
C127   C171    1.385   .     S
C129   C232    1.356   .     S
C129   C229    1.459   .     S
C130   O155    1.289   .     A
C130   O153    1.291   .     A
C131   O154    1.291   .     A
C131   O156    1.289   .     A
Cu133  N142    2.017   .     S
Cu133  O156    1.956   .     S
Cu133  O153    1.970   .     S
Cu133  Cu134   2.685   .     S
Cu133  O152    1.973   .     S
Cu133  O149    1.978   .     S
Cu134  O155    1.956   .     S
Cu134  O154    1.970   .     S
Cu134  O151    1.973   .     S
Cu134  O150    1.978   .     S
Cu134  N141    2.017   .     S
H139   N453    1.029   .     S
H140   N766    1.029   1_554 S
N141   H763    1.029   1_554 S
N141   N766    1.295   1_554 S
N142   N453    1.295   .     S
N142   H452    1.029   .     S
C157   O201    1.288   .     A
C157   C180    1.432   .     S
C157   O203    1.288   .     A
C158   C160    1.405   .     A
C158   C173    1.453   .     S
C158   C169    1.405   .     A
C159   C184    1.405   .     A
C159   C183    1.451   .     S
C159   C161    1.405   .     A
C160   C182    1.451   .     S
C160   C162    1.405   .     A
C161   C163    1.406   .     A
C161   C174    1.454   .     S
C162   C175    1.454   .     S
C162   C164    1.406   .     A
C163   C165    1.418   .     A
C163   C170    1.405   .     A
C164   C171    1.405   .     A
C164   C166    1.418   .     A
C165   C167    1.417   .     A
C165   C114    1.414   1_655 S
C166   C169    1.417   .     A
C167   C184    1.405   .     A
C167   C179    1.406   .     A
C168   C181    1.432   .     S
C168   O204    1.288   .     A
C168   O202    1.288   .     A
C169   C178    1.406   .     A
C170   H187    1.083   .     S
C170   C126    1.385   1_655 S
C171   H188    1.083   .     S
C172   C184    1.453   .     S
C172   N195    1.157   .     T
C173   N196    1.157   .     T
C174   N197    1.157   .     T
C175   N198    1.157   .     T
C176   N199    1.158   .     T
C176   C284    1.459   .     S
C177   N200    1.158   .     T
C178   H189    1.083   .     S
C179   H190    1.083   .     S
C179   C119    1.385   1_655 S
C181   C284    1.356   .     S
C181   C281    1.459   .     S
C182   O207    1.289   .     A
C182   O205    1.291   .     A
C183   O206    1.291   .     A
C183   O208    1.289   .     A
Cu185  N194    2.017   .     S
Cu185  O208    1.956   .     S
Cu185  O205    1.970   .     S
Cu185  Cu186   2.685   .     S
Cu185  O204    1.973   .     S
Cu185  O201    1.978   .     S
Cu186  O207    1.956   .     S
Cu186  O206    1.970   .     S
Cu186  O203    1.973   .     S
Cu186  O202    1.978   .     S
Cu186  N193    2.017   .     S
H191   N505    1.029   .     S
H192   N818    1.029   1_554 S
N193   H815    1.029   1_554 S
N193   N818    1.295   1_554 S
N194   N505    1.295   .     S
N194   H504    1.029   .     S
C209   O253    1.288   .     A
C209   C232    1.432   .     S
C209   O255    1.288   .     A
C210   C212    1.405   .     A
C210   C225    1.453   .     S
C210   C221    1.405   .     A
C211   C236    1.405   .     A
C211   C235    1.451   .     S
C211   C213    1.405   .     A
C212   C234    1.451   .     S
C212   C214    1.405   .     A
C213   C215    1.406   .     A
C213   C226    1.454   .     S
C214   C227    1.454   .     S
C214   C216    1.406   .     A
C215   C217    1.418   .     A
C215   C222    1.405   .     A
C216   C223    1.405   .     A
C216   C218    1.418   .     A
C217   C219    1.417   .     A
C217   C270    1.414   .     S
C218   C221    1.417   .     A
C218   C269    1.414   1_455 S
C219   C236    1.405   .     A
C219   C231    1.406   .     A
C220   C233    1.432   .     S
C220   O256    1.288   .     A
C220   O254    1.288   .     A
C221   C230    1.406   .     A
C222   H239    1.083   .     S
C222   C282    1.385   .     S
C223   H240    1.083   .     S
C223   C283    1.385   1_455 S
C224   C236    1.453   .     S
C224   N247    1.157   .     T
C225   N248    1.157   .     T
C226   N249    1.157   .     T
C227   N250    1.157   .     T
C228   N251    1.158   .     T
C228   C24     1.459   1_565 S
C229   N252    1.158   .     T
C230   H241    1.083   .     S
C230   C274    1.385   1_455 S
C231   H242    1.083   .     S
C231   C275    1.385   .     S
C233   C24     1.356   1_565 S
C233   C21     1.459   1_565 S
C234   O259    1.289   .     A
C234   O257    1.291   .     A
C235   O258    1.291   .     A
C235   O260    1.289   .     A
Cu237  N246    2.017   .     S
Cu237  O260    1.956   .     S
Cu237  O257    1.970   .     S
Cu237  Cu238   2.685   .     S
Cu237  O256    1.973   .     S
Cu237  O253    1.978   .     S
Cu238  O259    1.956   .     S
Cu238  O258    1.970   .     S
Cu238  O255    1.973   .     S
Cu238  O254    1.978   .     S
Cu238  N245    2.017   .     S
H243   N557    1.029   .     S
H244   N870    1.029   1_554 S
N245   H867    1.029   1_554 S
N245   N870    1.295   1_554 S
N246   N557    1.295   .     S
N246   H556    1.029   .     S
C261   O305    1.288   .     A
C261   C284    1.432   .     S
C261   O307    1.288   .     A
C262   C264    1.405   .     A
C262   C277    1.453   .     S
C262   C273    1.405   .     A
C263   C288    1.405   .     A
C263   C287    1.451   .     S
C263   C265    1.405   .     A
C264   C286    1.451   .     S
C264   C266    1.405   .     A
C265   C267    1.406   .     A
C265   C278    1.454   .     S
C266   C279    1.454   .     S
C266   C268    1.406   .     A
C267   C269    1.418   .     A
C267   C274    1.405   .     A
C268   C275    1.405   .     A
C268   C270    1.418   .     A
C269   C271    1.417   .     A
C269   C218    1.414   1_655 S
C270   C273    1.417   .     A
C271   C288    1.405   .     A
C271   C283    1.406   .     A
C272   C285    1.432   .     S
C272   O308    1.288   .     A
C272   O306    1.288   .     A
C273   C282    1.406   .     A
C274   H291    1.083   .     S
C274   C230    1.385   1_655 S
C275   H292    1.083   .     S
C276   C288    1.453   .     S
C276   N299    1.157   .     T
C277   N300    1.157   .     T
C278   N301    1.157   .     T
C279   N302    1.157   .     T
C280   N303    1.158   .     T
C280   C76     1.459   1_565 S
C281   N304    1.158   .     T
C282   H293    1.083   .     S
C283   H294    1.083   .     S
C283   C223    1.385   1_655 S
C285   C76     1.356   1_565 S
C285   C73     1.459   1_565 S
C286   O311    1.289   .     A
C286   O309    1.291   .     A
C287   O310    1.291   .     A
C287   O312    1.289   .     A
Cu289  N298    2.017   .     S
Cu289  O312    1.956   .     S
Cu289  O309    1.970   .     S
Cu289  Cu290   2.685   .     S
Cu289  O308    1.973   .     S
Cu289  O305    1.978   .     S
Cu290  O311    1.956   .     S
Cu290  O310    1.970   .     S
Cu290  O307    1.973   .     S
Cu290  O306    1.978   .     S
Cu290  N297    2.017   .     S
H295   N609    1.029   .     S
H296   N922    1.029   1_554 S
N297   H919    1.029   1_554 S
N297   N922    1.295   1_554 S
N298   N609    1.295   .     S
N298   H608    1.029   .     S
C313   O357    1.288   .     A
C313   C336    1.432   .     S
C313   O359    1.288   .     A
C314   C316    1.405   .     A
C314   C329    1.453   .     S
C314   C325    1.405   .     A
C315   C340    1.405   .     A
C315   C339    1.451   .     S
C315   C317    1.405   .     A
C316   C338    1.451   .     S
C316   C318    1.405   .     A
C317   C319    1.406   .     A
C317   C330    1.454   .     S
C318   C331    1.454   .     S
C318   C320    1.406   .     A
C319   C321    1.418   .     A
C319   C326    1.405   .     A
C320   C327    1.405   .     A
C320   C322    1.418   .     A
C321   C323    1.417   .     A
C321   C374    1.414   .     S
C322   C325    1.417   .     A
C322   C373    1.414   1_455 S
C323   C340    1.405   .     A
C323   C335    1.406   .     A
C324   C337    1.432   .     S
C324   O360    1.288   .     A
C324   O358    1.288   .     A
C325   C334    1.406   .     A
C326   H343    1.083   .     S
C326   C386    1.385   .     S
C327   H344    1.083   .     S
C327   C387    1.385   1_455 S
C328   C340    1.453   .     S
C328   N351    1.157   .     T
C329   N352    1.157   .     T
C330   N353    1.157   .     T
C331   N354    1.157   .     T
C332   N355    1.158   .     T
C332   C440    1.459   .     S
C333   N356    1.158   .     T
C333   C545    1.459   1_545 S
C334   H345    1.083   .     S
C334   C378    1.385   1_455 S
C335   H346    1.083   .     S
C335   C379    1.385   .     S
C336   C540    1.459   1_545 S
C336   C545    1.356   1_545 S
C337   C440    1.356   .     S
C337   C437    1.459   .     S
C338   O363    1.289   .     A
C338   O361    1.291   .     A
C339   O362    1.291   .     A
C339   O364    1.289   .     A
Cu341  N350    2.017   .     S
Cu341  O364    1.956   .     S
Cu341  O361    1.970   .     S
Cu341  Cu342   2.685   .     S
Cu341  O360    1.973   .     S
Cu341  O357    1.978   .     S
Cu342  O363    1.956   .     S
Cu342  O362    1.970   .     S
Cu342  O359    1.973   .     S
Cu342  O358    1.978   .     S
Cu342  N349    2.017   .     S
H347   N661    1.029   .     S
N350   N661    1.295   .     S
N350   H660    1.029   .     S
C365   O409    1.288   .     A
C365   C388    1.432   .     S
C365   O411    1.288   .     A
C366   C368    1.405   .     A
C366   C381    1.453   .     S
C366   C377    1.405   .     A
C367   C392    1.405   .     A
C367   C391    1.451   .     S
C367   C369    1.405   .     A
C368   C390    1.451   .     S
C368   C370    1.405   .     A
C369   C371    1.406   .     A
C369   C382    1.454   .     S
C370   C383    1.454   .     S
C370   C372    1.406   .     A
C371   C373    1.418   .     A
C371   C378    1.405   .     A
C372   C379    1.405   .     A
C372   C374    1.418   .     A
C373   C375    1.417   .     A
C373   C322    1.414   1_655 S
C374   C377    1.417   .     A
C375   C392    1.405   .     A
C375   C387    1.406   .     A
C376   C389    1.432   .     S
C376   O412    1.288   .     A
C376   O410    1.288   .     A
C377   C386    1.406   .     A
C378   H395    1.083   .     S
C378   C334    1.385   1_655 S
C379   H396    1.083   .     S
C380   C392    1.453   .     S
C380   N403    1.157   .     T
C381   N404    1.157   .     T
C382   N405    1.157   .     T
C383   N406    1.157   .     T
C384   N407    1.158   .     T
C384   C492    1.459   .     S
C385   N408    1.158   .     T
C385   C597    1.459   1_545 S
C386   H397    1.083   .     S
C387   H398    1.083   .     S
C387   C327    1.385   1_655 S
C388   C592    1.459   1_545 S
C388   C597    1.356   1_545 S
C389   C492    1.356   .     S
C389   C489    1.459   .     S
C390   O415    1.289   .     A
C390   O413    1.291   .     A
C391   O414    1.291   .     A
C391   O416    1.289   .     A
Cu393  N402    2.017   .     S
Cu393  O416    1.956   .     S
Cu393  O413    1.970   .     S
Cu393  Cu394   2.685   .     S
Cu393  O412    1.973   .     S
Cu393  O409    1.978   .     S
Cu394  O415    1.956   .     S
Cu394  O414    1.970   .     S
Cu394  O411    1.973   .     S
Cu394  O410    1.978   .     S
Cu394  N401    2.017   .     S
H399   N713    1.029   .     S
N402   N713    1.295   .     S
N402   H712    1.029   .     S
C417   O461    1.288   .     A
C417   C440    1.432   .     S
C417   O463    1.288   .     A
C418   C420    1.405   .     A
C418   C433    1.453   .     S
C418   C429    1.405   .     A
C419   C444    1.405   .     A
C419   C443    1.451   .     S
C419   C421    1.405   .     A
C420   C442    1.451   .     S
C420   C422    1.405   .     A
C421   C423    1.406   .     A
C421   C434    1.454   .     S
C422   C435    1.454   .     S
C422   C424    1.406   .     A
C423   C425    1.418   .     A
C423   C430    1.405   .     A
C424   C431    1.405   .     A
C424   C426    1.418   .     A
C425   C427    1.417   .     A
C425   C478    1.414   .     S
C426   C429    1.417   .     A
C426   C477    1.414   1_455 S
C427   C444    1.405   .     A
C427   C439    1.406   .     A
C428   C441    1.432   .     S
C428   O464    1.288   .     A
C428   O462    1.288   .     A
C429   C438    1.406   .     A
C430   H447    1.083   .     S
C430   C490    1.385   .     S
C431   H448    1.083   .     S
C431   C491    1.385   1_455 S
C432   C444    1.453   .     S
C432   N455    1.157   .     T
C433   N456    1.157   .     T
C434   N457    1.157   .     T
C435   N458    1.157   .     T
C436   N459    1.158   .     T
C436   C544    1.459   .     S
C437   N460    1.158   .     T
C438   H449    1.083   .     S
C438   C482    1.385   1_455 S
C439   H450    1.083   .     S
C439   C483    1.385   .     S
C441   C544    1.356   .     S
C441   C541    1.459   .     S
C442   O467    1.289   .     A
C442   O465    1.291   .     A
C443   O466    1.291   .     A
C443   O468    1.289   .     A
Cu445  N454    2.017   .     S
Cu445  O468    1.956   .     S
Cu445  O465    1.970   .     S
Cu445  Cu446   2.685   .     S
Cu445  O464    1.973   .     S
Cu445  O461    1.978   .     S
Cu446  O467    1.956   .     S
Cu446  O466    1.970   .     S
Cu446  O463    1.973   .     S
Cu446  O462    1.978   .     S
Cu446  N453    2.017   .     S
H451   N765    1.029   .     S
N454   N765    1.295   .     S
N454   H764    1.029   .     S
C469   O513    1.288   .     A
C469   C492    1.432   .     S
C469   O515    1.288   .     A
C470   C472    1.405   .     A
C470   C485    1.453   .     S
C470   C481    1.405   .     A
C471   C496    1.405   .     A
C471   C495    1.451   .     S
C471   C473    1.405   .     A
C472   C494    1.451   .     S
C472   C474    1.405   .     A
C473   C475    1.406   .     A
C473   C486    1.454   .     S
C474   C487    1.454   .     S
C474   C476    1.406   .     A
C475   C477    1.418   .     A
C475   C482    1.405   .     A
C476   C483    1.405   .     A
C476   C478    1.418   .     A
C477   C479    1.417   .     A
C477   C426    1.414   1_655 S
C478   C481    1.417   .     A
C479   C496    1.405   .     A
C479   C491    1.406   .     A
C480   C493    1.432   .     S
C480   O516    1.288   .     A
C480   O514    1.288   .     A
C481   C490    1.406   .     A
C482   H499    1.083   .     S
C482   C438    1.385   1_655 S
C483   H500    1.083   .     S
C484   C496    1.453   .     S
C484   N507    1.157   .     T
C485   N508    1.157   .     T
C486   N509    1.157   .     T
C487   N510    1.157   .     T
C488   N511    1.158   .     T
C488   C596    1.459   .     S
C489   N512    1.158   .     T
C490   H501    1.083   .     S
C491   H502    1.083   .     S
C491   C431    1.385   1_655 S
C493   C596    1.356   .     S
C493   C593    1.459   .     S
C494   O519    1.289   .     A
C494   O517    1.291   .     A
C495   O518    1.291   .     A
C495   O520    1.289   .     A
Cu497  N506    2.017   .     S
Cu497  O520    1.956   .     S
Cu497  O517    1.970   .     S
Cu497  Cu498   2.685   .     S
Cu497  O516    1.973   .     S
Cu497  O513    1.978   .     S
Cu498  O519    1.956   .     S
Cu498  O518    1.970   .     S
Cu498  O515    1.973   .     S
Cu498  O514    1.978   .     S
Cu498  N505    2.017   .     S
H503   N817    1.029   .     S
N506   N817    1.295   .     S
N506   H816    1.029   .     S
C521   O565    1.288   .     A
C521   C544    1.432   .     S
C521   O567    1.288   .     A
C522   C524    1.405   .     A
C522   C537    1.453   .     S
C522   C533    1.405   .     A
C523   C548    1.405   .     A
C523   C547    1.451   .     S
C523   C525    1.405   .     A
C524   C546    1.451   .     S
C524   C526    1.405   .     A
C525   C527    1.406   .     A
C525   C538    1.454   .     S
C526   C539    1.454   .     S
C526   C528    1.406   .     A
C527   C529    1.418   .     A
C527   C534    1.405   .     A
C528   C535    1.405   .     A
C528   C530    1.418   .     A
C529   C531    1.417   .     A
C529   C582    1.414   .     S
C530   C533    1.417   .     A
C530   C581    1.414   1_455 S
C531   C548    1.405   .     A
C531   C543    1.406   .     A
C532   C545    1.432   .     S
C532   O568    1.288   .     A
C532   O566    1.288   .     A
C533   C542    1.406   .     A
C534   H551    1.083   .     S
C534   C594    1.385   .     S
C535   H552    1.083   .     S
C535   C595    1.385   1_455 S
C536   C548    1.453   .     S
C536   N559    1.157   .     T
C537   N560    1.157   .     T
C538   N561    1.157   .     T
C539   N562    1.157   .     T
C540   N563    1.158   .     T
C540   C336    1.459   1_565 S
C541   N564    1.158   .     T
C542   H553    1.083   .     S
C542   C586    1.385   1_455 S
C543   H554    1.083   .     S
C543   C587    1.385   .     S
C545   C336    1.356   1_565 S
C545   C333    1.459   1_565 S
C546   O571    1.289   .     A
C546   O569    1.291   .     A
C547   O570    1.291   .     A
C547   O572    1.289   .     A
Cu549  N558    2.017   .     S
Cu549  O572    1.956   .     S
Cu549  O569    1.970   .     S
Cu549  Cu550   2.685   .     S
Cu549  O568    1.973   .     S
Cu549  O565    1.978   .     S
Cu550  O571    1.956   .     S
Cu550  O570    1.970   .     S
Cu550  O567    1.973   .     S
Cu550  O566    1.978   .     S
Cu550  N557    2.017   .     S
H555   N869    1.029   .     S
N558   N869    1.295   .     S
N558   H868    1.029   .     S
C573   O617    1.288   .     A
C573   C596    1.432   .     S
C573   O619    1.288   .     A
C574   C576    1.405   .     A
C574   C589    1.453   .     S
C574   C585    1.405   .     A
C575   C600    1.405   .     A
C575   C599    1.451   .     S
C575   C577    1.405   .     A
C576   C598    1.451   .     S
C576   C578    1.405   .     A
C577   C579    1.406   .     A
C577   C590    1.454   .     S
C578   C591    1.454   .     S
C578   C580    1.406   .     A
C579   C581    1.418   .     A
C579   C586    1.405   .     A
C580   C587    1.405   .     A
C580   C582    1.418   .     A
C581   C583    1.417   .     A
C581   C530    1.414   1_655 S
C582   C585    1.417   .     A
C583   C600    1.405   .     A
C583   C595    1.406   .     A
C584   C597    1.432   .     S
C584   O620    1.288   .     A
C584   O618    1.288   .     A
C585   C594    1.406   .     A
C586   H603    1.083   .     S
C586   C542    1.385   1_655 S
C587   H604    1.083   .     S
C588   C600    1.453   .     S
C588   N611    1.157   .     T
C589   N612    1.157   .     T
C590   N613    1.157   .     T
C591   N614    1.157   .     T
C592   N615    1.158   .     T
C592   C388    1.459   1_565 S
C593   N616    1.158   .     T
C594   H605    1.083   .     S
C595   H606    1.083   .     S
C595   C535    1.385   1_655 S
C597   C388    1.356   1_565 S
C597   C385    1.459   1_565 S
C598   O623    1.289   .     A
C598   O621    1.291   .     A
C599   O622    1.291   .     A
C599   O624    1.289   .     A
Cu601  N610    2.017   .     S
Cu601  O624    1.956   .     S
Cu601  O621    1.970   .     S
Cu601  Cu602   2.685   .     S
Cu601  O620    1.973   .     S
Cu601  O617    1.978   .     S
Cu602  O623    1.956   .     S
Cu602  O622    1.970   .     S
Cu602  O619    1.973   .     S
Cu602  O618    1.978   .     S
Cu602  N609    2.017   .     S
H607   N921    1.029   .     S
N610   N921    1.295   .     S
N610   H920    1.029   .     S
C625   O669    1.288   .     A
C625   C648    1.432   .     S
C625   O671    1.288   .     A
C626   C628    1.405   .     A
C626   C641    1.453   .     S
C626   C637    1.405   .     A
C627   C652    1.405   .     A
C627   C651    1.451   .     S
C627   C629    1.405   .     A
C628   C650    1.451   .     S
C628   C630    1.405   .     A
C629   C631    1.406   .     A
C629   C642    1.454   .     S
C630   C643    1.454   .     S
C630   C632    1.406   .     A
C631   C633    1.418   .     A
C631   C638    1.405   .     A
C632   C639    1.405   .     A
C632   C634    1.418   .     A
C633   C635    1.417   .     A
C633   C686    1.414   .     S
C634   C637    1.417   .     A
C634   C685    1.414   1_455 S
C635   C652    1.405   .     A
C635   C647    1.406   .     A
C636   C649    1.432   .     S
C636   O672    1.288   .     A
C636   O670    1.288   .     A
C637   C646    1.406   .     A
C638   H655    1.083   .     S
C638   C698    1.385   .     S
C639   H656    1.083   .     S
C639   C699    1.385   1_455 S
C640   C652    1.453   .     S
C640   N663    1.157   .     T
C641   N664    1.157   .     T
C642   N665    1.157   .     T
C643   N666    1.157   .     T
C644   N667    1.158   .     T
C644   C752    1.459   .     S
C645   N668    1.158   .     T
C645   C857    1.459   1_545 S
C646   H657    1.083   .     S
C646   C690    1.385   1_455 S
C647   H658    1.083   .     S
C647   C691    1.385   .     S
C648   C852    1.459   1_545 S
C648   C857    1.356   1_545 S
C649   C752    1.356   .     S
C649   C749    1.459   .     S
C650   O675    1.289   .     A
C650   O673    1.291   .     A
C651   O674    1.291   .     A
C651   O676    1.289   .     A
Cu653  N662    2.017   .     S
Cu653  O676    1.956   .     S
Cu653  O673    1.970   .     S
Cu653  Cu654   2.685   .     S
Cu653  O672    1.973   .     S
Cu653  O669    1.978   .     S
Cu654  O675    1.956   .     S
Cu654  O674    1.970   .     S
Cu654  O671    1.973   .     S
Cu654  O670    1.978   .     S
Cu654  N661    2.017   .     S
H659   N37     1.029   1_556 S
N662   N37     1.295   1_556 S
N662   H36     1.029   1_556 S
C677   O721    1.288   .     A
C677   C700    1.432   .     S
C677   O723    1.288   .     A
C678   C680    1.405   .     A
C678   C693    1.453   .     S
C678   C689    1.405   .     A
C679   C704    1.405   .     A
C679   C703    1.451   .     S
C679   C681    1.405   .     A
C680   C702    1.451   .     S
C680   C682    1.405   .     A
C681   C683    1.406   .     A
C681   C694    1.454   .     S
C682   C695    1.454   .     S
C682   C684    1.406   .     A
C683   C685    1.418   .     A
C683   C690    1.405   .     A
C684   C691    1.405   .     A
C684   C686    1.418   .     A
C685   C687    1.417   .     A
C685   C634    1.414   1_655 S
C686   C689    1.417   .     A
C687   C704    1.405   .     A
C687   C699    1.406   .     A
C688   C701    1.432   .     S
C688   O724    1.288   .     A
C688   O722    1.288   .     A
C689   C698    1.406   .     A
C690   H707    1.083   .     S
C690   C646    1.385   1_655 S
C691   H708    1.083   .     S
C692   C704    1.453   .     S
C692   N715    1.157   .     T
C693   N716    1.157   .     T
C694   N717    1.157   .     T
C695   N718    1.157   .     T
C696   N719    1.158   .     T
C696   C804    1.459   .     S
C697   N720    1.158   .     T
C697   C909    1.459   1_545 S
C698   H709    1.083   .     S
C699   H710    1.083   .     S
C699   C639    1.385   1_655 S
C700   C904    1.459   1_545 S
C700   C909    1.356   1_545 S
C701   C804    1.356   .     S
C701   C801    1.459   .     S
C702   O727    1.289   .     A
C702   O725    1.291   .     A
C703   O726    1.291   .     A
C703   O728    1.289   .     A
Cu705  N714    2.017   .     S
Cu705  O728    1.956   .     S
Cu705  O725    1.970   .     S
Cu705  Cu706   2.685   .     S
Cu705  O724    1.973   .     S
Cu705  O721    1.978   .     S
Cu706  O727    1.956   .     S
Cu706  O726    1.970   .     S
Cu706  O723    1.973   .     S
Cu706  O722    1.978   .     S
Cu706  N713    2.017   .     S
H711   N89     1.029   1_556 S
N714   N89     1.295   1_556 S
N714   H88     1.029   1_556 S
C729   O773    1.288   .     A
C729   C752    1.432   .     S
C729   O775    1.288   .     A
C730   C732    1.405   .     A
C730   C745    1.453   .     S
C730   C741    1.405   .     A
C731   C756    1.405   .     A
C731   C755    1.451   .     S
C731   C733    1.405   .     A
C732   C754    1.451   .     S
C732   C734    1.405   .     A
C733   C735    1.406   .     A
C733   C746    1.454   .     S
C734   C747    1.454   .     S
C734   C736    1.406   .     A
C735   C737    1.418   .     A
C735   C742    1.405   .     A
C736   C743    1.405   .     A
C736   C738    1.418   .     A
C737   C739    1.417   .     A
C737   C790    1.414   .     S
C738   C741    1.417   .     A
C738   C789    1.414   1_455 S
C739   C756    1.405   .     A
C739   C751    1.406   .     A
C740   C753    1.432   .     S
C740   O776    1.288   .     A
C740   O774    1.288   .     A
C741   C750    1.406   .     A
C742   H759    1.083   .     S
C742   C802    1.385   .     S
C743   H760    1.083   .     S
C743   C803    1.385   1_455 S
C744   C756    1.453   .     S
C744   N767    1.157   .     T
C745   N768    1.157   .     T
C746   N769    1.157   .     T
C747   N770    1.157   .     T
C748   N771    1.158   .     T
C748   C856    1.459   .     S
C749   N772    1.158   .     T
C750   H761    1.083   .     S
C750   C794    1.385   1_455 S
C751   H762    1.083   .     S
C751   C795    1.385   .     S
C753   C856    1.356   .     S
C753   C853    1.459   .     S
C754   O779    1.289   .     A
C754   O777    1.291   .     A
C755   O778    1.291   .     A
C755   O780    1.289   .     A
Cu757  N766    2.017   .     S
Cu757  O780    1.956   .     S
Cu757  O777    1.970   .     S
Cu757  Cu758   2.685   .     S
Cu757  O776    1.973   .     S
Cu757  O773    1.978   .     S
Cu758  O779    1.956   .     S
Cu758  O778    1.970   .     S
Cu758  O775    1.973   .     S
Cu758  O774    1.978   .     S
Cu758  N765    2.017   .     S
H763   N141    1.029   1_556 S
N766   N141    1.295   1_556 S
N766   H140    1.029   1_556 S
C781   O825    1.288   .     A
C781   C804    1.432   .     S
C781   O827    1.288   .     A
C782   C784    1.405   .     A
C782   C797    1.453   .     S
C782   C793    1.405   .     A
C783   C808    1.405   .     A
C783   C807    1.451   .     S
C783   C785    1.405   .     A
C784   C806    1.451   .     S
C784   C786    1.405   .     A
C785   C787    1.406   .     A
C785   C798    1.454   .     S
C786   C799    1.454   .     S
C786   C788    1.406   .     A
C787   C789    1.418   .     A
C787   C794    1.405   .     A
C788   C795    1.405   .     A
C788   C790    1.418   .     A
C789   C791    1.417   .     A
C789   C738    1.414   1_655 S
C790   C793    1.417   .     A
C791   C808    1.405   .     A
C791   C803    1.406   .     A
C792   C805    1.432   .     S
C792   O828    1.288   .     A
C792   O826    1.288   .     A
C793   C802    1.406   .     A
C794   H811    1.083   .     S
C794   C750    1.385   1_655 S
C795   H812    1.083   .     S
C796   C808    1.453   .     S
C796   N819    1.157   .     T
C797   N820    1.157   .     T
C798   N821    1.157   .     T
C799   N822    1.157   .     T
C800   N823    1.158   .     T
C800   C908    1.459   .     S
C801   N824    1.158   .     T
C802   H813    1.083   .     S
C803   H814    1.083   .     S
C803   C743    1.385   1_655 S
C805   C908    1.356   .     S
C805   C905    1.459   .     S
C806   O831    1.289   .     A
C806   O829    1.291   .     A
C807   O830    1.291   .     A
C807   O832    1.289   .     A
Cu809  N818    2.017   .     S
Cu809  O832    1.956   .     S
Cu809  O829    1.970   .     S
Cu809  Cu810   2.685   .     S
Cu809  O828    1.973   .     S
Cu809  O825    1.978   .     S
Cu810  O831    1.956   .     S
Cu810  O830    1.970   .     S
Cu810  O827    1.973   .     S
Cu810  O826    1.978   .     S
Cu810  N817    2.017   .     S
H815   N193    1.029   1_556 S
N818   N193    1.295   1_556 S
N818   H192    1.029   1_556 S
C833   O877    1.288   .     A
C833   C856    1.432   .     S
C833   O879    1.288   .     A
C834   C836    1.405   .     A
C834   C849    1.453   .     S
C834   C845    1.405   .     A
C835   C860    1.405   .     A
C835   C859    1.451   .     S
C835   C837    1.405   .     A
C836   C858    1.451   .     S
C836   C838    1.405   .     A
C837   C839    1.406   .     A
C837   C850    1.454   .     S
C838   C851    1.454   .     S
C838   C840    1.406   .     A
C839   C841    1.418   .     A
C839   C846    1.405   .     A
C840   C847    1.405   .     A
C840   C842    1.418   .     A
C841   C843    1.417   .     A
C841   C894    1.414   .     S
C842   C845    1.417   .     A
C842   C893    1.414   1_455 S
C843   C860    1.405   .     A
C843   C855    1.406   .     A
C844   C857    1.432   .     S
C844   O880    1.288   .     A
C844   O878    1.288   .     A
C845   C854    1.406   .     A
C846   H863    1.083   .     S
C846   C906    1.385   .     S
C847   H864    1.083   .     S
C847   C907    1.385   1_455 S
C848   C860    1.453   .     S
C848   N871    1.157   .     T
C849   N872    1.157   .     T
C850   N873    1.157   .     T
C851   N874    1.157   .     T
C852   N875    1.158   .     T
C852   C648    1.459   1_565 S
C853   N876    1.158   .     T
C854   H865    1.083   .     S
C854   C898    1.385   1_455 S
C855   H866    1.083   .     S
C855   C899    1.385   .     S
C857   C648    1.356   1_565 S
C857   C645    1.459   1_565 S
C858   O883    1.289   .     A
C858   O881    1.291   .     A
C859   O882    1.291   .     A
C859   O884    1.289   .     A
Cu861  N870    2.017   .     S
Cu861  O884    1.956   .     S
Cu861  O881    1.970   .     S
Cu861  Cu862   2.685   .     S
Cu861  O880    1.973   .     S
Cu861  O877    1.978   .     S
Cu862  O883    1.956   .     S
Cu862  O882    1.970   .     S
Cu862  O879    1.973   .     S
Cu862  O878    1.978   .     S
Cu862  N869    2.017   .     S
H867   N245    1.029   1_556 S
N870   N245    1.295   1_556 S
N870   H244    1.029   1_556 S
C885   O929    1.288   .     A
C885   C908    1.432   .     S
C885   O931    1.288   .     A
C886   C888    1.405   .     A
C886   C901    1.453   .     S
C886   C897    1.405   .     A
C887   C912    1.405   .     A
C887   C911    1.451   .     S
C887   C889    1.405   .     A
C888   C910    1.451   .     S
C888   C890    1.405   .     A
C889   C891    1.406   .     A
C889   C902    1.454   .     S
C890   C903    1.454   .     S
C890   C892    1.406   .     A
C891   C893    1.418   .     A
C891   C898    1.405   .     A
C892   C899    1.405   .     A
C892   C894    1.418   .     A
C893   C895    1.417   .     A
C893   C842    1.414   1_655 S
C894   C897    1.417   .     A
C895   C912    1.405   .     A
C895   C907    1.406   .     A
C896   C909    1.432   .     S
C896   O932    1.288   .     A
C896   O930    1.288   .     A
C897   C906    1.406   .     A
C898   H915    1.083   .     S
C898   C854    1.385   1_655 S
C899   H916    1.083   .     S
C900   C912    1.453   .     S
C900   N923    1.157   .     T
C901   N924    1.157   .     T
C902   N925    1.157   .     T
C903   N926    1.157   .     T
C904   N927    1.158   .     T
C904   C700    1.459   1_565 S
C905   N928    1.158   .     T
C906   H917    1.083   .     S
C907   H918    1.083   .     S
C907   C847    1.385   1_655 S
C909   C700    1.356   1_565 S
C909   C697    1.459   1_565 S
C910   O935    1.289   .     A
C910   O933    1.291   .     A
C911   O934    1.291   .     A
C911   O936    1.289   .     A
Cu913  N922    2.017   .     S
Cu913  O936    1.956   .     S
Cu913  O933    1.970   .     S
Cu913  Cu914   2.685   .     S
Cu913  O932    1.973   .     S
Cu913  O929    1.978   .     S
Cu914  O935    1.956   .     S
Cu914  O934    1.970   .     S
Cu914  O931    1.973   .     S
Cu914  O930    1.978   .     S
Cu914  N921    2.017   .     S
H919   N297    1.029   1_556 S
N922   N297    1.295   1_556 S
N922   H296    1.029   1_556 S
