data_str_m2_o10_o17_pcu_sym.107
_audit_creation_date              2020-01-03
_audit_creation_method            'Materials Studio'
_symmetry_space_group_name_H-M    'P1'
_symmetry_Int_Tables_number       1
_symmetry_cell_setting            triclinic
loop_
_symmetry_equiv_pos_as_xyz
  x,y,z
_cell_length_a                    30.1348
_cell_length_b                    26.1898
_cell_length_c                    22.2988
_cell_angle_alpha                 102.8330
_cell_angle_beta                  94.2238
_cell_angle_gamma                 92.6298
loop_
_atom_site_label
_atom_site_type_symbol
_atom_site_fract_x
_atom_site_fract_y
_atom_site_fract_z
_atom_site_U_iso_or_equiv
_atom_site_adp_type
_atom_site_occupancy
C1     C     0.24866   0.06669   0.15121   0.00000  Uiso   1.00
C2     C     0.25133   0.26664   0.18212   0.00000  Uiso   1.00
C3     C     0.01658   0.12912   0.05637   0.00000  Uiso   1.00
C4     C     0.48342   0.20422   0.27696   0.00000  Uiso   1.00
C5     C     0.24807   0.01103   0.14236   0.00000  Uiso   1.00
C6     C     0.25193   0.32231   0.19097   0.00000  Uiso   1.00
C7     C     0.16435   0.16659   0.16747   0.00000  Uiso   1.00
C8     C     0.33565   0.16675   0.16586   0.00000  Uiso   1.00
C9     C     0.41073   0.18553   0.22031   0.00000  Uiso   1.00
C10    C     0.08927   0.14781   0.11302   0.00000  Uiso   1.00
C11    C     0.38403   0.16707   0.16474   0.00000  Uiso   1.00
C12    C     0.11597   0.16626   0.16859   0.00000  Uiso   1.00
C13    C     0.40371   0.14867   0.10940   0.00000  Uiso   1.00
C14    C     0.09629   0.18467   0.22393   0.00000  Uiso   1.00
C15    C     0.45009   0.14829   0.10990   0.00000  Uiso   1.00
C16    C     0.04991   0.18505   0.22344   0.00000  Uiso   1.00
C17    C     0.47672   0.16683   0.16615   0.00000  Uiso   1.00
C18    C     0.02328   0.16651   0.16719   0.00000  Uiso   1.00
C19    C     0.45687   0.18565   0.22140   0.00000  Uiso   1.00
C20    C     0.04313   0.14769   0.11193   0.00000  Uiso   1.00
C21    C     0.47035   0.12944   0.05532   0.00000  Uiso   1.00
C22    C     0.02965   0.20390   0.27801   0.00000  Uiso   1.00
Cu23   Cu    0.25500   0.17246   0.22813   0.00000  Uiso   1.00
Cu24   Cu    0.24499   0.16087   0.10521   0.00000  Uiso   1.00
H25    H     0.39562   0.20006   0.26298   0.00000  Uiso   1.00
H26    H     0.10438   0.13327   0.07036   0.00000  Uiso   1.00
H27    H     0.45059   0.11503   0.01171   0.00000  Uiso   1.00
H28    H     0.04941   0.21831   0.32163   0.00000  Uiso   1.00
H29    H     0.03159   0.11448   0.01369   0.00000  Uiso   1.00
H30    H     0.46841   0.21885   0.31964   0.00000  Uiso   1.00
H31    H     0.21504   0.12611   0.31607   0.00000  Uiso   1.00
H32    H     0.28496   0.20723   0.01726   0.00000  Uiso   1.00
N33    N     0.23744   0.15214   0.01284   0.00000  Uiso   1.00
N34    N     0.26255   0.18119   0.32049   0.00000  Uiso   1.00
O35    O     0.25325   0.09538   0.20659   0.00000  Uiso   1.00
O36    O     0.24674   0.23796   0.12674   0.00000  Uiso   1.00
O37    O     0.24480   0.08559   0.10279   0.00000  Uiso   1.00
O38    O     0.25520   0.24774   0.23055   0.00000  Uiso   1.00
O39    O     0.18935   0.17155   0.21857   0.00000  Uiso   1.00
O40    O     0.31064   0.16179   0.11476   0.00000  Uiso   1.00
O41    O     0.18090   0.16176   0.11477   0.00000  Uiso   1.00
O42    O     0.31910   0.17157   0.21857   0.00000  Uiso   1.00
F43    F     0.37797   0.13014   0.05551   0.00000  Uiso   1.00
F44    F     0.12203   0.20319   0.27782   0.00000  Uiso   1.00
F45    F     0.24354   0.31557   0.08299   0.00000  Uiso   1.00
F46    F     0.25646   0.01776   0.25034   0.00000  Uiso   1.00
C47    C     0.74866   0.06669   0.15121   0.00000  Uiso   1.00
C48    C     0.75133   0.26664   0.18212   0.00000  Uiso   1.00
C49    C     0.51658   0.12912   0.05637   0.00000  Uiso   1.00
C50    C     0.98342   0.20422   0.27696   0.00000  Uiso   1.00
C51    C     0.74807   0.01103   0.14236   0.00000  Uiso   1.00
C52    C     0.75193   0.32231   0.19097   0.00000  Uiso   1.00
C53    C     0.66435   0.16659   0.16747   0.00000  Uiso   1.00
C54    C     0.83565   0.16675   0.16586   0.00000  Uiso   1.00
C55    C     0.91073   0.18553   0.22031   0.00000  Uiso   1.00
C56    C     0.58927   0.14781   0.11302   0.00000  Uiso   1.00
C57    C     0.88403   0.16707   0.16474   0.00000  Uiso   1.00
C58    C     0.61597   0.16626   0.16859   0.00000  Uiso   1.00
C59    C     0.90371   0.14867   0.10940   0.00000  Uiso   1.00
C60    C     0.59629   0.18467   0.22393   0.00000  Uiso   1.00
C61    C     0.95009   0.14829   0.10990   0.00000  Uiso   1.00
C62    C     0.54991   0.18505   0.22344   0.00000  Uiso   1.00
C63    C     0.97672   0.16683   0.16615   0.00000  Uiso   1.00
C64    C     0.52328   0.16651   0.16719   0.00000  Uiso   1.00
C65    C     0.95687   0.18565   0.22140   0.00000  Uiso   1.00
C66    C     0.54313   0.14769   0.11193   0.00000  Uiso   1.00
C67    C     0.97035   0.12944   0.05532   0.00000  Uiso   1.00
C68    C     0.52965   0.20390   0.27801   0.00000  Uiso   1.00
Cu69   Cu    0.75500   0.17246   0.22813   0.00000  Uiso   1.00
Cu70   Cu    0.74499   0.16087   0.10521   0.00000  Uiso   1.00
H71    H     0.89562   0.20006   0.26298   0.00000  Uiso   1.00
H72    H     0.60438   0.13327   0.07036   0.00000  Uiso   1.00
H73    H     0.95059   0.11503   0.01171   0.00000  Uiso   1.00
H74    H     0.54941   0.21831   0.32163   0.00000  Uiso   1.00
H75    H     0.53159   0.11448   0.01369   0.00000  Uiso   1.00
H76    H     0.96841   0.21885   0.31964   0.00000  Uiso   1.00
H77    H     0.71504   0.12611   0.31607   0.00000  Uiso   1.00
H78    H     0.78496   0.20723   0.01726   0.00000  Uiso   1.00
N79    N     0.73744   0.15214   0.01284   0.00000  Uiso   1.00
N80    N     0.76255   0.18119   0.32049   0.00000  Uiso   1.00
O81    O     0.75325   0.09538   0.20659   0.00000  Uiso   1.00
O82    O     0.74674   0.23796   0.12674   0.00000  Uiso   1.00
O83    O     0.74480   0.08559   0.10279   0.00000  Uiso   1.00
O84    O     0.75520   0.24774   0.23055   0.00000  Uiso   1.00
O85    O     0.68935   0.17155   0.21857   0.00000  Uiso   1.00
O86    O     0.81064   0.16179   0.11476   0.00000  Uiso   1.00
O87    O     0.68090   0.16176   0.11477   0.00000  Uiso   1.00
O88    O     0.81910   0.17157   0.21857   0.00000  Uiso   1.00
F89    F     0.87797   0.13014   0.05551   0.00000  Uiso   1.00
F90    F     0.62203   0.20319   0.27782   0.00000  Uiso   1.00
F91    F     0.74354   0.31557   0.08299   0.00000  Uiso   1.00
F92    F     0.75646   0.01776   0.25034   0.00000  Uiso   1.00
C93    C     0.24866   0.40002   0.15121   0.00000  Uiso   1.00
C94    C     0.25133   0.59998   0.18212   0.00000  Uiso   1.00
C95    C     0.01658   0.46245   0.05637   0.00000  Uiso   1.00
C96    C     0.48342   0.53755   0.27696   0.00000  Uiso   1.00
C97    C     0.24807   0.34436   0.14236   0.00000  Uiso   1.00
C98    C     0.25193   0.65564   0.19097   0.00000  Uiso   1.00
C99    C     0.16435   0.49992   0.16747   0.00000  Uiso   1.00
C100   C     0.33565   0.50008   0.16586   0.00000  Uiso   1.00
C101   C     0.41073   0.51886   0.22031   0.00000  Uiso   1.00
C102   C     0.08927   0.48114   0.11302   0.00000  Uiso   1.00
C103   C     0.38403   0.50041   0.16474   0.00000  Uiso   1.00
C104   C     0.11597   0.49959   0.16859   0.00000  Uiso   1.00
C105   C     0.40371   0.48200   0.10940   0.00000  Uiso   1.00
C106   C     0.09629   0.51800   0.22393   0.00000  Uiso   1.00
C107   C     0.45009   0.48162   0.10990   0.00000  Uiso   1.00
C108   C     0.04991   0.51838   0.22344   0.00000  Uiso   1.00
C109   C     0.47672   0.50016   0.16615   0.00000  Uiso   1.00
C110   C     0.02328   0.49984   0.16719   0.00000  Uiso   1.00
C111   C     0.45687   0.51898   0.22140   0.00000  Uiso   1.00
C112   C     0.04313   0.48102   0.11193   0.00000  Uiso   1.00
C113   C     0.47035   0.46277   0.05532   0.00000  Uiso   1.00
C114   C     0.02965   0.53723   0.27801   0.00000  Uiso   1.00
Cu115  Cu    0.25500   0.50579   0.22813   0.00000  Uiso   1.00
Cu116  Cu    0.24499   0.49421   0.10521   0.00000  Uiso   1.00
H117   H     0.39562   0.53340   0.26298   0.00000  Uiso   1.00
H118   H     0.10438   0.46660   0.07036   0.00000  Uiso   1.00
H119   H     0.45059   0.44836   0.01171   0.00000  Uiso   1.00
H120   H     0.04941   0.55164   0.32163   0.00000  Uiso   1.00
H121   H     0.03159   0.44782   0.01369   0.00000  Uiso   1.00
H122   H     0.46841   0.55219   0.31964   0.00000  Uiso   1.00
H123   H     0.21504   0.45944   0.31607   0.00000  Uiso   1.00
H124   H     0.28496   0.54056   0.01726   0.00000  Uiso   1.00
N125   N     0.23744   0.48547   0.01284   0.00000  Uiso   1.00
N126   N     0.26255   0.51453   0.32049   0.00000  Uiso   1.00
O127   O     0.25325   0.42871   0.20659   0.00000  Uiso   1.00
O128   O     0.24674   0.57129   0.12674   0.00000  Uiso   1.00
O129   O     0.24480   0.41892   0.10279   0.00000  Uiso   1.00
O130   O     0.25520   0.58108   0.23055   0.00000  Uiso   1.00
O131   O     0.18935   0.50488   0.21857   0.00000  Uiso   1.00
O132   O     0.31064   0.49512   0.11476   0.00000  Uiso   1.00
O133   O     0.18090   0.49510   0.11477   0.00000  Uiso   1.00
O134   O     0.31910   0.50490   0.21857   0.00000  Uiso   1.00
F135   F     0.37797   0.46348   0.05551   0.00000  Uiso   1.00
F136   F     0.12203   0.53652   0.27782   0.00000  Uiso   1.00
F137   F     0.24354   0.64891   0.08299   0.00000  Uiso   1.00
F138   F     0.25646   0.35109   0.25034   0.00000  Uiso   1.00
C139   C     0.74866   0.40002   0.15121   0.00000  Uiso   1.00
C140   C     0.75133   0.59998   0.18212   0.00000  Uiso   1.00
C141   C     0.51658   0.46245   0.05637   0.00000  Uiso   1.00
C142   C     0.98342   0.53755   0.27696   0.00000  Uiso   1.00
C143   C     0.74807   0.34436   0.14236   0.00000  Uiso   1.00
C144   C     0.75193   0.65564   0.19097   0.00000  Uiso   1.00
C145   C     0.66435   0.49992   0.16747   0.00000  Uiso   1.00
C146   C     0.83565   0.50008   0.16586   0.00000  Uiso   1.00
C147   C     0.91073   0.51886   0.22031   0.00000  Uiso   1.00
C148   C     0.58927   0.48114   0.11302   0.00000  Uiso   1.00
C149   C     0.88403   0.50041   0.16474   0.00000  Uiso   1.00
C150   C     0.61597   0.49959   0.16859   0.00000  Uiso   1.00
C151   C     0.90371   0.48200   0.10940   0.00000  Uiso   1.00
C152   C     0.59629   0.51800   0.22393   0.00000  Uiso   1.00
C153   C     0.95009   0.48162   0.10990   0.00000  Uiso   1.00
C154   C     0.54991   0.51838   0.22344   0.00000  Uiso   1.00
C155   C     0.97672   0.50016   0.16615   0.00000  Uiso   1.00
C156   C     0.52328   0.49984   0.16719   0.00000  Uiso   1.00
C157   C     0.95687   0.51898   0.22140   0.00000  Uiso   1.00
C158   C     0.54313   0.48102   0.11193   0.00000  Uiso   1.00
C159   C     0.97035   0.46277   0.05532   0.00000  Uiso   1.00
C160   C     0.52965   0.53723   0.27801   0.00000  Uiso   1.00
Cu161  Cu    0.75500   0.50579   0.22813   0.00000  Uiso   1.00
Cu162  Cu    0.74499   0.49421   0.10521   0.00000  Uiso   1.00
H163   H     0.89562   0.53340   0.26298   0.00000  Uiso   1.00
H164   H     0.60438   0.46660   0.07036   0.00000  Uiso   1.00
H165   H     0.95059   0.44836   0.01171   0.00000  Uiso   1.00
H166   H     0.54941   0.55164   0.32163   0.00000  Uiso   1.00
H167   H     0.53159   0.44782   0.01369   0.00000  Uiso   1.00
H168   H     0.96841   0.55219   0.31964   0.00000  Uiso   1.00
H169   H     0.71504   0.45944   0.31607   0.00000  Uiso   1.00
H170   H     0.78496   0.54056   0.01726   0.00000  Uiso   1.00
N171   N     0.73744   0.48547   0.01284   0.00000  Uiso   1.00
N172   N     0.76255   0.51453   0.32049   0.00000  Uiso   1.00
O173   O     0.75325   0.42871   0.20659   0.00000  Uiso   1.00
O174   O     0.74674   0.57129   0.12674   0.00000  Uiso   1.00
O175   O     0.74480   0.41892   0.10279   0.00000  Uiso   1.00
O176   O     0.75520   0.58108   0.23055   0.00000  Uiso   1.00
O177   O     0.68935   0.50488   0.21857   0.00000  Uiso   1.00
O178   O     0.81064   0.49512   0.11476   0.00000  Uiso   1.00
O179   O     0.68090   0.49510   0.11477   0.00000  Uiso   1.00
O180   O     0.81910   0.50490   0.21857   0.00000  Uiso   1.00
F181   F     0.87797   0.46348   0.05551   0.00000  Uiso   1.00
F182   F     0.62203   0.53652   0.27782   0.00000  Uiso   1.00
F183   F     0.74354   0.64891   0.08299   0.00000  Uiso   1.00
F184   F     0.75646   0.35109   0.25034   0.00000  Uiso   1.00
C185   C     0.24866   0.73336   0.15121   0.00000  Uiso   1.00
C186   C     0.25133   0.93331   0.18212   0.00000  Uiso   1.00
C187   C     0.01658   0.79578   0.05637   0.00000  Uiso   1.00
C188   C     0.48342   0.87088   0.27696   0.00000  Uiso   1.00
C189   C     0.24807   0.67769   0.14236   0.00000  Uiso   1.00
C190   C     0.25193   0.98897   0.19097   0.00000  Uiso   1.00
C191   C     0.16435   0.83325   0.16747   0.00000  Uiso   1.00
C192   C     0.33565   0.83341   0.16586   0.00000  Uiso   1.00
C193   C     0.41073   0.85219   0.22031   0.00000  Uiso   1.00
C194   C     0.08927   0.81448   0.11302   0.00000  Uiso   1.00
C195   C     0.38403   0.83374   0.16474   0.00000  Uiso   1.00
C196   C     0.11597   0.83293   0.16859   0.00000  Uiso   1.00
C197   C     0.40371   0.81534   0.10940   0.00000  Uiso   1.00
C198   C     0.09629   0.85133   0.22393   0.00000  Uiso   1.00
C199   C     0.45009   0.81495   0.10990   0.00000  Uiso   1.00
C200   C     0.04991   0.85171   0.22344   0.00000  Uiso   1.00
C201   C     0.47672   0.83350   0.16615   0.00000  Uiso   1.00
C202   C     0.02328   0.83317   0.16719   0.00000  Uiso   1.00
C203   C     0.45687   0.85231   0.22140   0.00000  Uiso   1.00
C204   C     0.04313   0.81435   0.11193   0.00000  Uiso   1.00
C205   C     0.47035   0.79611   0.05532   0.00000  Uiso   1.00
C206   C     0.02965   0.87056   0.27801   0.00000  Uiso   1.00
Cu207  Cu    0.25500   0.83913   0.22813   0.00000  Uiso   1.00
Cu208  Cu    0.24499   0.82754   0.10521   0.00000  Uiso   1.00
H209   H     0.39562   0.86673   0.26298   0.00000  Uiso   1.00
H210   H     0.10438   0.79994   0.07036   0.00000  Uiso   1.00
H211   H     0.45059   0.78169   0.01171   0.00000  Uiso   1.00
H212   H     0.04941   0.88497   0.32163   0.00000  Uiso   1.00
H213   H     0.03159   0.78115   0.01369   0.00000  Uiso   1.00
H214   H     0.46841   0.88552   0.31964   0.00000  Uiso   1.00
H215   H     0.21504   0.79277   0.31607   0.00000  Uiso   1.00
H216   H     0.28496   0.87389   0.01726   0.00000  Uiso   1.00
N217   N     0.23744   0.81881   0.01284   0.00000  Uiso   1.00
N218   N     0.26255   0.84786   0.32049   0.00000  Uiso   1.00
O219   O     0.25325   0.76204   0.20659   0.00000  Uiso   1.00
O220   O     0.24674   0.90462   0.12674   0.00000  Uiso   1.00
O221   O     0.24480   0.75226   0.10279   0.00000  Uiso   1.00
O222   O     0.25520   0.91441   0.23055   0.00000  Uiso   1.00
O223   O     0.18935   0.83821   0.21857   0.00000  Uiso   1.00
O224   O     0.31064   0.82845   0.11476   0.00000  Uiso   1.00
O225   O     0.18090   0.82843   0.11477   0.00000  Uiso   1.00
O226   O     0.31910   0.83824   0.21857   0.00000  Uiso   1.00
F227   F     0.37797   0.79681   0.05551   0.00000  Uiso   1.00
F228   F     0.12203   0.86986   0.27782   0.00000  Uiso   1.00
F229   F     0.24354   0.98224   0.08299   0.00000  Uiso   1.00
F230   F     0.25646   0.68443   0.25034   0.00000  Uiso   1.00
C231   C     0.74866   0.73336   0.15121   0.00000  Uiso   1.00
C232   C     0.75133   0.93331   0.18212   0.00000  Uiso   1.00
C233   C     0.51658   0.79578   0.05637   0.00000  Uiso   1.00
C234   C     0.98342   0.87088   0.27696   0.00000  Uiso   1.00
C235   C     0.74807   0.67769   0.14236   0.00000  Uiso   1.00
C236   C     0.75193   0.98897   0.19097   0.00000  Uiso   1.00
C237   C     0.66435   0.83325   0.16747   0.00000  Uiso   1.00
C238   C     0.83565   0.83341   0.16586   0.00000  Uiso   1.00
C239   C     0.91073   0.85219   0.22031   0.00000  Uiso   1.00
C240   C     0.58927   0.81448   0.11302   0.00000  Uiso   1.00
C241   C     0.88403   0.83374   0.16474   0.00000  Uiso   1.00
C242   C     0.61597   0.83293   0.16859   0.00000  Uiso   1.00
C243   C     0.90371   0.81534   0.10940   0.00000  Uiso   1.00
C244   C     0.59629   0.85133   0.22393   0.00000  Uiso   1.00
C245   C     0.95009   0.81495   0.10990   0.00000  Uiso   1.00
C246   C     0.54991   0.85171   0.22344   0.00000  Uiso   1.00
C247   C     0.97672   0.83350   0.16615   0.00000  Uiso   1.00
C248   C     0.52328   0.83317   0.16719   0.00000  Uiso   1.00
C249   C     0.95687   0.85231   0.22140   0.00000  Uiso   1.00
C250   C     0.54313   0.81435   0.11193   0.00000  Uiso   1.00
C251   C     0.97035   0.79611   0.05532   0.00000  Uiso   1.00
C252   C     0.52965   0.87056   0.27801   0.00000  Uiso   1.00
Cu253  Cu    0.75500   0.83913   0.22813   0.00000  Uiso   1.00
Cu254  Cu    0.74499   0.82754   0.10521   0.00000  Uiso   1.00
H255   H     0.89562   0.86673   0.26298   0.00000  Uiso   1.00
H256   H     0.60438   0.79994   0.07036   0.00000  Uiso   1.00
H257   H     0.95059   0.78169   0.01171   0.00000  Uiso   1.00
H258   H     0.54941   0.88497   0.32163   0.00000  Uiso   1.00
H259   H     0.53159   0.78115   0.01369   0.00000  Uiso   1.00
H260   H     0.96841   0.88552   0.31964   0.00000  Uiso   1.00
H261   H     0.71504   0.79277   0.31607   0.00000  Uiso   1.00
H262   H     0.78496   0.87389   0.01726   0.00000  Uiso   1.00
N263   N     0.73744   0.81881   0.01284   0.00000  Uiso   1.00
N264   N     0.76255   0.84786   0.32049   0.00000  Uiso   1.00
O265   O     0.75325   0.76204   0.20659   0.00000  Uiso   1.00
O266   O     0.74674   0.90462   0.12674   0.00000  Uiso   1.00
O267   O     0.74480   0.75226   0.10279   0.00000  Uiso   1.00
O268   O     0.75520   0.91441   0.23055   0.00000  Uiso   1.00
O269   O     0.68935   0.83821   0.21857   0.00000  Uiso   1.00
O270   O     0.81064   0.82845   0.11476   0.00000  Uiso   1.00
O271   O     0.68090   0.82843   0.11477   0.00000  Uiso   1.00
O272   O     0.81910   0.83824   0.21857   0.00000  Uiso   1.00
F273   F     0.87797   0.79681   0.05551   0.00000  Uiso   1.00
F274   F     0.62203   0.86986   0.27782   0.00000  Uiso   1.00
F275   F     0.74354   0.98224   0.08299   0.00000  Uiso   1.00
F276   F     0.75646   0.68443   0.25034   0.00000  Uiso   1.00
C277   C     0.24866   0.06669   0.48455   0.00000  Uiso   1.00
C278   C     0.25133   0.26664   0.51545   0.00000  Uiso   1.00
C279   C     0.01658   0.12912   0.38971   0.00000  Uiso   1.00
C280   C     0.48342   0.20422   0.61029   0.00000  Uiso   1.00
C281   C     0.24807   0.01103   0.47570   0.00000  Uiso   1.00
C282   C     0.25193   0.32231   0.52430   0.00000  Uiso   1.00
C283   C     0.16435   0.16659   0.50080   0.00000  Uiso   1.00
C284   C     0.33565   0.16675   0.49920   0.00000  Uiso   1.00
C285   C     0.41073   0.18553   0.55364   0.00000  Uiso   1.00
C286   C     0.08927   0.14781   0.44636   0.00000  Uiso   1.00
C287   C     0.38403   0.16707   0.49807   0.00000  Uiso   1.00
C288   C     0.11597   0.16626   0.50193   0.00000  Uiso   1.00
C289   C     0.40371   0.14867   0.44274   0.00000  Uiso   1.00
C290   C     0.09629   0.18467   0.55726   0.00000  Uiso   1.00
C291   C     0.45009   0.14829   0.44323   0.00000  Uiso   1.00
C292   C     0.04991   0.18505   0.55677   0.00000  Uiso   1.00
C293   C     0.47672   0.16683   0.49948   0.00000  Uiso   1.00
C294   C     0.02328   0.16651   0.50052   0.00000  Uiso   1.00
C295   C     0.45687   0.18565   0.55474   0.00000  Uiso   1.00
C296   C     0.04313   0.14769   0.44526   0.00000  Uiso   1.00
C297   C     0.47035   0.12944   0.38865   0.00000  Uiso   1.00
C298   C     0.02965   0.20390   0.61135   0.00000  Uiso   1.00
Cu299  Cu    0.25500   0.17246   0.56146   0.00000  Uiso   1.00
Cu300  Cu    0.24499   0.16087   0.43854   0.00000  Uiso   1.00
H301   H     0.39562   0.20006   0.59631   0.00000  Uiso   1.00
H302   H     0.10438   0.13327   0.40369   0.00000  Uiso   1.00
H303   H     0.45059   0.11503   0.34504   0.00000  Uiso   1.00
H304   H     0.04941   0.21831   0.65496   0.00000  Uiso   1.00
H305   H     0.03159   0.11448   0.34702   0.00000  Uiso   1.00
H306   H     0.46841   0.21885   0.65298   0.00000  Uiso   1.00
H307   H     0.21504   0.12611   0.64940   0.00000  Uiso   1.00
H308   H     0.28496   0.20723   0.35060   0.00000  Uiso   1.00
N309   N     0.23744   0.15214   0.34617   0.00000  Uiso   1.00
N310   N     0.26255   0.18119   0.65383   0.00000  Uiso   1.00
O311   O     0.25325   0.09538   0.53992   0.00000  Uiso   1.00
O312   O     0.24674   0.23796   0.46008   0.00000  Uiso   1.00
O313   O     0.24480   0.08559   0.43612   0.00000  Uiso   1.00
O314   O     0.25520   0.24774   0.56388   0.00000  Uiso   1.00
O315   O     0.18935   0.17155   0.55191   0.00000  Uiso   1.00
O316   O     0.31064   0.16179   0.44809   0.00000  Uiso   1.00
O317   O     0.18090   0.16176   0.44810   0.00000  Uiso   1.00
O318   O     0.31910   0.17157   0.55190   0.00000  Uiso   1.00
F319   F     0.37797   0.13014   0.38885   0.00000  Uiso   1.00
F320   F     0.12203   0.20319   0.61115   0.00000  Uiso   1.00
F321   F     0.24354   0.31557   0.41633   0.00000  Uiso   1.00
F322   F     0.25646   0.01776   0.58367   0.00000  Uiso   1.00
C323   C     0.74866   0.06669   0.48455   0.00000  Uiso   1.00
C324   C     0.75133   0.26664   0.51545   0.00000  Uiso   1.00
C325   C     0.51658   0.12912   0.38971   0.00000  Uiso   1.00
C326   C     0.98342   0.20422   0.61029   0.00000  Uiso   1.00
C327   C     0.74807   0.01103   0.47570   0.00000  Uiso   1.00
C328   C     0.75193   0.32231   0.52430   0.00000  Uiso   1.00
C329   C     0.66435   0.16659   0.50080   0.00000  Uiso   1.00
C330   C     0.83565   0.16675   0.49920   0.00000  Uiso   1.00
C331   C     0.91073   0.18553   0.55364   0.00000  Uiso   1.00
C332   C     0.58927   0.14781   0.44636   0.00000  Uiso   1.00
C333   C     0.88403   0.16707   0.49807   0.00000  Uiso   1.00
C334   C     0.61597   0.16626   0.50193   0.00000  Uiso   1.00
C335   C     0.90371   0.14867   0.44274   0.00000  Uiso   1.00
C336   C     0.59629   0.18467   0.55726   0.00000  Uiso   1.00
C337   C     0.95009   0.14829   0.44323   0.00000  Uiso   1.00
C338   C     0.54991   0.18505   0.55677   0.00000  Uiso   1.00
C339   C     0.97672   0.16683   0.49948   0.00000  Uiso   1.00
C340   C     0.52328   0.16651   0.50052   0.00000  Uiso   1.00
C341   C     0.95687   0.18565   0.55474   0.00000  Uiso   1.00
C342   C     0.54313   0.14769   0.44526   0.00000  Uiso   1.00
C343   C     0.97035   0.12944   0.38865   0.00000  Uiso   1.00
C344   C     0.52965   0.20390   0.61135   0.00000  Uiso   1.00
Cu345  Cu    0.75500   0.17246   0.56146   0.00000  Uiso   1.00
Cu346  Cu    0.74499   0.16087   0.43854   0.00000  Uiso   1.00
H347   H     0.89562   0.20006   0.59631   0.00000  Uiso   1.00
H348   H     0.60438   0.13327   0.40369   0.00000  Uiso   1.00
H349   H     0.95059   0.11503   0.34504   0.00000  Uiso   1.00
H350   H     0.54941   0.21831   0.65496   0.00000  Uiso   1.00
H351   H     0.53159   0.11448   0.34702   0.00000  Uiso   1.00
H352   H     0.96841   0.21885   0.65298   0.00000  Uiso   1.00
H353   H     0.71504   0.12611   0.64940   0.00000  Uiso   1.00
H354   H     0.78496   0.20723   0.35060   0.00000  Uiso   1.00
N355   N     0.73744   0.15214   0.34617   0.00000  Uiso   1.00
N356   N     0.76255   0.18119   0.65383   0.00000  Uiso   1.00
O357   O     0.75325   0.09538   0.53992   0.00000  Uiso   1.00
O358   O     0.74674   0.23796   0.46008   0.00000  Uiso   1.00
O359   O     0.74480   0.08559   0.43612   0.00000  Uiso   1.00
O360   O     0.75520   0.24774   0.56388   0.00000  Uiso   1.00
O361   O     0.68935   0.17155   0.55191   0.00000  Uiso   1.00
O362   O     0.81064   0.16179   0.44809   0.00000  Uiso   1.00
O363   O     0.68090   0.16176   0.44810   0.00000  Uiso   1.00
O364   O     0.81910   0.17157   0.55190   0.00000  Uiso   1.00
F365   F     0.87797   0.13014   0.38885   0.00000  Uiso   1.00
F366   F     0.62203   0.20319   0.61115   0.00000  Uiso   1.00
F367   F     0.74354   0.31557   0.41633   0.00000  Uiso   1.00
F368   F     0.75646   0.01776   0.58367   0.00000  Uiso   1.00
C369   C     0.24866   0.40002   0.48455   0.00000  Uiso   1.00
C370   C     0.25133   0.59998   0.51545   0.00000  Uiso   1.00
C371   C     0.01658   0.46245   0.38971   0.00000  Uiso   1.00
C372   C     0.48342   0.53755   0.61029   0.00000  Uiso   1.00
C373   C     0.24807   0.34436   0.47570   0.00000  Uiso   1.00
C374   C     0.25193   0.65564   0.52430   0.00000  Uiso   1.00
C375   C     0.16435   0.49992   0.50080   0.00000  Uiso   1.00
C376   C     0.33565   0.50008   0.49920   0.00000  Uiso   1.00
C377   C     0.41073   0.51886   0.55364   0.00000  Uiso   1.00
C378   C     0.08927   0.48114   0.44636   0.00000  Uiso   1.00
C379   C     0.38403   0.50041   0.49807   0.00000  Uiso   1.00
C380   C     0.11597   0.49959   0.50193   0.00000  Uiso   1.00
C381   C     0.40371   0.48200   0.44274   0.00000  Uiso   1.00
C382   C     0.09629   0.51800   0.55726   0.00000  Uiso   1.00
C383   C     0.45009   0.48162   0.44323   0.00000  Uiso   1.00
C384   C     0.04991   0.51838   0.55677   0.00000  Uiso   1.00
C385   C     0.47672   0.50016   0.49948   0.00000  Uiso   1.00
C386   C     0.02328   0.49984   0.50052   0.00000  Uiso   1.00
C387   C     0.45687   0.51898   0.55474   0.00000  Uiso   1.00
C388   C     0.04313   0.48102   0.44526   0.00000  Uiso   1.00
C389   C     0.47035   0.46277   0.38865   0.00000  Uiso   1.00
C390   C     0.02965   0.53723   0.61135   0.00000  Uiso   1.00
Cu391  Cu    0.25500   0.50579   0.56146   0.00000  Uiso   1.00
Cu392  Cu    0.24499   0.49421   0.43854   0.00000  Uiso   1.00
H393   H     0.39562   0.53340   0.59631   0.00000  Uiso   1.00
H394   H     0.10438   0.46660   0.40369   0.00000  Uiso   1.00
H395   H     0.45059   0.44836   0.34504   0.00000  Uiso   1.00
H396   H     0.04941   0.55164   0.65496   0.00000  Uiso   1.00
H397   H     0.03159   0.44782   0.34702   0.00000  Uiso   1.00
H398   H     0.46841   0.55219   0.65298   0.00000  Uiso   1.00
H399   H     0.21504   0.45944   0.64940   0.00000  Uiso   1.00
H400   H     0.28496   0.54056   0.35060   0.00000  Uiso   1.00
N401   N     0.23744   0.48547   0.34617   0.00000  Uiso   1.00
N402   N     0.26255   0.51453   0.65383   0.00000  Uiso   1.00
O403   O     0.25325   0.42871   0.53992   0.00000  Uiso   1.00
O404   O     0.24674   0.57129   0.46008   0.00000  Uiso   1.00
O405   O     0.24480   0.41892   0.43612   0.00000  Uiso   1.00
O406   O     0.25520   0.58108   0.56388   0.00000  Uiso   1.00
O407   O     0.18935   0.50488   0.55191   0.00000  Uiso   1.00
O408   O     0.31064   0.49512   0.44809   0.00000  Uiso   1.00
O409   O     0.18090   0.49510   0.44810   0.00000  Uiso   1.00
O410   O     0.31910   0.50490   0.55190   0.00000  Uiso   1.00
F411   F     0.37797   0.46348   0.38885   0.00000  Uiso   1.00
F412   F     0.12203   0.53652   0.61115   0.00000  Uiso   1.00
F413   F     0.24354   0.64891   0.41633   0.00000  Uiso   1.00
F414   F     0.25646   0.35109   0.58367   0.00000  Uiso   1.00
C415   C     0.74866   0.40002   0.48455   0.00000  Uiso   1.00
C416   C     0.75133   0.59998   0.51545   0.00000  Uiso   1.00
C417   C     0.51658   0.46245   0.38971   0.00000  Uiso   1.00
C418   C     0.98342   0.53755   0.61029   0.00000  Uiso   1.00
C419   C     0.74807   0.34436   0.47570   0.00000  Uiso   1.00
C420   C     0.75193   0.65564   0.52430   0.00000  Uiso   1.00
C421   C     0.66435   0.49992   0.50080   0.00000  Uiso   1.00
C422   C     0.83565   0.50008   0.49920   0.00000  Uiso   1.00
C423   C     0.91073   0.51886   0.55364   0.00000  Uiso   1.00
C424   C     0.58927   0.48114   0.44636   0.00000  Uiso   1.00
C425   C     0.88403   0.50041   0.49807   0.00000  Uiso   1.00
C426   C     0.61597   0.49959   0.50193   0.00000  Uiso   1.00
C427   C     0.90371   0.48200   0.44274   0.00000  Uiso   1.00
C428   C     0.59629   0.51800   0.55726   0.00000  Uiso   1.00
C429   C     0.95009   0.48162   0.44323   0.00000  Uiso   1.00
C430   C     0.54991   0.51838   0.55677   0.00000  Uiso   1.00
C431   C     0.97672   0.50016   0.49948   0.00000  Uiso   1.00
C432   C     0.52328   0.49984   0.50052   0.00000  Uiso   1.00
C433   C     0.95687   0.51898   0.55474   0.00000  Uiso   1.00
C434   C     0.54313   0.48102   0.44526   0.00000  Uiso   1.00
C435   C     0.97035   0.46277   0.38865   0.00000  Uiso   1.00
C436   C     0.52965   0.53723   0.61135   0.00000  Uiso   1.00
Cu437  Cu    0.75500   0.50579   0.56146   0.00000  Uiso   1.00
Cu438  Cu    0.74499   0.49421   0.43854   0.00000  Uiso   1.00
H439   H     0.89562   0.53340   0.59631   0.00000  Uiso   1.00
H440   H     0.60438   0.46660   0.40369   0.00000  Uiso   1.00
H441   H     0.95059   0.44836   0.34504   0.00000  Uiso   1.00
H442   H     0.54941   0.55164   0.65496   0.00000  Uiso   1.00
H443   H     0.53159   0.44782   0.34702   0.00000  Uiso   1.00
H444   H     0.96841   0.55219   0.65298   0.00000  Uiso   1.00
H445   H     0.71504   0.45944   0.64940   0.00000  Uiso   1.00
H446   H     0.78496   0.54056   0.35060   0.00000  Uiso   1.00
N447   N     0.73744   0.48547   0.34617   0.00000  Uiso   1.00
N448   N     0.76255   0.51453   0.65383   0.00000  Uiso   1.00
O449   O     0.75325   0.42871   0.53992   0.00000  Uiso   1.00
O450   O     0.74674   0.57129   0.46008   0.00000  Uiso   1.00
O451   O     0.74480   0.41892   0.43612   0.00000  Uiso   1.00
O452   O     0.75520   0.58108   0.56388   0.00000  Uiso   1.00
O453   O     0.68935   0.50488   0.55191   0.00000  Uiso   1.00
O454   O     0.81064   0.49512   0.44809   0.00000  Uiso   1.00
O455   O     0.68090   0.49510   0.44810   0.00000  Uiso   1.00
O456   O     0.81910   0.50490   0.55190   0.00000  Uiso   1.00
F457   F     0.87797   0.46348   0.38885   0.00000  Uiso   1.00
F458   F     0.62203   0.53652   0.61115   0.00000  Uiso   1.00
F459   F     0.74354   0.64891   0.41633   0.00000  Uiso   1.00
F460   F     0.75646   0.35109   0.58367   0.00000  Uiso   1.00
C461   C     0.24866   0.73336   0.48455   0.00000  Uiso   1.00
C462   C     0.25133   0.93331   0.51545   0.00000  Uiso   1.00
C463   C     0.01658   0.79578   0.38971   0.00000  Uiso   1.00
C464   C     0.48342   0.87088   0.61029   0.00000  Uiso   1.00
C465   C     0.24807   0.67769   0.47570   0.00000  Uiso   1.00
C466   C     0.25193   0.98897   0.52430   0.00000  Uiso   1.00
C467   C     0.16435   0.83325   0.50080   0.00000  Uiso   1.00
C468   C     0.33565   0.83341   0.49920   0.00000  Uiso   1.00
C469   C     0.41073   0.85219   0.55364   0.00000  Uiso   1.00
C470   C     0.08927   0.81448   0.44636   0.00000  Uiso   1.00
C471   C     0.38403   0.83374   0.49807   0.00000  Uiso   1.00
C472   C     0.11597   0.83293   0.50193   0.00000  Uiso   1.00
C473   C     0.40371   0.81534   0.44274   0.00000  Uiso   1.00
C474   C     0.09629   0.85133   0.55726   0.00000  Uiso   1.00
C475   C     0.45009   0.81495   0.44323   0.00000  Uiso   1.00
C476   C     0.04991   0.85171   0.55677   0.00000  Uiso   1.00
C477   C     0.47672   0.83350   0.49948   0.00000  Uiso   1.00
C478   C     0.02328   0.83317   0.50052   0.00000  Uiso   1.00
C479   C     0.45687   0.85231   0.55474   0.00000  Uiso   1.00
C480   C     0.04313   0.81435   0.44526   0.00000  Uiso   1.00
C481   C     0.47035   0.79611   0.38865   0.00000  Uiso   1.00
C482   C     0.02965   0.87056   0.61135   0.00000  Uiso   1.00
Cu483  Cu    0.25500   0.83913   0.56146   0.00000  Uiso   1.00
Cu484  Cu    0.24499   0.82754   0.43854   0.00000  Uiso   1.00
H485   H     0.39562   0.86673   0.59631   0.00000  Uiso   1.00
H486   H     0.10438   0.79994   0.40369   0.00000  Uiso   1.00
H487   H     0.45059   0.78169   0.34504   0.00000  Uiso   1.00
H488   H     0.04941   0.88497   0.65496   0.00000  Uiso   1.00
H489   H     0.03159   0.78115   0.34702   0.00000  Uiso   1.00
H490   H     0.46841   0.88552   0.65298   0.00000  Uiso   1.00
H491   H     0.21504   0.79277   0.64940   0.00000  Uiso   1.00
H492   H     0.28496   0.87389   0.35060   0.00000  Uiso   1.00
N493   N     0.23744   0.81881   0.34617   0.00000  Uiso   1.00
N494   N     0.26255   0.84786   0.65383   0.00000  Uiso   1.00
O495   O     0.25325   0.76204   0.53992   0.00000  Uiso   1.00
O496   O     0.24674   0.90462   0.46008   0.00000  Uiso   1.00
O497   O     0.24480   0.75226   0.43612   0.00000  Uiso   1.00
O498   O     0.25520   0.91441   0.56388   0.00000  Uiso   1.00
O499   O     0.18935   0.83821   0.55191   0.00000  Uiso   1.00
O500   O     0.31064   0.82845   0.44809   0.00000  Uiso   1.00
O501   O     0.18090   0.82843   0.44810   0.00000  Uiso   1.00
O502   O     0.31910   0.83824   0.55190   0.00000  Uiso   1.00
F503   F     0.37797   0.79681   0.38885   0.00000  Uiso   1.00
F504   F     0.12203   0.86986   0.61115   0.00000  Uiso   1.00
F505   F     0.24354   0.98224   0.41633   0.00000  Uiso   1.00
F506   F     0.25646   0.68443   0.58367   0.00000  Uiso   1.00
C507   C     0.74866   0.73336   0.48455   0.00000  Uiso   1.00
C508   C     0.75133   0.93331   0.51545   0.00000  Uiso   1.00
C509   C     0.51658   0.79578   0.38971   0.00000  Uiso   1.00
C510   C     0.98342   0.87088   0.61029   0.00000  Uiso   1.00
C511   C     0.74807   0.67769   0.47570   0.00000  Uiso   1.00
C512   C     0.75193   0.98897   0.52430   0.00000  Uiso   1.00
C513   C     0.66435   0.83325   0.50080   0.00000  Uiso   1.00
C514   C     0.83565   0.83341   0.49920   0.00000  Uiso   1.00
C515   C     0.91073   0.85219   0.55364   0.00000  Uiso   1.00
C516   C     0.58927   0.81448   0.44636   0.00000  Uiso   1.00
C517   C     0.88403   0.83374   0.49807   0.00000  Uiso   1.00
C518   C     0.61597   0.83293   0.50193   0.00000  Uiso   1.00
C519   C     0.90371   0.81534   0.44274   0.00000  Uiso   1.00
C520   C     0.59629   0.85133   0.55726   0.00000  Uiso   1.00
C521   C     0.95009   0.81495   0.44323   0.00000  Uiso   1.00
C522   C     0.54991   0.85171   0.55677   0.00000  Uiso   1.00
C523   C     0.97672   0.83350   0.49948   0.00000  Uiso   1.00
C524   C     0.52328   0.83317   0.50052   0.00000  Uiso   1.00
C525   C     0.95687   0.85231   0.55474   0.00000  Uiso   1.00
C526   C     0.54313   0.81435   0.44526   0.00000  Uiso   1.00
C527   C     0.97035   0.79611   0.38865   0.00000  Uiso   1.00
C528   C     0.52965   0.87056   0.61135   0.00000  Uiso   1.00
Cu529  Cu    0.75500   0.83913   0.56146   0.00000  Uiso   1.00
Cu530  Cu    0.74499   0.82754   0.43854   0.00000  Uiso   1.00
H531   H     0.89562   0.86673   0.59631   0.00000  Uiso   1.00
H532   H     0.60438   0.79994   0.40369   0.00000  Uiso   1.00
H533   H     0.95059   0.78169   0.34504   0.00000  Uiso   1.00
H534   H     0.54941   0.88497   0.65496   0.00000  Uiso   1.00
H535   H     0.53159   0.78115   0.34702   0.00000  Uiso   1.00
H536   H     0.96841   0.88552   0.65298   0.00000  Uiso   1.00
H537   H     0.71504   0.79277   0.64940   0.00000  Uiso   1.00
H538   H     0.78496   0.87389   0.35060   0.00000  Uiso   1.00
N539   N     0.73744   0.81881   0.34617   0.00000  Uiso   1.00
N540   N     0.76255   0.84786   0.65383   0.00000  Uiso   1.00
O541   O     0.75325   0.76204   0.53992   0.00000  Uiso   1.00
O542   O     0.74674   0.90462   0.46008   0.00000  Uiso   1.00
O543   O     0.74480   0.75226   0.43612   0.00000  Uiso   1.00
O544   O     0.75520   0.91441   0.56388   0.00000  Uiso   1.00
O545   O     0.68935   0.83821   0.55191   0.00000  Uiso   1.00
O546   O     0.81064   0.82845   0.44809   0.00000  Uiso   1.00
O547   O     0.68090   0.82843   0.44810   0.00000  Uiso   1.00
O548   O     0.81910   0.83824   0.55190   0.00000  Uiso   1.00
F549   F     0.87797   0.79681   0.38885   0.00000  Uiso   1.00
F550   F     0.62203   0.86986   0.61115   0.00000  Uiso   1.00
F551   F     0.74354   0.98224   0.41633   0.00000  Uiso   1.00
F552   F     0.75646   0.68443   0.58367   0.00000  Uiso   1.00
C553   C     0.24866   0.06669   0.81788   0.00000  Uiso   1.00
C554   C     0.25133   0.26664   0.84879   0.00000  Uiso   1.00
C555   C     0.01658   0.12912   0.72304   0.00000  Uiso   1.00
C556   C     0.48342   0.20422   0.94362   0.00000  Uiso   1.00
C557   C     0.24807   0.01103   0.80903   0.00000  Uiso   1.00
C558   C     0.25193   0.32231   0.85764   0.00000  Uiso   1.00
C559   C     0.16435   0.16659   0.83414   0.00000  Uiso   1.00
C560   C     0.33565   0.16675   0.83253   0.00000  Uiso   1.00
C561   C     0.41073   0.18553   0.88697   0.00000  Uiso   1.00
C562   C     0.08927   0.14781   0.77969   0.00000  Uiso   1.00
C563   C     0.38403   0.16707   0.83141   0.00000  Uiso   1.00
C564   C     0.11597   0.16626   0.83526   0.00000  Uiso   1.00
C565   C     0.40371   0.14867   0.77607   0.00000  Uiso   1.00
C566   C     0.09629   0.18467   0.89060   0.00000  Uiso   1.00
C567   C     0.45009   0.14829   0.77656   0.00000  Uiso   1.00
C568   C     0.04991   0.18505   0.89010   0.00000  Uiso   1.00
C569   C     0.47672   0.16683   0.83281   0.00000  Uiso   1.00
C570   C     0.02328   0.16651   0.83385   0.00000  Uiso   1.00
C571   C     0.45687   0.18565   0.88807   0.00000  Uiso   1.00
C572   C     0.04313   0.14769   0.77860   0.00000  Uiso   1.00
C573   C     0.47035   0.12944   0.72198   0.00000  Uiso   1.00
C574   C     0.02965   0.20390   0.94468   0.00000  Uiso   1.00
Cu575  Cu    0.25500   0.17246   0.89479   0.00000  Uiso   1.00
Cu576  Cu    0.24499   0.16087   0.77187   0.00000  Uiso   1.00
H577   H     0.39562   0.20006   0.92964   0.00000  Uiso   1.00
H578   H     0.10438   0.13327   0.73702   0.00000  Uiso   1.00
H579   H     0.45059   0.11503   0.67837   0.00000  Uiso   1.00
H580   H     0.04941   0.21831   0.98829   0.00000  Uiso   1.00
H581   H     0.03159   0.11448   0.68036   0.00000  Uiso   1.00
H582   H     0.46841   0.21885   0.98631   0.00000  Uiso   1.00
H583   H     0.21504   0.12611   0.98274   0.00000  Uiso   1.00
H584   H     0.28496   0.20723   0.68393   0.00000  Uiso   1.00
N585   N     0.23744   0.15214   0.67951   0.00000  Uiso   1.00
N586   N     0.26255   0.18119   0.98716   0.00000  Uiso   1.00
O587   O     0.25325   0.09538   0.87326   0.00000  Uiso   1.00
O588   O     0.24674   0.23796   0.79341   0.00000  Uiso   1.00
O589   O     0.24480   0.08559   0.76945   0.00000  Uiso   1.00
O590   O     0.25520   0.24774   0.89721   0.00000  Uiso   1.00
O591   O     0.18935   0.17155   0.88524   0.00000  Uiso   1.00
O592   O     0.31064   0.16179   0.78143   0.00000  Uiso   1.00
O593   O     0.18090   0.16176   0.78143   0.00000  Uiso   1.00
O594   O     0.31910   0.17157   0.88523   0.00000  Uiso   1.00
F595   F     0.37797   0.13014   0.72218   0.00000  Uiso   1.00
F596   F     0.12203   0.20319   0.94449   0.00000  Uiso   1.00
F597   F     0.24354   0.31557   0.74966   0.00000  Uiso   1.00
F598   F     0.25646   0.01776   0.91701   0.00000  Uiso   1.00
C599   C     0.74866   0.06669   0.81788   0.00000  Uiso   1.00
C600   C     0.75133   0.26664   0.84879   0.00000  Uiso   1.00
C601   C     0.51658   0.12912   0.72304   0.00000  Uiso   1.00
C602   C     0.98342   0.20422   0.94362   0.00000  Uiso   1.00
C603   C     0.74807   0.01103   0.80903   0.00000  Uiso   1.00
C604   C     0.75193   0.32231   0.85764   0.00000  Uiso   1.00
C605   C     0.66435   0.16659   0.83414   0.00000  Uiso   1.00
C606   C     0.83565   0.16675   0.83253   0.00000  Uiso   1.00
C607   C     0.91073   0.18553   0.88697   0.00000  Uiso   1.00
C608   C     0.58927   0.14781   0.77969   0.00000  Uiso   1.00
C609   C     0.88403   0.16707   0.83141   0.00000  Uiso   1.00
C610   C     0.61597   0.16626   0.83526   0.00000  Uiso   1.00
C611   C     0.90371   0.14867   0.77607   0.00000  Uiso   1.00
C612   C     0.59629   0.18467   0.89060   0.00000  Uiso   1.00
C613   C     0.95009   0.14829   0.77656   0.00000  Uiso   1.00
C614   C     0.54991   0.18505   0.89010   0.00000  Uiso   1.00
C615   C     0.97672   0.16683   0.83281   0.00000  Uiso   1.00
C616   C     0.52328   0.16651   0.83385   0.00000  Uiso   1.00
C617   C     0.95687   0.18565   0.88807   0.00000  Uiso   1.00
C618   C     0.54313   0.14769   0.77860   0.00000  Uiso   1.00
C619   C     0.97035   0.12944   0.72198   0.00000  Uiso   1.00
C620   C     0.52965   0.20390   0.94468   0.00000  Uiso   1.00
Cu621  Cu    0.75500   0.17246   0.89479   0.00000  Uiso   1.00
Cu622  Cu    0.74499   0.16087   0.77187   0.00000  Uiso   1.00
H623   H     0.89562   0.20006   0.92964   0.00000  Uiso   1.00
H624   H     0.60438   0.13327   0.73702   0.00000  Uiso   1.00
H625   H     0.95059   0.11503   0.67837   0.00000  Uiso   1.00
H626   H     0.54941   0.21831   0.98829   0.00000  Uiso   1.00
H627   H     0.53159   0.11448   0.68036   0.00000  Uiso   1.00
H628   H     0.96841   0.21885   0.98631   0.00000  Uiso   1.00
H629   H     0.71504   0.12611   0.98274   0.00000  Uiso   1.00
H630   H     0.78496   0.20723   0.68393   0.00000  Uiso   1.00
N631   N     0.73744   0.15214   0.67951   0.00000  Uiso   1.00
N632   N     0.76255   0.18119   0.98716   0.00000  Uiso   1.00
O633   O     0.75325   0.09538   0.87326   0.00000  Uiso   1.00
O634   O     0.74674   0.23796   0.79341   0.00000  Uiso   1.00
O635   O     0.74480   0.08559   0.76945   0.00000  Uiso   1.00
O636   O     0.75520   0.24774   0.89721   0.00000  Uiso   1.00
O637   O     0.68935   0.17155   0.88524   0.00000  Uiso   1.00
O638   O     0.81064   0.16179   0.78143   0.00000  Uiso   1.00
O639   O     0.68090   0.16176   0.78143   0.00000  Uiso   1.00
O640   O     0.81910   0.17157   0.88523   0.00000  Uiso   1.00
F641   F     0.87797   0.13014   0.72218   0.00000  Uiso   1.00
F642   F     0.62203   0.20319   0.94449   0.00000  Uiso   1.00
F643   F     0.74354   0.31557   0.74966   0.00000  Uiso   1.00
F644   F     0.75646   0.01776   0.91701   0.00000  Uiso   1.00
C645   C     0.24866   0.40002   0.81788   0.00000  Uiso   1.00
C646   C     0.25133   0.59998   0.84879   0.00000  Uiso   1.00
C647   C     0.01658   0.46245   0.72304   0.00000  Uiso   1.00
C648   C     0.48342   0.53755   0.94362   0.00000  Uiso   1.00
C649   C     0.24807   0.34436   0.80903   0.00000  Uiso   1.00
C650   C     0.25193   0.65564   0.85764   0.00000  Uiso   1.00
C651   C     0.16435   0.49992   0.83414   0.00000  Uiso   1.00
C652   C     0.33565   0.50008   0.83253   0.00000  Uiso   1.00
C653   C     0.41073   0.51886   0.88697   0.00000  Uiso   1.00
C654   C     0.08927   0.48114   0.77969   0.00000  Uiso   1.00
C655   C     0.38403   0.50041   0.83141   0.00000  Uiso   1.00
C656   C     0.11597   0.49959   0.83526   0.00000  Uiso   1.00
C657   C     0.40371   0.48200   0.77607   0.00000  Uiso   1.00
C658   C     0.09629   0.51800   0.89060   0.00000  Uiso   1.00
C659   C     0.45009   0.48162   0.77656   0.00000  Uiso   1.00
C660   C     0.04991   0.51838   0.89010   0.00000  Uiso   1.00
C661   C     0.47672   0.50016   0.83281   0.00000  Uiso   1.00
C662   C     0.02328   0.49984   0.83385   0.00000  Uiso   1.00
C663   C     0.45687   0.51898   0.88807   0.00000  Uiso   1.00
C664   C     0.04313   0.48102   0.77860   0.00000  Uiso   1.00
C665   C     0.47035   0.46277   0.72198   0.00000  Uiso   1.00
C666   C     0.02965   0.53723   0.94468   0.00000  Uiso   1.00
Cu667  Cu    0.25500   0.50579   0.89479   0.00000  Uiso   1.00
Cu668  Cu    0.24499   0.49421   0.77187   0.00000  Uiso   1.00
H669   H     0.39562   0.53340   0.92964   0.00000  Uiso   1.00
H670   H     0.10438   0.46660   0.73702   0.00000  Uiso   1.00
H671   H     0.45059   0.44836   0.67837   0.00000  Uiso   1.00
H672   H     0.04941   0.55164   0.98829   0.00000  Uiso   1.00
H673   H     0.03159   0.44782   0.68036   0.00000  Uiso   1.00
H674   H     0.46841   0.55219   0.98631   0.00000  Uiso   1.00
H675   H     0.21504   0.45944   0.98274   0.00000  Uiso   1.00
H676   H     0.28496   0.54056   0.68393   0.00000  Uiso   1.00
N677   N     0.23744   0.48547   0.67951   0.00000  Uiso   1.00
N678   N     0.26255   0.51453   0.98716   0.00000  Uiso   1.00
O679   O     0.25325   0.42871   0.87326   0.00000  Uiso   1.00
O680   O     0.24674   0.57129   0.79341   0.00000  Uiso   1.00
O681   O     0.24480   0.41892   0.76945   0.00000  Uiso   1.00
O682   O     0.25520   0.58108   0.89721   0.00000  Uiso   1.00
O683   O     0.18935   0.50488   0.88524   0.00000  Uiso   1.00
O684   O     0.31064   0.49512   0.78143   0.00000  Uiso   1.00
O685   O     0.18090   0.49510   0.78143   0.00000  Uiso   1.00
O686   O     0.31910   0.50490   0.88523   0.00000  Uiso   1.00
F687   F     0.37797   0.46348   0.72218   0.00000  Uiso   1.00
F688   F     0.12203   0.53652   0.94449   0.00000  Uiso   1.00
F689   F     0.24354   0.64891   0.74966   0.00000  Uiso   1.00
F690   F     0.25646   0.35109   0.91701   0.00000  Uiso   1.00
C691   C     0.74866   0.40002   0.81788   0.00000  Uiso   1.00
C692   C     0.75133   0.59998   0.84879   0.00000  Uiso   1.00
C693   C     0.51658   0.46245   0.72304   0.00000  Uiso   1.00
C694   C     0.98342   0.53755   0.94362   0.00000  Uiso   1.00
C695   C     0.74807   0.34436   0.80903   0.00000  Uiso   1.00
C696   C     0.75193   0.65564   0.85764   0.00000  Uiso   1.00
C697   C     0.66435   0.49992   0.83414   0.00000  Uiso   1.00
C698   C     0.83565   0.50008   0.83253   0.00000  Uiso   1.00
C699   C     0.91073   0.51886   0.88697   0.00000  Uiso   1.00
C700   C     0.58927   0.48114   0.77969   0.00000  Uiso   1.00
C701   C     0.88403   0.50041   0.83141   0.00000  Uiso   1.00
C702   C     0.61597   0.49959   0.83526   0.00000  Uiso   1.00
C703   C     0.90371   0.48200   0.77607   0.00000  Uiso   1.00
C704   C     0.59629   0.51800   0.89060   0.00000  Uiso   1.00
C705   C     0.95009   0.48162   0.77656   0.00000  Uiso   1.00
C706   C     0.54991   0.51838   0.89010   0.00000  Uiso   1.00
C707   C     0.97672   0.50016   0.83281   0.00000  Uiso   1.00
C708   C     0.52328   0.49984   0.83385   0.00000  Uiso   1.00
C709   C     0.95687   0.51898   0.88807   0.00000  Uiso   1.00
C710   C     0.54313   0.48102   0.77860   0.00000  Uiso   1.00
C711   C     0.97035   0.46277   0.72198   0.00000  Uiso   1.00
C712   C     0.52965   0.53723   0.94468   0.00000  Uiso   1.00
Cu713  Cu    0.75500   0.50579   0.89479   0.00000  Uiso   1.00
Cu714  Cu    0.74499   0.49421   0.77187   0.00000  Uiso   1.00
H715   H     0.89562   0.53340   0.92964   0.00000  Uiso   1.00
H716   H     0.60438   0.46660   0.73702   0.00000  Uiso   1.00
H717   H     0.95059   0.44836   0.67837   0.00000  Uiso   1.00
H718   H     0.54941   0.55164   0.98829   0.00000  Uiso   1.00
H719   H     0.53159   0.44782   0.68036   0.00000  Uiso   1.00
H720   H     0.96841   0.55219   0.98631   0.00000  Uiso   1.00
H721   H     0.71504   0.45944   0.98274   0.00000  Uiso   1.00
H722   H     0.78496   0.54056   0.68393   0.00000  Uiso   1.00
N723   N     0.73744   0.48547   0.67951   0.00000  Uiso   1.00
N724   N     0.76255   0.51453   0.98716   0.00000  Uiso   1.00
O725   O     0.75325   0.42871   0.87326   0.00000  Uiso   1.00
O726   O     0.74674   0.57129   0.79341   0.00000  Uiso   1.00
O727   O     0.74480   0.41892   0.76945   0.00000  Uiso   1.00
O728   O     0.75520   0.58108   0.89721   0.00000  Uiso   1.00
O729   O     0.68935   0.50488   0.88524   0.00000  Uiso   1.00
O730   O     0.81064   0.49512   0.78143   0.00000  Uiso   1.00
O731   O     0.68090   0.49510   0.78143   0.00000  Uiso   1.00
O732   O     0.81910   0.50490   0.88523   0.00000  Uiso   1.00
F733   F     0.87797   0.46348   0.72218   0.00000  Uiso   1.00
F734   F     0.62203   0.53652   0.94449   0.00000  Uiso   1.00
F735   F     0.74354   0.64891   0.74966   0.00000  Uiso   1.00
F736   F     0.75646   0.35109   0.91701   0.00000  Uiso   1.00
C737   C     0.24866   0.73336   0.81788   0.00000  Uiso   1.00
C738   C     0.25133   0.93331   0.84879   0.00000  Uiso   1.00
C739   C     0.01658   0.79578   0.72304   0.00000  Uiso   1.00
C740   C     0.48342   0.87088   0.94362   0.00000  Uiso   1.00
C741   C     0.24807   0.67769   0.80903   0.00000  Uiso   1.00
C742   C     0.25193   0.98897   0.85764   0.00000  Uiso   1.00
C743   C     0.16435   0.83325   0.83414   0.00000  Uiso   1.00
C744   C     0.33565   0.83341   0.83253   0.00000  Uiso   1.00
C745   C     0.41073   0.85219   0.88697   0.00000  Uiso   1.00
C746   C     0.08927   0.81448   0.77969   0.00000  Uiso   1.00
C747   C     0.38403   0.83374   0.83141   0.00000  Uiso   1.00
C748   C     0.11597   0.83293   0.83526   0.00000  Uiso   1.00
C749   C     0.40371   0.81534   0.77607   0.00000  Uiso   1.00
C750   C     0.09629   0.85133   0.89060   0.00000  Uiso   1.00
C751   C     0.45009   0.81495   0.77656   0.00000  Uiso   1.00
C752   C     0.04991   0.85171   0.89010   0.00000  Uiso   1.00
C753   C     0.47672   0.83350   0.83281   0.00000  Uiso   1.00
C754   C     0.02328   0.83317   0.83385   0.00000  Uiso   1.00
C755   C     0.45687   0.85231   0.88807   0.00000  Uiso   1.00
C756   C     0.04313   0.81435   0.77860   0.00000  Uiso   1.00
C757   C     0.47035   0.79611   0.72198   0.00000  Uiso   1.00
C758   C     0.02965   0.87056   0.94468   0.00000  Uiso   1.00
Cu759  Cu    0.25500   0.83913   0.89479   0.00000  Uiso   1.00
Cu760  Cu    0.24499   0.82754   0.77187   0.00000  Uiso   1.00
H761   H     0.39562   0.86673   0.92964   0.00000  Uiso   1.00
H762   H     0.10438   0.79994   0.73702   0.00000  Uiso   1.00
H763   H     0.45059   0.78169   0.67837   0.00000  Uiso   1.00
H764   H     0.04941   0.88497   0.98829   0.00000  Uiso   1.00
H765   H     0.03159   0.78115   0.68036   0.00000  Uiso   1.00
H766   H     0.46841   0.88552   0.98631   0.00000  Uiso   1.00
H767   H     0.21504   0.79277   0.98274   0.00000  Uiso   1.00
H768   H     0.28496   0.87389   0.68393   0.00000  Uiso   1.00
N769   N     0.23744   0.81881   0.67951   0.00000  Uiso   1.00
N770   N     0.26255   0.84786   0.98716   0.00000  Uiso   1.00
O771   O     0.25325   0.76204   0.87326   0.00000  Uiso   1.00
O772   O     0.24674   0.90462   0.79341   0.00000  Uiso   1.00
O773   O     0.24480   0.75226   0.76945   0.00000  Uiso   1.00
O774   O     0.25520   0.91441   0.89721   0.00000  Uiso   1.00
O775   O     0.18935   0.83821   0.88524   0.00000  Uiso   1.00
O776   O     0.31064   0.82845   0.78143   0.00000  Uiso   1.00
O777   O     0.18090   0.82843   0.78143   0.00000  Uiso   1.00
O778   O     0.31910   0.83824   0.88523   0.00000  Uiso   1.00
F779   F     0.37797   0.79681   0.72218   0.00000  Uiso   1.00
F780   F     0.12203   0.86986   0.94449   0.00000  Uiso   1.00
F781   F     0.24354   0.98224   0.74966   0.00000  Uiso   1.00
F782   F     0.25646   0.68443   0.91701   0.00000  Uiso   1.00
C783   C     0.74866   0.73336   0.81788   0.00000  Uiso   1.00
C784   C     0.75133   0.93331   0.84879   0.00000  Uiso   1.00
C785   C     0.51658   0.79578   0.72304   0.00000  Uiso   1.00
C786   C     0.98342   0.87088   0.94362   0.00000  Uiso   1.00
C787   C     0.74807   0.67769   0.80903   0.00000  Uiso   1.00
C788   C     0.75193   0.98897   0.85764   0.00000  Uiso   1.00
C789   C     0.66435   0.83325   0.83414   0.00000  Uiso   1.00
C790   C     0.83565   0.83341   0.83253   0.00000  Uiso   1.00
C791   C     0.91073   0.85219   0.88697   0.00000  Uiso   1.00
C792   C     0.58927   0.81448   0.77969   0.00000  Uiso   1.00
C793   C     0.88403   0.83374   0.83141   0.00000  Uiso   1.00
C794   C     0.61597   0.83293   0.83526   0.00000  Uiso   1.00
C795   C     0.90371   0.81534   0.77607   0.00000  Uiso   1.00
C796   C     0.59629   0.85133   0.89060   0.00000  Uiso   1.00
C797   C     0.95009   0.81495   0.77656   0.00000  Uiso   1.00
C798   C     0.54991   0.85171   0.89010   0.00000  Uiso   1.00
C799   C     0.97672   0.83350   0.83281   0.00000  Uiso   1.00
C800   C     0.52328   0.83317   0.83385   0.00000  Uiso   1.00
C801   C     0.95687   0.85231   0.88807   0.00000  Uiso   1.00
C802   C     0.54313   0.81435   0.77860   0.00000  Uiso   1.00
C803   C     0.97035   0.79611   0.72198   0.00000  Uiso   1.00
C804   C     0.52965   0.87056   0.94468   0.00000  Uiso   1.00
Cu805  Cu    0.75500   0.83913   0.89479   0.00000  Uiso   1.00
Cu806  Cu    0.74499   0.82754   0.77187   0.00000  Uiso   1.00
H807   H     0.89562   0.86673   0.92964   0.00000  Uiso   1.00
H808   H     0.60438   0.79994   0.73702   0.00000  Uiso   1.00
H809   H     0.95059   0.78169   0.67837   0.00000  Uiso   1.00
H810   H     0.54941   0.88497   0.98829   0.00000  Uiso   1.00
H811   H     0.53159   0.78115   0.68036   0.00000  Uiso   1.00
H812   H     0.96841   0.88552   0.98631   0.00000  Uiso   1.00
H813   H     0.71504   0.79277   0.98274   0.00000  Uiso   1.00
H814   H     0.78496   0.87389   0.68393   0.00000  Uiso   1.00
N815   N     0.73744   0.81881   0.67951   0.00000  Uiso   1.00
N816   N     0.76255   0.84786   0.98716   0.00000  Uiso   1.00
O817   O     0.75325   0.76204   0.87326   0.00000  Uiso   1.00
O818   O     0.74674   0.90462   0.79341   0.00000  Uiso   1.00
O819   O     0.74480   0.75226   0.76945   0.00000  Uiso   1.00
O820   O     0.75520   0.91441   0.89721   0.00000  Uiso   1.00
O821   O     0.68935   0.83821   0.88524   0.00000  Uiso   1.00
O822   O     0.81064   0.82845   0.78143   0.00000  Uiso   1.00
O823   O     0.68090   0.82843   0.78143   0.00000  Uiso   1.00
O824   O     0.81910   0.83824   0.88523   0.00000  Uiso   1.00
F825   F     0.87797   0.79681   0.72218   0.00000  Uiso   1.00
F826   F     0.62203   0.86986   0.94449   0.00000  Uiso   1.00
F827   F     0.74354   0.98224   0.74966   0.00000  Uiso   1.00
F828   F     0.75646   0.68443   0.91701   0.00000  Uiso   1.00
loop_
_geom_bond_atom_site_label_1
_geom_bond_atom_site_label_2
_geom_bond_distance
_geom_bond_site_symmetry_2
_ccdc_geom_bond_type
C1     C5      1.426   .     S
C1     O37     1.284   .     A
C1     O35     1.289   .     A
C2     O38     1.284   .     A
C2     O36     1.289   .     A
C2     C6      1.426   .     S
C3     C20     1.401   .     A
C3     H29     1.084   .     S
C3     C67     1.392   1_455 S
C4     C19     1.401   .     A
C4     H30     1.084   .     S
C4     C68     1.392   .     S
C5     C190    1.337   1_545 S
C5     F229    1.364   1_545 S
C6     C97     1.337   .     S
C6     F138    1.364   .     S
C7     O41     1.293   .     A
C7     C12     1.460   .     S
C7     O39     1.297   .     A
C8     O42     1.293   .     A
C8     C11     1.460   .     S
C8     O40     1.297   .     A
C9     H25     1.085   .     S
C9     C11     1.403   .     A
C9     C19     1.389   .     A
C10    H26     1.085   .     S
C10    C12     1.403   .     A
C10    C20     1.389   .     A
C11    C13     1.406   .     A
C12    C14     1.406   .     A
C13    C15     1.397   .     A
C13    F43     1.360   .     S
C14    F44     1.360   .     S
C14    C16     1.397   .     A
C15    C21     1.403   .     A
C15    C17     1.414   .     A
C16    C18     1.414   .     A
C16    C22     1.403   .     A
C17    C19     1.409   .     A
C17    C64     1.402   .     S
C18    C20     1.409   .     A
C18    C63     1.402   1_455 S
C21    H27     1.083   .     S
C21    C49     1.392   .     S
C22    H28     1.083   .     S
C22    C50     1.392   1_455 S
Cu23   Cu24    2.683   .     S
Cu23   O38     1.960   .     S
Cu23   O35     1.966   .     S
Cu23   N34     2.016   .     S
Cu23   O42     1.959   .     S
Cu23   O39     1.973   .     S
Cu24   N33     2.016   .     S
Cu24   O37     1.960   .     S
Cu24   O41     1.959   .     S
Cu24   O36     1.966   .     S
Cu24   O40     1.973   .     S
H31    N309    1.029   .     S
H32    N586    1.029   1_554 S
N33    H583    1.029   1_554 S
N33    N586    1.298   1_554 S
N34    N309    1.298   .     S
N34    H308    1.029   .     S
F45    C97     1.364   .     S
F46    C190    1.364   1_545 S
C47    C51     1.426   .     S
C47    O83     1.284   .     A
C47    O81     1.289   .     A
C48    O84     1.284   .     A
C48    O82     1.289   .     A
C48    C52     1.426   .     S
C49    C66     1.401   .     A
C49    H75     1.084   .     S
C50    C65     1.401   .     A
C50    H76     1.084   .     S
C50    C22     1.392   1_655 S
C51    C236    1.337   1_545 S
C51    F275    1.364   1_545 S
C52    C143    1.337   .     S
C52    F184    1.364   .     S
C53    O87     1.293   .     A
C53    C58     1.460   .     S
C53    O85     1.297   .     A
C54    O88     1.293   .     A
C54    C57     1.460   .     S
C54    O86     1.297   .     A
C55    H71     1.085   .     S
C55    C57     1.403   .     A
C55    C65     1.389   .     A
C56    H72     1.085   .     S
C56    C58     1.403   .     A
C56    C66     1.389   .     A
C57    C59     1.406   .     A
C58    C60     1.406   .     A
C59    C61     1.397   .     A
C59    F89     1.360   .     S
C60    F90     1.360   .     S
C60    C62     1.397   .     A
C61    C67     1.403   .     A
C61    C63     1.414   .     A
C62    C64     1.414   .     A
C62    C68     1.403   .     A
C63    C65     1.409   .     A
C63    C18     1.402   1_655 S
C64    C66     1.409   .     A
C67    H73     1.083   .     S
C67    C3      1.392   1_655 S
C68    H74     1.083   .     S
Cu69   Cu70    2.683   .     S
Cu69   O84     1.960   .     S
Cu69   O81     1.966   .     S
Cu69   N80     2.016   .     S
Cu69   O88     1.959   .     S
Cu69   O85     1.973   .     S
Cu70   N79     2.016   .     S
Cu70   O83     1.960   .     S
Cu70   O87     1.959   .     S
Cu70   O82     1.966   .     S
Cu70   O86     1.973   .     S
H77    N355    1.029   .     S
H78    N632    1.029   1_554 S
N79    H629    1.029   1_554 S
N79    N632    1.298   1_554 S
N80    N355    1.298   .     S
N80    H354    1.029   .     S
F91    C143    1.364   .     S
F92    C236    1.364   1_545 S
C93    C97     1.426   .     S
C93    O129    1.284   .     A
C93    O127    1.289   .     A
C94    O130    1.284   .     A
C94    O128    1.289   .     A
C94    C98     1.426   .     S
C95    C112    1.401   .     A
C95    H121    1.084   .     S
C95    C159    1.392   1_455 S
C96    C111    1.401   .     A
C96    H122    1.084   .     S
C96    C160    1.392   .     S
C98    C189    1.337   .     S
C98    F230    1.364   .     S
C99    O133    1.293   .     A
C99    C104    1.460   .     S
C99    O131    1.297   .     A
C100   O134    1.293   .     A
C100   C103    1.460   .     S
C100   O132    1.297   .     A
C101   H117    1.085   .     S
C101   C103    1.403   .     A
C101   C111    1.389   .     A
C102   H118    1.085   .     S
C102   C104    1.403   .     A
C102   C112    1.389   .     A
C103   C105    1.406   .     A
C104   C106    1.406   .     A
C105   C107    1.397   .     A
C105   F135    1.360   .     S
C106   F136    1.360   .     S
C106   C108    1.397   .     A
C107   C113    1.403   .     A
C107   C109    1.414   .     A
C108   C110    1.414   .     A
C108   C114    1.403   .     A
C109   C111    1.409   .     A
C109   C156    1.402   .     S
C110   C112    1.409   .     A
C110   C155    1.402   1_455 S
C113   H119    1.083   .     S
C113   C141    1.392   .     S
C114   H120    1.083   .     S
C114   C142    1.392   1_455 S
Cu115  Cu116   2.683   .     S
Cu115  O130    1.960   .     S
Cu115  O127    1.966   .     S
Cu115  N126    2.016   .     S
Cu115  O134    1.959   .     S
Cu115  O131    1.973   .     S
Cu116  N125    2.016   .     S
Cu116  O129    1.960   .     S
Cu116  O133    1.959   .     S
Cu116  O128    1.966   .     S
Cu116  O132    1.973   .     S
H123   N401    1.029   .     S
H124   N678    1.029   1_554 S
N125   H675    1.029   1_554 S
N125   N678    1.298   1_554 S
N126   N401    1.298   .     S
N126   H400    1.029   .     S
F137   C189    1.364   .     S
C139   C143    1.426   .     S
C139   O175    1.284   .     A
C139   O173    1.289   .     A
C140   O176    1.284   .     A
C140   O174    1.289   .     A
C140   C144    1.426   .     S
C141   C158    1.401   .     A
C141   H167    1.084   .     S
C142   C157    1.401   .     A
C142   H168    1.084   .     S
C142   C114    1.392   1_655 S
C144   C235    1.337   .     S
C144   F276    1.364   .     S
C145   O179    1.293   .     A
C145   C150    1.460   .     S
C145   O177    1.297   .     A
C146   O180    1.293   .     A
C146   C149    1.460   .     S
C146   O178    1.297   .     A
C147   H163    1.085   .     S
C147   C149    1.403   .     A
C147   C157    1.389   .     A
C148   H164    1.085   .     S
C148   C150    1.403   .     A
C148   C158    1.389   .     A
C149   C151    1.406   .     A
C150   C152    1.406   .     A
C151   C153    1.397   .     A
C151   F181    1.360   .     S
C152   F182    1.360   .     S
C152   C154    1.397   .     A
C153   C159    1.403   .     A
C153   C155    1.414   .     A
C154   C156    1.414   .     A
C154   C160    1.403   .     A
C155   C157    1.409   .     A
C155   C110    1.402   1_655 S
C156   C158    1.409   .     A
C159   H165    1.083   .     S
C159   C95     1.392   1_655 S
C160   H166    1.083   .     S
Cu161  Cu162   2.683   .     S
Cu161  O176    1.960   .     S
Cu161  O173    1.966   .     S
Cu161  N172    2.016   .     S
Cu161  O180    1.959   .     S
Cu161  O177    1.973   .     S
Cu162  N171    2.016   .     S
Cu162  O175    1.960   .     S
Cu162  O179    1.959   .     S
Cu162  O174    1.966   .     S
Cu162  O178    1.973   .     S
H169   N447    1.029   .     S
H170   N724    1.029   1_554 S
N171   H721    1.029   1_554 S
N171   N724    1.298   1_554 S
N172   N447    1.298   .     S
N172   H446    1.029   .     S
F183   C235    1.364   .     S
C185   C189    1.426   .     S
C185   O221    1.284   .     A
C185   O219    1.289   .     A
C186   O222    1.284   .     A
C186   O220    1.289   .     A
C186   C190    1.426   .     S
C187   C204    1.401   .     A
C187   H213    1.084   .     S
C187   C251    1.392   1_455 S
C188   C203    1.401   .     A
C188   H214    1.084   .     S
C188   C252    1.392   .     S
C190   C5      1.337   1_565 S
C190   F46     1.364   1_565 S
C191   O225    1.293   .     A
C191   C196    1.460   .     S
C191   O223    1.297   .     A
C192   O226    1.293   .     A
C192   C195    1.460   .     S
C192   O224    1.297   .     A
C193   H209    1.085   .     S
C193   C195    1.403   .     A
C193   C203    1.389   .     A
C194   H210    1.085   .     S
C194   C196    1.403   .     A
C194   C204    1.389   .     A
C195   C197    1.406   .     A
C196   C198    1.406   .     A
C197   C199    1.397   .     A
C197   F227    1.360   .     S
C198   F228    1.360   .     S
C198   C200    1.397   .     A
C199   C205    1.403   .     A
C199   C201    1.414   .     A
C200   C202    1.414   .     A
C200   C206    1.403   .     A
C201   C203    1.409   .     A
C201   C248    1.402   .     S
C202   C204    1.409   .     A
C202   C247    1.402   1_455 S
C205   H211    1.083   .     S
C205   C233    1.392   .     S
C206   H212    1.083   .     S
C206   C234    1.392   1_455 S
Cu207  Cu208   2.683   .     S
Cu207  O222    1.960   .     S
Cu207  O219    1.966   .     S
Cu207  N218    2.016   .     S
Cu207  O226    1.959   .     S
Cu207  O223    1.973   .     S
Cu208  N217    2.016   .     S
Cu208  O221    1.960   .     S
Cu208  O225    1.959   .     S
Cu208  O220    1.966   .     S
Cu208  O224    1.973   .     S
H215   N493    1.029   .     S
H216   N770    1.029   1_554 S
N217   H767    1.029   1_554 S
N217   N770    1.298   1_554 S
N218   N493    1.298   .     S
N218   H492    1.029   .     S
F229   C5      1.364   1_565 S
C231   C235    1.426   .     S
C231   O267    1.284   .     A
C231   O265    1.289   .     A
C232   O268    1.284   .     A
C232   O266    1.289   .     A
C232   C236    1.426   .     S
C233   C250    1.401   .     A
C233   H259    1.084   .     S
C234   C249    1.401   .     A
C234   H260    1.084   .     S
C234   C206    1.392   1_655 S
C236   C51     1.337   1_565 S
C236   F92     1.364   1_565 S
C237   O271    1.293   .     A
C237   C242    1.460   .     S
C237   O269    1.297   .     A
C238   O272    1.293   .     A
C238   C241    1.460   .     S
C238   O270    1.297   .     A
C239   H255    1.085   .     S
C239   C241    1.403   .     A
C239   C249    1.389   .     A
C240   H256    1.085   .     S
C240   C242    1.403   .     A
C240   C250    1.389   .     A
C241   C243    1.406   .     A
C242   C244    1.406   .     A
C243   C245    1.397   .     A
C243   F273    1.360   .     S
C244   F274    1.360   .     S
C244   C246    1.397   .     A
C245   C251    1.403   .     A
C245   C247    1.414   .     A
C246   C248    1.414   .     A
C246   C252    1.403   .     A
C247   C249    1.409   .     A
C247   C202    1.402   1_655 S
C248   C250    1.409   .     A
C251   H257    1.083   .     S
C251   C187    1.392   1_655 S
C252   H258    1.083   .     S
Cu253  Cu254   2.683   .     S
Cu253  O268    1.960   .     S
Cu253  O265    1.966   .     S
Cu253  N264    2.016   .     S
Cu253  O272    1.959   .     S
Cu253  O269    1.973   .     S
Cu254  N263    2.016   .     S
Cu254  O267    1.960   .     S
Cu254  O271    1.959   .     S
Cu254  O266    1.966   .     S
Cu254  O270    1.973   .     S
H261   N539    1.029   .     S
H262   N816    1.029   1_554 S
N263   H813    1.029   1_554 S
N263   N816    1.298   1_554 S
N264   N539    1.298   .     S
N264   H538    1.029   .     S
F275   C51     1.364   1_565 S
C277   C281    1.426   .     S
C277   O313    1.284   .     A
C277   O311    1.289   .     A
C278   O314    1.284   .     A
C278   O312    1.289   .     A
C278   C282    1.426   .     S
C279   C296    1.401   .     A
C279   H305    1.084   .     S
C279   C343    1.392   1_455 S
C280   C295    1.401   .     A
C280   H306    1.084   .     S
C280   C344    1.392   .     S
C281   C466    1.337   1_545 S
C281   F505    1.364   1_545 S
C282   C373    1.337   .     S
C282   F414    1.364   .     S
C283   O317    1.293   .     A
C283   C288    1.460   .     S
C283   O315    1.297   .     A
C284   O318    1.293   .     A
C284   C287    1.460   .     S
C284   O316    1.297   .     A
C285   H301    1.085   .     S
C285   C287    1.403   .     A
C285   C295    1.389   .     A
C286   H302    1.085   .     S
C286   C288    1.403   .     A
C286   C296    1.389   .     A
C287   C289    1.406   .     A
C288   C290    1.406   .     A
C289   C291    1.397   .     A
C289   F319    1.360   .     S
C290   F320    1.360   .     S
C290   C292    1.397   .     A
C291   C297    1.403   .     A
C291   C293    1.414   .     A
C292   C294    1.414   .     A
C292   C298    1.403   .     A
C293   C295    1.409   .     A
C293   C340    1.402   .     S
C294   C296    1.409   .     A
C294   C339    1.402   1_455 S
C297   H303    1.083   .     S
C297   C325    1.392   .     S
C298   H304    1.083   .     S
C298   C326    1.392   1_455 S
Cu299  Cu300   2.683   .     S
Cu299  O314    1.960   .     S
Cu299  O311    1.966   .     S
Cu299  N310    2.016   .     S
Cu299  O318    1.959   .     S
Cu299  O315    1.973   .     S
Cu300  N309    2.016   .     S
Cu300  O313    1.960   .     S
Cu300  O317    1.959   .     S
Cu300  O312    1.966   .     S
Cu300  O316    1.973   .     S
H307   N585    1.029   .     S
N310   N585    1.298   .     S
N310   H584    1.029   .     S
F321   C373    1.364   .     S
F322   C466    1.364   1_545 S
C323   C327    1.426   .     S
C323   O359    1.284   .     A
C323   O357    1.289   .     A
C324   O360    1.284   .     A
C324   O358    1.289   .     A
C324   C328    1.426   .     S
C325   C342    1.401   .     A
C325   H351    1.084   .     S
C326   C341    1.401   .     A
C326   H352    1.084   .     S
C326   C298    1.392   1_655 S
C327   C512    1.337   1_545 S
C327   F551    1.364   1_545 S
C328   C419    1.337   .     S
C328   F460    1.364   .     S
C329   O363    1.293   .     A
C329   C334    1.460   .     S
C329   O361    1.297   .     A
C330   O364    1.293   .     A
C330   C333    1.460   .     S
C330   O362    1.297   .     A
C331   H347    1.085   .     S
C331   C333    1.403   .     A
C331   C341    1.389   .     A
C332   H348    1.085   .     S
C332   C334    1.403   .     A
C332   C342    1.389   .     A
C333   C335    1.406   .     A
C334   C336    1.406   .     A
C335   C337    1.397   .     A
C335   F365    1.360   .     S
C336   F366    1.360   .     S
C336   C338    1.397   .     A
C337   C343    1.403   .     A
C337   C339    1.414   .     A
C338   C340    1.414   .     A
C338   C344    1.403   .     A
C339   C341    1.409   .     A
C339   C294    1.402   1_655 S
C340   C342    1.409   .     A
C343   H349    1.083   .     S
C343   C279    1.392   1_655 S
C344   H350    1.083   .     S
Cu345  Cu346   2.683   .     S
Cu345  O360    1.960   .     S
Cu345  O357    1.966   .     S
Cu345  N356    2.016   .     S
Cu345  O364    1.959   .     S
Cu345  O361    1.973   .     S
Cu346  N355    2.016   .     S
Cu346  O359    1.960   .     S
Cu346  O363    1.959   .     S
Cu346  O358    1.966   .     S
Cu346  O362    1.973   .     S
H353   N631    1.029   .     S
N356   N631    1.298   .     S
N356   H630    1.029   .     S
F367   C419    1.364   .     S
F368   C512    1.364   1_545 S
C369   C373    1.426   .     S
C369   O405    1.284   .     A
C369   O403    1.289   .     A
C370   O406    1.284   .     A
C370   O404    1.289   .     A
C370   C374    1.426   .     S
C371   C388    1.401   .     A
C371   H397    1.084   .     S
C371   C435    1.392   1_455 S
C372   C387    1.401   .     A
C372   H398    1.084   .     S
C372   C436    1.392   .     S
C374   C465    1.337   .     S
C374   F506    1.364   .     S
C375   O409    1.293   .     A
C375   C380    1.460   .     S
C375   O407    1.297   .     A
C376   O410    1.293   .     A
C376   C379    1.460   .     S
C376   O408    1.297   .     A
C377   H393    1.085   .     S
C377   C379    1.403   .     A
C377   C387    1.389   .     A
C378   H394    1.085   .     S
C378   C380    1.403   .     A
C378   C388    1.389   .     A
C379   C381    1.406   .     A
C380   C382    1.406   .     A
C381   C383    1.397   .     A
C381   F411    1.360   .     S
C382   F412    1.360   .     S
C382   C384    1.397   .     A
C383   C389    1.403   .     A
C383   C385    1.414   .     A
C384   C386    1.414   .     A
C384   C390    1.403   .     A
C385   C387    1.409   .     A
C385   C432    1.402   .     S
C386   C388    1.409   .     A
C386   C431    1.402   1_455 S
C389   H395    1.083   .     S
C389   C417    1.392   .     S
C390   H396    1.083   .     S
C390   C418    1.392   1_455 S
Cu391  Cu392   2.683   .     S
Cu391  O406    1.960   .     S
Cu391  O403    1.966   .     S
Cu391  N402    2.016   .     S
Cu391  O410    1.959   .     S
Cu391  O407    1.973   .     S
Cu392  N401    2.016   .     S
Cu392  O405    1.960   .     S
Cu392  O409    1.959   .     S
Cu392  O404    1.966   .     S
Cu392  O408    1.973   .     S
H399   N677    1.029   .     S
N402   N677    1.298   .     S
N402   H676    1.029   .     S
F413   C465    1.364   .     S
C415   C419    1.426   .     S
C415   O451    1.284   .     A
C415   O449    1.289   .     A
C416   O452    1.284   .     A
C416   O450    1.289   .     A
C416   C420    1.426   .     S
C417   C434    1.401   .     A
C417   H443    1.084   .     S
C418   C433    1.401   .     A
C418   H444    1.084   .     S
C418   C390    1.392   1_655 S
C420   C511    1.337   .     S
C420   F552    1.364   .     S
C421   O455    1.293   .     A
C421   C426    1.460   .     S
C421   O453    1.297   .     A
C422   O456    1.293   .     A
C422   C425    1.460   .     S
C422   O454    1.297   .     A
C423   H439    1.085   .     S
C423   C425    1.403   .     A
C423   C433    1.389   .     A
C424   H440    1.085   .     S
C424   C426    1.403   .     A
C424   C434    1.389   .     A
C425   C427    1.406   .     A
C426   C428    1.406   .     A
C427   C429    1.397   .     A
C427   F457    1.360   .     S
C428   F458    1.360   .     S
C428   C430    1.397   .     A
C429   C435    1.403   .     A
C429   C431    1.414   .     A
C430   C432    1.414   .     A
C430   C436    1.403   .     A
C431   C433    1.409   .     A
C431   C386    1.402   1_655 S
C432   C434    1.409   .     A
C435   H441    1.083   .     S
C435   C371    1.392   1_655 S
C436   H442    1.083   .     S
Cu437  Cu438   2.683   .     S
Cu437  O452    1.960   .     S
Cu437  O449    1.966   .     S
Cu437  N448    2.016   .     S
Cu437  O456    1.959   .     S
Cu437  O453    1.973   .     S
Cu438  N447    2.016   .     S
Cu438  O451    1.960   .     S
Cu438  O455    1.959   .     S
Cu438  O450    1.966   .     S
Cu438  O454    1.973   .     S
H445   N723    1.029   .     S
N448   N723    1.298   .     S
N448   H722    1.029   .     S
F459   C511    1.364   .     S
C461   C465    1.426   .     S
C461   O497    1.284   .     A
C461   O495    1.289   .     A
C462   O498    1.284   .     A
C462   O496    1.289   .     A
C462   C466    1.426   .     S
C463   C480    1.401   .     A
C463   H489    1.084   .     S
C463   C527    1.392   1_455 S
C464   C479    1.401   .     A
C464   H490    1.084   .     S
C464   C528    1.392   .     S
C466   C281    1.337   1_565 S
C466   F322    1.364   1_565 S
C467   O501    1.293   .     A
C467   C472    1.460   .     S
C467   O499    1.297   .     A
C468   O502    1.293   .     A
C468   C471    1.460   .     S
C468   O500    1.297   .     A
C469   H485    1.085   .     S
C469   C471    1.403   .     A
C469   C479    1.389   .     A
C470   H486    1.085   .     S
C470   C472    1.403   .     A
C470   C480    1.389   .     A
C471   C473    1.406   .     A
C472   C474    1.406   .     A
C473   C475    1.397   .     A
C473   F503    1.360   .     S
C474   F504    1.360   .     S
C474   C476    1.397   .     A
C475   C481    1.403   .     A
C475   C477    1.414   .     A
C476   C478    1.414   .     A
C476   C482    1.403   .     A
C477   C479    1.409   .     A
C477   C524    1.402   .     S
C478   C480    1.409   .     A
C478   C523    1.402   1_455 S
C481   H487    1.083   .     S
C481   C509    1.392   .     S
C482   H488    1.083   .     S
C482   C510    1.392   1_455 S
Cu483  Cu484   2.683   .     S
Cu483  O498    1.960   .     S
Cu483  O495    1.966   .     S
Cu483  N494    2.016   .     S
Cu483  O502    1.959   .     S
Cu483  O499    1.973   .     S
Cu484  N493    2.016   .     S
Cu484  O497    1.960   .     S
Cu484  O501    1.959   .     S
Cu484  O496    1.966   .     S
Cu484  O500    1.973   .     S
H491   N769    1.029   .     S
N494   N769    1.298   .     S
N494   H768    1.029   .     S
F505   C281    1.364   1_565 S
C507   C511    1.426   .     S
C507   O543    1.284   .     A
C507   O541    1.289   .     A
C508   O544    1.284   .     A
C508   O542    1.289   .     A
C508   C512    1.426   .     S
C509   C526    1.401   .     A
C509   H535    1.084   .     S
C510   C525    1.401   .     A
C510   H536    1.084   .     S
C510   C482    1.392   1_655 S
C512   C327    1.337   1_565 S
C512   F368    1.364   1_565 S
C513   O547    1.293   .     A
C513   C518    1.460   .     S
C513   O545    1.297   .     A
C514   O548    1.293   .     A
C514   C517    1.460   .     S
C514   O546    1.297   .     A
C515   H531    1.085   .     S
C515   C517    1.403   .     A
C515   C525    1.389   .     A
C516   H532    1.085   .     S
C516   C518    1.403   .     A
C516   C526    1.389   .     A
C517   C519    1.406   .     A
C518   C520    1.406   .     A
C519   C521    1.397   .     A
C519   F549    1.360   .     S
C520   F550    1.360   .     S
C520   C522    1.397   .     A
C521   C527    1.403   .     A
C521   C523    1.414   .     A
C522   C524    1.414   .     A
C522   C528    1.403   .     A
C523   C525    1.409   .     A
C523   C478    1.402   1_655 S
C524   C526    1.409   .     A
C527   H533    1.083   .     S
C527   C463    1.392   1_655 S
C528   H534    1.083   .     S
Cu529  Cu530   2.683   .     S
Cu529  O544    1.960   .     S
Cu529  O541    1.966   .     S
Cu529  N540    2.016   .     S
Cu529  O548    1.959   .     S
Cu529  O545    1.973   .     S
Cu530  N539    2.016   .     S
Cu530  O543    1.960   .     S
Cu530  O547    1.959   .     S
Cu530  O542    1.966   .     S
Cu530  O546    1.973   .     S
H537   N815    1.029   .     S
N540   N815    1.298   .     S
N540   H814    1.029   .     S
F551   C327    1.364   1_565 S
C553   C557    1.426   .     S
C553   O589    1.284   .     A
C553   O587    1.289   .     A
C554   O590    1.284   .     A
C554   O588    1.289   .     A
C554   C558    1.426   .     S
C555   C572    1.401   .     A
C555   H581    1.084   .     S
C555   C619    1.392   1_455 S
C556   C571    1.401   .     A
C556   H582    1.084   .     S
C556   C620    1.392   .     S
C557   C742    1.337   1_545 S
C557   F781    1.364   1_545 S
C558   C649    1.337   .     S
C558   F690    1.364   .     S
C559   O593    1.293   .     A
C559   C564    1.460   .     S
C559   O591    1.297   .     A
C560   O594    1.293   .     A
C560   C563    1.460   .     S
C560   O592    1.297   .     A
C561   H577    1.085   .     S
C561   C563    1.403   .     A
C561   C571    1.389   .     A
C562   H578    1.085   .     S
C562   C564    1.403   .     A
C562   C572    1.389   .     A
C563   C565    1.406   .     A
C564   C566    1.406   .     A
C565   C567    1.397   .     A
C565   F595    1.360   .     S
C566   F596    1.360   .     S
C566   C568    1.397   .     A
C567   C573    1.403   .     A
C567   C569    1.414   .     A
C568   C570    1.414   .     A
C568   C574    1.403   .     A
C569   C571    1.409   .     A
C569   C616    1.402   .     S
C570   C572    1.409   .     A
C570   C615    1.402   1_455 S
C573   H579    1.083   .     S
C573   C601    1.392   .     S
C574   H580    1.083   .     S
C574   C602    1.392   1_455 S
Cu575  Cu576   2.683   .     S
Cu575  O590    1.960   .     S
Cu575  O587    1.966   .     S
Cu575  N586    2.016   .     S
Cu575  O594    1.959   .     S
Cu575  O591    1.973   .     S
Cu576  N585    2.016   .     S
Cu576  O589    1.960   .     S
Cu576  O593    1.959   .     S
Cu576  O588    1.966   .     S
Cu576  O592    1.973   .     S
H583   N33     1.029   1_556 S
N586   N33     1.298   1_556 S
N586   H32     1.029   1_556 S
F597   C649    1.364   .     S
F598   C742    1.364   1_545 S
C599   C603    1.426   .     S
C599   O635    1.284   .     A
C599   O633    1.289   .     A
C600   O636    1.284   .     A
C600   O634    1.289   .     A
C600   C604    1.426   .     S
C601   C618    1.401   .     A
C601   H627    1.084   .     S
C602   C617    1.401   .     A
C602   H628    1.084   .     S
C602   C574    1.392   1_655 S
C603   C788    1.337   1_545 S
C603   F827    1.364   1_545 S
C604   C695    1.337   .     S
C604   F736    1.364   .     S
C605   O639    1.293   .     A
C605   C610    1.460   .     S
C605   O637    1.297   .     A
C606   O640    1.293   .     A
C606   C609    1.460   .     S
C606   O638    1.297   .     A
C607   H623    1.085   .     S
C607   C609    1.403   .     A
C607   C617    1.389   .     A
C608   H624    1.085   .     S
C608   C610    1.403   .     A
C608   C618    1.389   .     A
C609   C611    1.406   .     A
C610   C612    1.406   .     A
C611   C613    1.397   .     A
C611   F641    1.360   .     S
C612   F642    1.360   .     S
C612   C614    1.397   .     A
C613   C619    1.403   .     A
C613   C615    1.414   .     A
C614   C616    1.414   .     A
C614   C620    1.403   .     A
C615   C617    1.409   .     A
C615   C570    1.402   1_655 S
C616   C618    1.409   .     A
C619   H625    1.083   .     S
C619   C555    1.392   1_655 S
C620   H626    1.083   .     S
Cu621  Cu622   2.683   .     S
Cu621  O636    1.960   .     S
Cu621  O633    1.966   .     S
Cu621  N632    2.016   .     S
Cu621  O640    1.959   .     S
Cu621  O637    1.973   .     S
Cu622  N631    2.016   .     S
Cu622  O635    1.960   .     S
Cu622  O639    1.959   .     S
Cu622  O634    1.966   .     S
Cu622  O638    1.973   .     S
H629   N79     1.029   1_556 S
N632   N79     1.298   1_556 S
N632   H78     1.029   1_556 S
F643   C695    1.364   .     S
F644   C788    1.364   1_545 S
C645   C649    1.426   .     S
C645   O681    1.284   .     A
C645   O679    1.289   .     A
C646   O682    1.284   .     A
C646   O680    1.289   .     A
C646   C650    1.426   .     S
C647   C664    1.401   .     A
C647   H673    1.084   .     S
C647   C711    1.392   1_455 S
C648   C663    1.401   .     A
C648   H674    1.084   .     S
C648   C712    1.392   .     S
C650   C741    1.337   .     S
C650   F782    1.364   .     S
C651   O685    1.293   .     A
C651   C656    1.460   .     S
C651   O683    1.297   .     A
C652   O686    1.293   .     A
C652   C655    1.460   .     S
C652   O684    1.297   .     A
C653   H669    1.085   .     S
C653   C655    1.403   .     A
C653   C663    1.389   .     A
C654   H670    1.085   .     S
C654   C656    1.403   .     A
C654   C664    1.389   .     A
C655   C657    1.406   .     A
C656   C658    1.406   .     A
C657   C659    1.397   .     A
C657   F687    1.360   .     S
C658   F688    1.360   .     S
C658   C660    1.397   .     A
C659   C665    1.403   .     A
C659   C661    1.414   .     A
C660   C662    1.414   .     A
C660   C666    1.403   .     A
C661   C663    1.409   .     A
C661   C708    1.402   .     S
C662   C664    1.409   .     A
C662   C707    1.402   1_455 S
C665   H671    1.083   .     S
C665   C693    1.392   .     S
C666   H672    1.083   .     S
C666   C694    1.392   1_455 S
Cu667  Cu668   2.683   .     S
Cu667  O682    1.960   .     S
Cu667  O679    1.966   .     S
Cu667  N678    2.016   .     S
Cu667  O686    1.959   .     S
Cu667  O683    1.973   .     S
Cu668  N677    2.016   .     S
Cu668  O681    1.960   .     S
Cu668  O685    1.959   .     S
Cu668  O680    1.966   .     S
Cu668  O684    1.973   .     S
H675   N125    1.029   1_556 S
N678   N125    1.298   1_556 S
N678   H124    1.029   1_556 S
F689   C741    1.364   .     S
C691   C695    1.426   .     S
C691   O727    1.284   .     A
C691   O725    1.289   .     A
C692   O728    1.284   .     A
C692   O726    1.289   .     A
C692   C696    1.426   .     S
C693   C710    1.401   .     A
C693   H719    1.084   .     S
C694   C709    1.401   .     A
C694   H720    1.084   .     S
C694   C666    1.392   1_655 S
C696   C787    1.337   .     S
C696   F828    1.364   .     S
C697   O731    1.293   .     A
C697   C702    1.460   .     S
C697   O729    1.297   .     A
C698   O732    1.293   .     A
C698   C701    1.460   .     S
C698   O730    1.297   .     A
C699   H715    1.085   .     S
C699   C701    1.403   .     A
C699   C709    1.389   .     A
C700   H716    1.085   .     S
C700   C702    1.403   .     A
C700   C710    1.389   .     A
C701   C703    1.406   .     A
C702   C704    1.406   .     A
C703   C705    1.397   .     A
C703   F733    1.360   .     S
C704   F734    1.360   .     S
C704   C706    1.397   .     A
C705   C711    1.403   .     A
C705   C707    1.414   .     A
C706   C708    1.414   .     A
C706   C712    1.403   .     A
C707   C709    1.409   .     A
C707   C662    1.402   1_655 S
C708   C710    1.409   .     A
C711   H717    1.083   .     S
C711   C647    1.392   1_655 S
C712   H718    1.083   .     S
Cu713  Cu714   2.683   .     S
Cu713  O728    1.960   .     S
Cu713  O725    1.966   .     S
Cu713  N724    2.016   .     S
Cu713  O732    1.959   .     S
Cu713  O729    1.973   .     S
Cu714  N723    2.016   .     S
Cu714  O727    1.960   .     S
Cu714  O731    1.959   .     S
Cu714  O726    1.966   .     S
Cu714  O730    1.973   .     S
H721   N171    1.029   1_556 S
N724   N171    1.298   1_556 S
N724   H170    1.029   1_556 S
F735   C787    1.364   .     S
C737   C741    1.426   .     S
C737   O773    1.284   .     A
C737   O771    1.289   .     A
C738   O774    1.284   .     A
C738   O772    1.289   .     A
C738   C742    1.426   .     S
C739   C756    1.401   .     A
C739   H765    1.084   .     S
C739   C803    1.392   1_455 S
C740   C755    1.401   .     A
C740   H766    1.084   .     S
C740   C804    1.392   .     S
C742   C557    1.337   1_565 S
C742   F598    1.364   1_565 S
C743   O777    1.293   .     A
C743   C748    1.460   .     S
C743   O775    1.297   .     A
C744   O778    1.293   .     A
C744   C747    1.460   .     S
C744   O776    1.297   .     A
C745   H761    1.085   .     S
C745   C747    1.403   .     A
C745   C755    1.389   .     A
C746   H762    1.085   .     S
C746   C748    1.403   .     A
C746   C756    1.389   .     A
C747   C749    1.406   .     A
C748   C750    1.406   .     A
C749   C751    1.397   .     A
C749   F779    1.360   .     S
C750   F780    1.360   .     S
C750   C752    1.397   .     A
C751   C757    1.403   .     A
C751   C753    1.414   .     A
C752   C754    1.414   .     A
C752   C758    1.403   .     A
C753   C755    1.409   .     A
C753   C800    1.402   .     S
C754   C756    1.409   .     A
C754   C799    1.402   1_455 S
C757   H763    1.083   .     S
C757   C785    1.392   .     S
C758   H764    1.083   .     S
C758   C786    1.392   1_455 S
Cu759  Cu760   2.683   .     S
Cu759  O774    1.960   .     S
Cu759  O771    1.966   .     S
Cu759  N770    2.016   .     S
Cu759  O778    1.959   .     S
Cu759  O775    1.973   .     S
Cu760  N769    2.016   .     S
Cu760  O773    1.960   .     S
Cu760  O777    1.959   .     S
Cu760  O772    1.966   .     S
Cu760  O776    1.973   .     S
H767   N217    1.029   1_556 S
N770   N217    1.298   1_556 S
N770   H216    1.029   1_556 S
F781   C557    1.364   1_565 S
C783   C787    1.426   .     S
C783   O819    1.284   .     A
C783   O817    1.289   .     A
C784   O820    1.284   .     A
C784   O818    1.289   .     A
C784   C788    1.426   .     S
C785   C802    1.401   .     A
C785   H811    1.084   .     S
C786   C801    1.401   .     A
C786   H812    1.084   .     S
C786   C758    1.392   1_655 S
C788   C603    1.337   1_565 S
C788   F644    1.364   1_565 S
C789   O823    1.293   .     A
C789   C794    1.460   .     S
C789   O821    1.297   .     A
C790   O824    1.293   .     A
C790   C793    1.460   .     S
C790   O822    1.297   .     A
C791   H807    1.085   .     S
C791   C793    1.403   .     A
C791   C801    1.389   .     A
C792   H808    1.085   .     S
C792   C794    1.403   .     A
C792   C802    1.389   .     A
C793   C795    1.406   .     A
C794   C796    1.406   .     A
C795   C797    1.397   .     A
C795   F825    1.360   .     S
C796   F826    1.360   .     S
C796   C798    1.397   .     A
C797   C803    1.403   .     A
C797   C799    1.414   .     A
C798   C800    1.414   .     A
C798   C804    1.403   .     A
C799   C801    1.409   .     A
C799   C754    1.402   1_655 S
C800   C802    1.409   .     A
C803   H809    1.083   .     S
C803   C739    1.392   1_655 S
C804   H810    1.083   .     S
Cu805  Cu806   2.683   .     S
Cu805  O820    1.960   .     S
Cu805  O817    1.966   .     S
Cu805  N816    2.016   .     S
Cu805  O824    1.959   .     S
Cu805  O821    1.973   .     S
Cu806  N815    2.016   .     S
Cu806  O819    1.960   .     S
Cu806  O823    1.959   .     S
Cu806  O818    1.966   .     S
Cu806  O822    1.973   .     S
H813   N263    1.029   1_556 S
N816   N263    1.298   1_556 S
N816   H262    1.029   1_556 S
F827   C603    1.364   1_565 S
