data_str_m2_o1_o16_pcu_sym.26
_audit_creation_date              2020-01-03
_audit_creation_method            'Materials Studio'
_symmetry_space_group_name_H-M    'P1'
_symmetry_Int_Tables_number       1
_symmetry_cell_setting            triclinic
loop_
_symmetry_equiv_pos_as_xyz
  x,y,z
_cell_length_a                    28.5480
_cell_length_b                    32.4072
_cell_length_c                    26.9030
_cell_angle_alpha                 90.1314
_cell_angle_beta                  72.4889
_cell_angle_gamma                 90.0936
loop_
_atom_site_label
_atom_site_type_symbol
_atom_site_fract_x
_atom_site_fract_y
_atom_site_fract_z
_atom_site_U_iso_or_equiv
_atom_site_adp_type
_atom_site_occupancy
C1     C     0.16671   0.24591   0.24998   0.00000  Uiso   1.00
C2     C     0.12447   0.16257   0.40746   0.00000  Uiso   1.00
C3     C     0.19563   0.31239   0.27352   0.00000  Uiso   1.00
C4     C     0.14045   0.16444   0.35006   0.00000  Uiso   1.00
C5     C     0.19565   0.02170   0.27238   0.00000  Uiso   1.00
C6     C     0.16793   0.04268   0.24541   0.00000  Uiso   1.00
C7     C     0.14079   0.02055   0.21785   0.00000  Uiso   1.00
C8     C     0.13967   0.31094   0.22113   0.00000  Uiso   1.00
C9     C     0.16707   0.29042   0.24861   0.00000  Uiso   1.00
C10    C     0.29861   0.18986   0.28524   0.00000  Uiso   1.00
C11    C     0.01488   0.18979   0.28529   0.00000  Uiso   1.00
C12    C     0.14444   0.16009   0.48983   0.00000  Uiso   1.00
C13    C     0.03471   0.14355   0.21468   0.00000  Uiso   1.00
C14    C     0.31843   0.14352   0.21473   0.00000  Uiso   1.00
C15    C     0.16720   0.08740   0.24792   0.00000  Uiso   1.00
C16    C     0.19290   0.16600   0.14998   0.00000  Uiso   1.00
C17    C     0.26292   0.13209   0.01437   0.00000  Uiso   1.00
C18    C     0.20769   0.16044   0.09343   0.00000  Uiso   1.00
C19    C     0.07704   0.17639   0.43439   0.00000  Uiso   1.00
C20    C     0.06266   0.18083   0.48814   0.00000  Uiso   1.00
C21    C     0.09600   0.17367   0.01564   0.00000  Uiso   1.00
C22    C     0.11640   0.04114   0.18296   0.00000  Uiso   1.00
C23    C     0.15699   0.15080   0.43585   0.00000  Uiso   1.00
C24    C     0.18069   0.15499   0.01589   0.00000  Uiso   1.00
C25    C     0.22677   0.13705   0.48920   0.00000  Uiso   1.00
C26    C     0.23588   0.12339   0.43810   0.00000  Uiso   1.00
C27    C     0.20129   0.12953   0.41207   0.00000  Uiso   1.00
C28    C     0.17277   0.16766   0.06759   0.00000  Uiso   1.00
C29    C     0.25332   0.14350   0.06641   0.00000  Uiso   1.00
Cu30   Cu    0.11978   0.16666   0.25000   0.00000  Uiso   1.00
Cu31   Cu    0.21355   0.16667   0.25000   0.00000  Uiso   1.00
H32    H     0.28075   0.13768   0.08594   0.00000  Uiso   1.00
H33    H     0.13941   0.18304   0.08909   0.00000  Uiso   1.00
H34    H     0.05117   0.18470   0.41376   0.00000  Uiso   1.00
H35    H     0.08222   0.17811   0.05719   0.00000  Uiso   1.00
H36    H     0.02580   0.19115   0.00853   0.00000  Uiso   1.00
H37    H     0.20944   0.11627   0.37355   0.00000  Uiso   1.00
H38    H     0.21702   0.29658   0.29477   0.00000  Uiso   1.00
H39    H     0.12689   0.07209   0.16869   0.00000  Uiso   1.00
H40    H     0.21674   0.03837   0.29336   0.00000  Uiso   1.00
H41    H     0.11913   0.29324   0.20045   0.00000  Uiso   1.00
H42    H     0.27201   0.20852   0.31342   0.00000  Uiso   1.00
H43    H     0.02563   0.20834   0.31352   0.00000  Uiso   1.00
H44    H     0.06130   0.12508   0.18632   0.00000  Uiso   1.00
H45    H     0.30767   0.12496   0.18651   0.00000  Uiso   1.00
H46    H     0.26998   0.10789   0.41805   0.00000  Uiso   1.00
H47    H     0.29816   0.11842   0.49415   0.00000  Uiso   1.00
N48    N     0.04931   0.16666   0.24998   0.00000  Uiso   1.00
N49    N     0.28402   0.16669   0.24999   0.00000  Uiso   1.00
O50    O     0.12708   0.22678   0.25000   0.00000  Uiso   1.00
O51    O     0.20627   0.22679   0.25000   0.00000  Uiso   1.00
O52    O     0.10775   0.16665   0.32549   0.00000  Uiso   1.00
O53    O     0.18694   0.16666   0.32549   0.00000  Uiso   1.00
O54    O     0.12706   0.10654   0.24999   0.00000  Uiso   1.00
O55    O     0.20625   0.10655   0.24999   0.00000  Uiso   1.00
O56    O     0.14640   0.16667   0.17451   0.00000  Uiso   1.00
O57    O     0.22559   0.16668   0.17451   0.00000  Uiso   1.00
O58    O     0.08485   0.02338   0.16879   0.00000  Uiso   1.00
C59    C     0.50004   0.24591   0.24998   0.00000  Uiso   1.00
C60    C     0.45780   0.16257   0.40746   0.00000  Uiso   1.00
C61    C     0.52897   0.31239   0.27352   0.00000  Uiso   1.00
C62    C     0.47378   0.16444   0.35006   0.00000  Uiso   1.00
C63    C     0.52898   0.02170   0.27238   0.00000  Uiso   1.00
C64    C     0.50126   0.04268   0.24541   0.00000  Uiso   1.00
C65    C     0.47412   0.02055   0.21785   0.00000  Uiso   1.00
C66    C     0.47300   0.31094   0.22113   0.00000  Uiso   1.00
C67    C     0.50040   0.29042   0.24861   0.00000  Uiso   1.00
C68    C     0.63194   0.18986   0.28524   0.00000  Uiso   1.00
C69    C     0.34821   0.18979   0.28529   0.00000  Uiso   1.00
C70    C     0.47778   0.16009   0.48983   0.00000  Uiso   1.00
C71    C     0.36805   0.14355   0.21468   0.00000  Uiso   1.00
C72    C     0.65177   0.14352   0.21473   0.00000  Uiso   1.00
C73    C     0.50053   0.08740   0.24792   0.00000  Uiso   1.00
C74    C     0.52623   0.16600   0.14998   0.00000  Uiso   1.00
C75    C     0.59625   0.13209   0.01437   0.00000  Uiso   1.00
C76    C     0.54102   0.16044   0.09343   0.00000  Uiso   1.00
C77    C     0.41037   0.17639   0.43439   0.00000  Uiso   1.00
C78    C     0.39600   0.18083   0.48814   0.00000  Uiso   1.00
C79    C     0.42934   0.17367   0.01564   0.00000  Uiso   1.00
C80    C     0.44973   0.04114   0.18296   0.00000  Uiso   1.00
C81    C     0.49033   0.15080   0.43585   0.00000  Uiso   1.00
C82    C     0.51402   0.15499   0.01589   0.00000  Uiso   1.00
C83    C     0.56010   0.13705   0.48920   0.00000  Uiso   1.00
C84    C     0.56921   0.12339   0.43810   0.00000  Uiso   1.00
C85    C     0.53462   0.12953   0.41207   0.00000  Uiso   1.00
C86    C     0.50610   0.16766   0.06759   0.00000  Uiso   1.00
C87    C     0.58665   0.14350   0.06641   0.00000  Uiso   1.00
Cu88   Cu    0.45311   0.16666   0.25000   0.00000  Uiso   1.00
Cu89   Cu    0.54689   0.16667   0.25000   0.00000  Uiso   1.00
H90    H     0.61408   0.13768   0.08594   0.00000  Uiso   1.00
H91    H     0.47274   0.18304   0.08909   0.00000  Uiso   1.00
H92    H     0.38450   0.18470   0.41376   0.00000  Uiso   1.00
H93    H     0.41556   0.17811   0.05719   0.00000  Uiso   1.00
H94    H     0.35914   0.19115   0.00853   0.00000  Uiso   1.00
H95    H     0.54277   0.11627   0.37355   0.00000  Uiso   1.00
H96    H     0.55036   0.29658   0.29477   0.00000  Uiso   1.00
H97    H     0.46023   0.07209   0.16869   0.00000  Uiso   1.00
H98    H     0.55007   0.03837   0.29336   0.00000  Uiso   1.00
H99    H     0.45246   0.29324   0.20045   0.00000  Uiso   1.00
H100   H     0.60534   0.20852   0.31342   0.00000  Uiso   1.00
H101   H     0.35897   0.20834   0.31352   0.00000  Uiso   1.00
H102   H     0.39464   0.12508   0.18632   0.00000  Uiso   1.00
H103   H     0.64101   0.12496   0.18651   0.00000  Uiso   1.00
H104   H     0.60332   0.10789   0.41805   0.00000  Uiso   1.00
H105   H     0.63149   0.11842   0.49415   0.00000  Uiso   1.00
N106   N     0.38265   0.16666   0.24998   0.00000  Uiso   1.00
N107   N     0.61735   0.16669   0.24999   0.00000  Uiso   1.00
O108   O     0.46042   0.22678   0.25000   0.00000  Uiso   1.00
O109   O     0.53961   0.22679   0.25000   0.00000  Uiso   1.00
O110   O     0.44108   0.16665   0.32549   0.00000  Uiso   1.00
O111   O     0.52027   0.16666   0.32549   0.00000  Uiso   1.00
O112   O     0.46039   0.10654   0.24999   0.00000  Uiso   1.00
O113   O     0.53958   0.10655   0.24999   0.00000  Uiso   1.00
O114   O     0.47973   0.16667   0.17451   0.00000  Uiso   1.00
O115   O     0.55892   0.16668   0.17451   0.00000  Uiso   1.00
O116   O     0.41818   0.02338   0.16879   0.00000  Uiso   1.00
C117   C     0.83338   0.24591   0.24998   0.00000  Uiso   1.00
C118   C     0.79113   0.16257   0.40746   0.00000  Uiso   1.00
C119   C     0.86230   0.31239   0.27352   0.00000  Uiso   1.00
C120   C     0.80712   0.16444   0.35006   0.00000  Uiso   1.00
C121   C     0.86232   0.02170   0.27238   0.00000  Uiso   1.00
C122   C     0.83460   0.04268   0.24541   0.00000  Uiso   1.00
C123   C     0.80746   0.02055   0.21785   0.00000  Uiso   1.00
C124   C     0.80633   0.31094   0.22113   0.00000  Uiso   1.00
C125   C     0.83373   0.29042   0.24861   0.00000  Uiso   1.00
C126   C     0.96528   0.18986   0.28524   0.00000  Uiso   1.00
C127   C     0.68154   0.18979   0.28529   0.00000  Uiso   1.00
C128   C     0.81111   0.16009   0.48983   0.00000  Uiso   1.00
C129   C     0.70138   0.14355   0.21468   0.00000  Uiso   1.00
C130   C     0.98510   0.14352   0.21473   0.00000  Uiso   1.00
C131   C     0.83386   0.08740   0.24792   0.00000  Uiso   1.00
C132   C     0.85956   0.16600   0.14998   0.00000  Uiso   1.00
C133   C     0.92959   0.13209   0.01437   0.00000  Uiso   1.00
C134   C     0.87435   0.16044   0.09343   0.00000  Uiso   1.00
C135   C     0.74370   0.17639   0.43439   0.00000  Uiso   1.00
C136   C     0.72933   0.18083   0.48814   0.00000  Uiso   1.00
C137   C     0.76267   0.17367   0.01564   0.00000  Uiso   1.00
C138   C     0.78307   0.04114   0.18296   0.00000  Uiso   1.00
C139   C     0.82366   0.15080   0.43585   0.00000  Uiso   1.00
C140   C     0.84735   0.15499   0.01589   0.00000  Uiso   1.00
C141   C     0.89344   0.13705   0.48920   0.00000  Uiso   1.00
C142   C     0.90254   0.12339   0.43810   0.00000  Uiso   1.00
C143   C     0.86795   0.12953   0.41207   0.00000  Uiso   1.00
C144   C     0.83944   0.16766   0.06759   0.00000  Uiso   1.00
C145   C     0.91998   0.14350   0.06641   0.00000  Uiso   1.00
Cu146  Cu    0.78645   0.16666   0.25000   0.00000  Uiso   1.00
Cu147  Cu    0.88022   0.16667   0.25000   0.00000  Uiso   1.00
H148   H     0.94741   0.13768   0.08594   0.00000  Uiso   1.00
H149   H     0.80608   0.18304   0.08909   0.00000  Uiso   1.00
H150   H     0.71784   0.18470   0.41376   0.00000  Uiso   1.00
H151   H     0.74889   0.17811   0.05719   0.00000  Uiso   1.00
H152   H     0.69247   0.19115   0.00853   0.00000  Uiso   1.00
H153   H     0.87611   0.11627   0.37355   0.00000  Uiso   1.00
H154   H     0.88369   0.29658   0.29477   0.00000  Uiso   1.00
H155   H     0.79356   0.07209   0.16869   0.00000  Uiso   1.00
H156   H     0.88340   0.03837   0.29336   0.00000  Uiso   1.00
H157   H     0.78580   0.29324   0.20045   0.00000  Uiso   1.00
H158   H     0.93867   0.20852   0.31342   0.00000  Uiso   1.00
H159   H     0.69230   0.20834   0.31352   0.00000  Uiso   1.00
H160   H     0.72797   0.12508   0.18632   0.00000  Uiso   1.00
H161   H     0.97434   0.12496   0.18651   0.00000  Uiso   1.00
H162   H     0.93665   0.10789   0.41805   0.00000  Uiso   1.00
H163   H     0.96483   0.11842   0.49415   0.00000  Uiso   1.00
N164   N     0.71598   0.16666   0.24998   0.00000  Uiso   1.00
N165   N     0.95069   0.16669   0.24999   0.00000  Uiso   1.00
O166   O     0.79375   0.22678   0.25000   0.00000  Uiso   1.00
O167   O     0.87294   0.22679   0.25000   0.00000  Uiso   1.00
O168   O     0.77441   0.16665   0.32549   0.00000  Uiso   1.00
O169   O     0.85360   0.16666   0.32549   0.00000  Uiso   1.00
O170   O     0.79373   0.10654   0.24999   0.00000  Uiso   1.00
O171   O     0.87292   0.10655   0.24999   0.00000  Uiso   1.00
O172   O     0.81306   0.16667   0.17451   0.00000  Uiso   1.00
O173   O     0.89225   0.16668   0.17451   0.00000  Uiso   1.00
O174   O     0.75152   0.02338   0.16879   0.00000  Uiso   1.00
C175   C     0.16671   0.57925   0.24998   0.00000  Uiso   1.00
C176   C     0.12447   0.49590   0.40746   0.00000  Uiso   1.00
C177   C     0.19563   0.64572   0.27352   0.00000  Uiso   1.00
C178   C     0.14045   0.49778   0.35006   0.00000  Uiso   1.00
C179   C     0.19565   0.35504   0.27238   0.00000  Uiso   1.00
C180   C     0.16793   0.37602   0.24541   0.00000  Uiso   1.00
C181   C     0.14079   0.35388   0.21785   0.00000  Uiso   1.00
C182   C     0.13967   0.64427   0.22113   0.00000  Uiso   1.00
C183   C     0.16707   0.62376   0.24861   0.00000  Uiso   1.00
C184   C     0.29861   0.52320   0.28524   0.00000  Uiso   1.00
C185   C     0.01488   0.52312   0.28529   0.00000  Uiso   1.00
C186   C     0.14444   0.49342   0.48983   0.00000  Uiso   1.00
C187   C     0.03471   0.47689   0.21468   0.00000  Uiso   1.00
C188   C     0.31843   0.47686   0.21473   0.00000  Uiso   1.00
C189   C     0.16720   0.42074   0.24792   0.00000  Uiso   1.00
C190   C     0.19290   0.49933   0.14998   0.00000  Uiso   1.00
C191   C     0.26292   0.46542   0.01437   0.00000  Uiso   1.00
C192   C     0.20769   0.49378   0.09343   0.00000  Uiso   1.00
C193   C     0.07704   0.50972   0.43439   0.00000  Uiso   1.00
C194   C     0.06266   0.51416   0.48814   0.00000  Uiso   1.00
C195   C     0.09600   0.50701   0.01564   0.00000  Uiso   1.00
C196   C     0.11640   0.37448   0.18296   0.00000  Uiso   1.00
C197   C     0.15699   0.48413   0.43585   0.00000  Uiso   1.00
C198   C     0.18069   0.48833   0.01589   0.00000  Uiso   1.00
C199   C     0.22677   0.47038   0.48920   0.00000  Uiso   1.00
C200   C     0.23588   0.45672   0.43810   0.00000  Uiso   1.00
C201   C     0.20129   0.46286   0.41207   0.00000  Uiso   1.00
C202   C     0.17277   0.50099   0.06759   0.00000  Uiso   1.00
C203   C     0.25332   0.47684   0.06641   0.00000  Uiso   1.00
Cu204  Cu    0.11978   0.49999   0.25000   0.00000  Uiso   1.00
Cu205  Cu    0.21355   0.50001   0.25000   0.00000  Uiso   1.00
H206   H     0.28075   0.47101   0.08594   0.00000  Uiso   1.00
H207   H     0.13941   0.51638   0.08909   0.00000  Uiso   1.00
H208   H     0.05117   0.51803   0.41376   0.00000  Uiso   1.00
H209   H     0.08222   0.51145   0.05719   0.00000  Uiso   1.00
H210   H     0.02580   0.52448   0.00853   0.00000  Uiso   1.00
H211   H     0.20944   0.44960   0.37355   0.00000  Uiso   1.00
H212   H     0.21702   0.62992   0.29477   0.00000  Uiso   1.00
H213   H     0.12689   0.40543   0.16869   0.00000  Uiso   1.00
H214   H     0.21674   0.37170   0.29336   0.00000  Uiso   1.00
H215   H     0.11913   0.62657   0.20045   0.00000  Uiso   1.00
H216   H     0.27201   0.54185   0.31342   0.00000  Uiso   1.00
H217   H     0.02563   0.54167   0.31352   0.00000  Uiso   1.00
H218   H     0.06130   0.45841   0.18632   0.00000  Uiso   1.00
H219   H     0.30767   0.45829   0.18651   0.00000  Uiso   1.00
H220   H     0.26998   0.44123   0.41805   0.00000  Uiso   1.00
H221   H     0.29816   0.45176   0.49415   0.00000  Uiso   1.00
N222   N     0.04931   0.49999   0.24998   0.00000  Uiso   1.00
N223   N     0.28402   0.50002   0.24999   0.00000  Uiso   1.00
O224   O     0.12708   0.56011   0.25000   0.00000  Uiso   1.00
O225   O     0.20627   0.56012   0.25000   0.00000  Uiso   1.00
O226   O     0.10775   0.49998   0.32549   0.00000  Uiso   1.00
O227   O     0.18694   0.49999   0.32549   0.00000  Uiso   1.00
O228   O     0.12706   0.43988   0.24999   0.00000  Uiso   1.00
O229   O     0.20625   0.43989   0.24999   0.00000  Uiso   1.00
O230   O     0.14640   0.50001   0.17451   0.00000  Uiso   1.00
O231   O     0.22559   0.50002   0.17451   0.00000  Uiso   1.00
O232   O     0.08485   0.35672   0.16879   0.00000  Uiso   1.00
C233   C     0.50004   0.57925   0.24998   0.00000  Uiso   1.00
C234   C     0.45780   0.49590   0.40746   0.00000  Uiso   1.00
C235   C     0.52897   0.64572   0.27352   0.00000  Uiso   1.00
C236   C     0.47378   0.49778   0.35006   0.00000  Uiso   1.00
C237   C     0.52898   0.35504   0.27238   0.00000  Uiso   1.00
C238   C     0.50126   0.37602   0.24541   0.00000  Uiso   1.00
C239   C     0.47412   0.35388   0.21785   0.00000  Uiso   1.00
C240   C     0.47300   0.64427   0.22113   0.00000  Uiso   1.00
C241   C     0.50040   0.62376   0.24861   0.00000  Uiso   1.00
C242   C     0.63194   0.52320   0.28524   0.00000  Uiso   1.00
C243   C     0.34821   0.52312   0.28529   0.00000  Uiso   1.00
C244   C     0.47778   0.49342   0.48983   0.00000  Uiso   1.00
C245   C     0.36805   0.47689   0.21468   0.00000  Uiso   1.00
C246   C     0.65177   0.47686   0.21473   0.00000  Uiso   1.00
C247   C     0.50053   0.42074   0.24792   0.00000  Uiso   1.00
C248   C     0.52623   0.49933   0.14998   0.00000  Uiso   1.00
C249   C     0.59625   0.46542   0.01437   0.00000  Uiso   1.00
C250   C     0.54102   0.49378   0.09343   0.00000  Uiso   1.00
C251   C     0.41037   0.50972   0.43439   0.00000  Uiso   1.00
C252   C     0.39600   0.51416   0.48814   0.00000  Uiso   1.00
C253   C     0.42934   0.50701   0.01564   0.00000  Uiso   1.00
C254   C     0.44973   0.37448   0.18296   0.00000  Uiso   1.00
C255   C     0.49033   0.48413   0.43585   0.00000  Uiso   1.00
C256   C     0.51402   0.48833   0.01589   0.00000  Uiso   1.00
C257   C     0.56010   0.47038   0.48920   0.00000  Uiso   1.00
C258   C     0.56921   0.45672   0.43810   0.00000  Uiso   1.00
C259   C     0.53462   0.46286   0.41207   0.00000  Uiso   1.00
C260   C     0.50610   0.50099   0.06759   0.00000  Uiso   1.00
C261   C     0.58665   0.47684   0.06641   0.00000  Uiso   1.00
Cu262  Cu    0.45311   0.49999   0.25000   0.00000  Uiso   1.00
Cu263  Cu    0.54689   0.50001   0.25000   0.00000  Uiso   1.00
H264   H     0.61408   0.47101   0.08594   0.00000  Uiso   1.00
H265   H     0.47274   0.51638   0.08909   0.00000  Uiso   1.00
H266   H     0.38450   0.51803   0.41376   0.00000  Uiso   1.00
H267   H     0.41556   0.51145   0.05719   0.00000  Uiso   1.00
H268   H     0.35914   0.52448   0.00853   0.00000  Uiso   1.00
H269   H     0.54277   0.44960   0.37355   0.00000  Uiso   1.00
H270   H     0.55036   0.62992   0.29477   0.00000  Uiso   1.00
H271   H     0.46023   0.40543   0.16869   0.00000  Uiso   1.00
H272   H     0.55007   0.37170   0.29336   0.00000  Uiso   1.00
H273   H     0.45246   0.62657   0.20045   0.00000  Uiso   1.00
H274   H     0.60534   0.54185   0.31342   0.00000  Uiso   1.00
H275   H     0.35897   0.54167   0.31352   0.00000  Uiso   1.00
H276   H     0.39464   0.45841   0.18632   0.00000  Uiso   1.00
H277   H     0.64101   0.45829   0.18651   0.00000  Uiso   1.00
H278   H     0.60332   0.44123   0.41805   0.00000  Uiso   1.00
H279   H     0.63149   0.45176   0.49415   0.00000  Uiso   1.00
N280   N     0.38265   0.49999   0.24998   0.00000  Uiso   1.00
N281   N     0.61735   0.50002   0.24999   0.00000  Uiso   1.00
O282   O     0.46042   0.56011   0.25000   0.00000  Uiso   1.00
O283   O     0.53961   0.56012   0.25000   0.00000  Uiso   1.00
O284   O     0.44108   0.49998   0.32549   0.00000  Uiso   1.00
O285   O     0.52027   0.49999   0.32549   0.00000  Uiso   1.00
O286   O     0.46039   0.43988   0.24999   0.00000  Uiso   1.00
O287   O     0.53958   0.43989   0.24999   0.00000  Uiso   1.00
O288   O     0.47973   0.50001   0.17451   0.00000  Uiso   1.00
O289   O     0.55892   0.50002   0.17451   0.00000  Uiso   1.00
O290   O     0.41818   0.35672   0.16879   0.00000  Uiso   1.00
C291   C     0.83338   0.57925   0.24998   0.00000  Uiso   1.00
C292   C     0.79113   0.49590   0.40746   0.00000  Uiso   1.00
C293   C     0.86230   0.64572   0.27352   0.00000  Uiso   1.00
C294   C     0.80712   0.49778   0.35006   0.00000  Uiso   1.00
C295   C     0.86232   0.35504   0.27238   0.00000  Uiso   1.00
C296   C     0.83460   0.37602   0.24541   0.00000  Uiso   1.00
C297   C     0.80746   0.35388   0.21785   0.00000  Uiso   1.00
C298   C     0.80633   0.64427   0.22113   0.00000  Uiso   1.00
C299   C     0.83373   0.62376   0.24861   0.00000  Uiso   1.00
C300   C     0.96528   0.52320   0.28524   0.00000  Uiso   1.00
C301   C     0.68154   0.52312   0.28529   0.00000  Uiso   1.00
C302   C     0.81111   0.49342   0.48983   0.00000  Uiso   1.00
C303   C     0.70138   0.47689   0.21468   0.00000  Uiso   1.00
C304   C     0.98510   0.47686   0.21473   0.00000  Uiso   1.00
C305   C     0.83386   0.42074   0.24792   0.00000  Uiso   1.00
C306   C     0.85956   0.49933   0.14998   0.00000  Uiso   1.00
C307   C     0.92959   0.46542   0.01437   0.00000  Uiso   1.00
C308   C     0.87435   0.49378   0.09343   0.00000  Uiso   1.00
C309   C     0.74370   0.50972   0.43439   0.00000  Uiso   1.00
C310   C     0.72933   0.51416   0.48814   0.00000  Uiso   1.00
C311   C     0.76267   0.50701   0.01564   0.00000  Uiso   1.00
C312   C     0.78307   0.37448   0.18296   0.00000  Uiso   1.00
C313   C     0.82366   0.48413   0.43585   0.00000  Uiso   1.00
C314   C     0.84735   0.48833   0.01589   0.00000  Uiso   1.00
C315   C     0.89344   0.47038   0.48920   0.00000  Uiso   1.00
C316   C     0.90254   0.45672   0.43810   0.00000  Uiso   1.00
C317   C     0.86795   0.46286   0.41207   0.00000  Uiso   1.00
C318   C     0.83944   0.50099   0.06759   0.00000  Uiso   1.00
C319   C     0.91998   0.47684   0.06641   0.00000  Uiso   1.00
Cu320  Cu    0.78645   0.49999   0.25000   0.00000  Uiso   1.00
Cu321  Cu    0.88022   0.50001   0.25000   0.00000  Uiso   1.00
H322   H     0.94741   0.47101   0.08594   0.00000  Uiso   1.00
H323   H     0.80608   0.51638   0.08909   0.00000  Uiso   1.00
H324   H     0.71784   0.51803   0.41376   0.00000  Uiso   1.00
H325   H     0.74889   0.51145   0.05719   0.00000  Uiso   1.00
H326   H     0.69247   0.52448   0.00853   0.00000  Uiso   1.00
H327   H     0.87611   0.44960   0.37355   0.00000  Uiso   1.00
H328   H     0.88369   0.62992   0.29477   0.00000  Uiso   1.00
H329   H     0.79356   0.40543   0.16869   0.00000  Uiso   1.00
H330   H     0.88340   0.37170   0.29336   0.00000  Uiso   1.00
H331   H     0.78580   0.62657   0.20045   0.00000  Uiso   1.00
H332   H     0.93867   0.54185   0.31342   0.00000  Uiso   1.00
H333   H     0.69230   0.54167   0.31352   0.00000  Uiso   1.00
H334   H     0.72797   0.45841   0.18632   0.00000  Uiso   1.00
H335   H     0.97434   0.45829   0.18651   0.00000  Uiso   1.00
H336   H     0.93665   0.44123   0.41805   0.00000  Uiso   1.00
H337   H     0.96483   0.45176   0.49415   0.00000  Uiso   1.00
N338   N     0.71598   0.49999   0.24998   0.00000  Uiso   1.00
N339   N     0.95069   0.50002   0.24999   0.00000  Uiso   1.00
O340   O     0.79375   0.56011   0.25000   0.00000  Uiso   1.00
O341   O     0.87294   0.56012   0.25000   0.00000  Uiso   1.00
O342   O     0.77441   0.49998   0.32549   0.00000  Uiso   1.00
O343   O     0.85360   0.49999   0.32549   0.00000  Uiso   1.00
O344   O     0.79373   0.43988   0.24999   0.00000  Uiso   1.00
O345   O     0.87292   0.43989   0.24999   0.00000  Uiso   1.00
O346   O     0.81306   0.50001   0.17451   0.00000  Uiso   1.00
O347   O     0.89225   0.50002   0.17451   0.00000  Uiso   1.00
O348   O     0.75152   0.35672   0.16879   0.00000  Uiso   1.00
C349   C     0.16671   0.91258   0.24998   0.00000  Uiso   1.00
C350   C     0.12447   0.82923   0.40746   0.00000  Uiso   1.00
C351   C     0.19563   0.97906   0.27352   0.00000  Uiso   1.00
C352   C     0.14045   0.83111   0.35006   0.00000  Uiso   1.00
C353   C     0.19565   0.68837   0.27238   0.00000  Uiso   1.00
C354   C     0.16793   0.70935   0.24541   0.00000  Uiso   1.00
C355   C     0.14079   0.68722   0.21785   0.00000  Uiso   1.00
C356   C     0.13967   0.97760   0.22113   0.00000  Uiso   1.00
C357   C     0.16707   0.95709   0.24861   0.00000  Uiso   1.00
C358   C     0.29861   0.85653   0.28524   0.00000  Uiso   1.00
C359   C     0.01488   0.85646   0.28529   0.00000  Uiso   1.00
C360   C     0.14444   0.82676   0.48983   0.00000  Uiso   1.00
C361   C     0.03471   0.81022   0.21468   0.00000  Uiso   1.00
C362   C     0.31843   0.81019   0.21473   0.00000  Uiso   1.00
C363   C     0.16720   0.75407   0.24792   0.00000  Uiso   1.00
C364   C     0.19290   0.83267   0.14998   0.00000  Uiso   1.00
C365   C     0.26292   0.79875   0.01437   0.00000  Uiso   1.00
C366   C     0.20769   0.82711   0.09343   0.00000  Uiso   1.00
C367   C     0.07704   0.84306   0.43439   0.00000  Uiso   1.00
C368   C     0.06266   0.84749   0.48814   0.00000  Uiso   1.00
C369   C     0.09600   0.84034   0.01564   0.00000  Uiso   1.00
C370   C     0.11640   0.70781   0.18296   0.00000  Uiso   1.00
C371   C     0.15699   0.81746   0.43585   0.00000  Uiso   1.00
C372   C     0.18069   0.82166   0.01589   0.00000  Uiso   1.00
C373   C     0.22677   0.80372   0.48920   0.00000  Uiso   1.00
C374   C     0.23588   0.79005   0.43810   0.00000  Uiso   1.00
C375   C     0.20129   0.79620   0.41207   0.00000  Uiso   1.00
C376   C     0.17277   0.83432   0.06759   0.00000  Uiso   1.00
C377   C     0.25332   0.81017   0.06641   0.00000  Uiso   1.00
Cu378  Cu    0.11978   0.83333   0.25000   0.00000  Uiso   1.00
Cu379  Cu    0.21355   0.83334   0.25000   0.00000  Uiso   1.00
H380   H     0.28075   0.80435   0.08594   0.00000  Uiso   1.00
H381   H     0.13941   0.84971   0.08909   0.00000  Uiso   1.00
H382   H     0.05117   0.85136   0.41376   0.00000  Uiso   1.00
H383   H     0.08222   0.84478   0.05719   0.00000  Uiso   1.00
H384   H     0.02580   0.85781   0.00853   0.00000  Uiso   1.00
H385   H     0.20944   0.78294   0.37355   0.00000  Uiso   1.00
H386   H     0.21702   0.96325   0.29477   0.00000  Uiso   1.00
H387   H     0.12689   0.73876   0.16869   0.00000  Uiso   1.00
H388   H     0.21674   0.70503   0.29336   0.00000  Uiso   1.00
H389   H     0.11913   0.95990   0.20045   0.00000  Uiso   1.00
H390   H     0.27201   0.87519   0.31342   0.00000  Uiso   1.00
H391   H     0.02563   0.87501   0.31352   0.00000  Uiso   1.00
H392   H     0.06130   0.79174   0.18632   0.00000  Uiso   1.00
H393   H     0.30767   0.79163   0.18651   0.00000  Uiso   1.00
H394   H     0.26998   0.77456   0.41805   0.00000  Uiso   1.00
H395   H     0.29816   0.78509   0.49415   0.00000  Uiso   1.00
N396   N     0.04931   0.83332   0.24998   0.00000  Uiso   1.00
N397   N     0.28402   0.83335   0.24999   0.00000  Uiso   1.00
O398   O     0.12708   0.89345   0.25000   0.00000  Uiso   1.00
O399   O     0.20627   0.89346   0.25000   0.00000  Uiso   1.00
O400   O     0.10775   0.83332   0.32549   0.00000  Uiso   1.00
O401   O     0.18694   0.83333   0.32549   0.00000  Uiso   1.00
O402   O     0.12706   0.77321   0.24999   0.00000  Uiso   1.00
O403   O     0.20625   0.77322   0.24999   0.00000  Uiso   1.00
O404   O     0.14640   0.83334   0.17451   0.00000  Uiso   1.00
O405   O     0.22559   0.83335   0.17451   0.00000  Uiso   1.00
O406   O     0.08485   0.69005   0.16879   0.00000  Uiso   1.00
C407   C     0.50004   0.91258   0.24998   0.00000  Uiso   1.00
C408   C     0.45780   0.82923   0.40746   0.00000  Uiso   1.00
C409   C     0.52897   0.97906   0.27352   0.00000  Uiso   1.00
C410   C     0.47378   0.83111   0.35006   0.00000  Uiso   1.00
C411   C     0.52898   0.68837   0.27238   0.00000  Uiso   1.00
C412   C     0.50126   0.70935   0.24541   0.00000  Uiso   1.00
C413   C     0.47412   0.68722   0.21785   0.00000  Uiso   1.00
C414   C     0.47300   0.97760   0.22113   0.00000  Uiso   1.00
C415   C     0.50040   0.95709   0.24861   0.00000  Uiso   1.00
C416   C     0.63194   0.85653   0.28524   0.00000  Uiso   1.00
C417   C     0.34821   0.85646   0.28529   0.00000  Uiso   1.00
C418   C     0.47778   0.82676   0.48983   0.00000  Uiso   1.00
C419   C     0.36805   0.81022   0.21468   0.00000  Uiso   1.00
C420   C     0.65177   0.81019   0.21473   0.00000  Uiso   1.00
C421   C     0.50053   0.75407   0.24792   0.00000  Uiso   1.00
C422   C     0.52623   0.83267   0.14998   0.00000  Uiso   1.00
C423   C     0.59625   0.79875   0.01437   0.00000  Uiso   1.00
C424   C     0.54102   0.82711   0.09343   0.00000  Uiso   1.00
C425   C     0.41037   0.84306   0.43439   0.00000  Uiso   1.00
C426   C     0.39600   0.84749   0.48814   0.00000  Uiso   1.00
C427   C     0.42934   0.84034   0.01564   0.00000  Uiso   1.00
C428   C     0.44973   0.70781   0.18296   0.00000  Uiso   1.00
C429   C     0.49033   0.81746   0.43585   0.00000  Uiso   1.00
C430   C     0.51402   0.82166   0.01589   0.00000  Uiso   1.00
C431   C     0.56010   0.80372   0.48920   0.00000  Uiso   1.00
C432   C     0.56921   0.79005   0.43810   0.00000  Uiso   1.00
C433   C     0.53462   0.79620   0.41207   0.00000  Uiso   1.00
C434   C     0.50610   0.83432   0.06759   0.00000  Uiso   1.00
C435   C     0.58665   0.81017   0.06641   0.00000  Uiso   1.00
Cu436  Cu    0.45311   0.83333   0.25000   0.00000  Uiso   1.00
Cu437  Cu    0.54689   0.83334   0.25000   0.00000  Uiso   1.00
H438   H     0.61408   0.80435   0.08594   0.00000  Uiso   1.00
H439   H     0.47274   0.84971   0.08909   0.00000  Uiso   1.00
H440   H     0.38450   0.85136   0.41376   0.00000  Uiso   1.00
H441   H     0.41556   0.84478   0.05719   0.00000  Uiso   1.00
H442   H     0.35914   0.85781   0.00853   0.00000  Uiso   1.00
H443   H     0.54277   0.78294   0.37355   0.00000  Uiso   1.00
H444   H     0.55036   0.96325   0.29477   0.00000  Uiso   1.00
H445   H     0.46023   0.73876   0.16869   0.00000  Uiso   1.00
H446   H     0.55007   0.70503   0.29336   0.00000  Uiso   1.00
H447   H     0.45246   0.95990   0.20045   0.00000  Uiso   1.00
H448   H     0.60534   0.87519   0.31342   0.00000  Uiso   1.00
H449   H     0.35897   0.87501   0.31352   0.00000  Uiso   1.00
H450   H     0.39464   0.79174   0.18632   0.00000  Uiso   1.00
H451   H     0.64101   0.79163   0.18651   0.00000  Uiso   1.00
H452   H     0.60332   0.77456   0.41805   0.00000  Uiso   1.00
H453   H     0.63149   0.78509   0.49415   0.00000  Uiso   1.00
N454   N     0.38265   0.83332   0.24998   0.00000  Uiso   1.00
N455   N     0.61735   0.83335   0.24999   0.00000  Uiso   1.00
O456   O     0.46042   0.89345   0.25000   0.00000  Uiso   1.00
O457   O     0.53961   0.89346   0.25000   0.00000  Uiso   1.00
O458   O     0.44108   0.83332   0.32549   0.00000  Uiso   1.00
O459   O     0.52027   0.83333   0.32549   0.00000  Uiso   1.00
O460   O     0.46039   0.77321   0.24999   0.00000  Uiso   1.00
O461   O     0.53958   0.77322   0.24999   0.00000  Uiso   1.00
O462   O     0.47973   0.83334   0.17451   0.00000  Uiso   1.00
O463   O     0.55892   0.83335   0.17451   0.00000  Uiso   1.00
O464   O     0.41818   0.69005   0.16879   0.00000  Uiso   1.00
C465   C     0.83338   0.91258   0.24998   0.00000  Uiso   1.00
C466   C     0.79113   0.82923   0.40746   0.00000  Uiso   1.00
C467   C     0.86230   0.97906   0.27352   0.00000  Uiso   1.00
C468   C     0.80712   0.83111   0.35006   0.00000  Uiso   1.00
C469   C     0.86232   0.68837   0.27238   0.00000  Uiso   1.00
C470   C     0.83460   0.70935   0.24541   0.00000  Uiso   1.00
C471   C     0.80746   0.68722   0.21785   0.00000  Uiso   1.00
C472   C     0.80633   0.97760   0.22113   0.00000  Uiso   1.00
C473   C     0.83373   0.95709   0.24861   0.00000  Uiso   1.00
C474   C     0.96528   0.85653   0.28524   0.00000  Uiso   1.00
C475   C     0.68154   0.85646   0.28529   0.00000  Uiso   1.00
C476   C     0.81111   0.82676   0.48983   0.00000  Uiso   1.00
C477   C     0.70138   0.81022   0.21468   0.00000  Uiso   1.00
C478   C     0.98510   0.81019   0.21473   0.00000  Uiso   1.00
C479   C     0.83386   0.75407   0.24792   0.00000  Uiso   1.00
C480   C     0.85956   0.83267   0.14998   0.00000  Uiso   1.00
C481   C     0.92959   0.79875   0.01437   0.00000  Uiso   1.00
C482   C     0.87435   0.82711   0.09343   0.00000  Uiso   1.00
C483   C     0.74370   0.84306   0.43439   0.00000  Uiso   1.00
C484   C     0.72933   0.84749   0.48814   0.00000  Uiso   1.00
C485   C     0.76267   0.84034   0.01564   0.00000  Uiso   1.00
C486   C     0.78307   0.70781   0.18296   0.00000  Uiso   1.00
C487   C     0.82366   0.81746   0.43585   0.00000  Uiso   1.00
C488   C     0.84735   0.82166   0.01589   0.00000  Uiso   1.00
C489   C     0.89344   0.80372   0.48920   0.00000  Uiso   1.00
C490   C     0.90254   0.79005   0.43810   0.00000  Uiso   1.00
C491   C     0.86795   0.79620   0.41207   0.00000  Uiso   1.00
C492   C     0.83944   0.83432   0.06759   0.00000  Uiso   1.00
C493   C     0.91998   0.81017   0.06641   0.00000  Uiso   1.00
Cu494  Cu    0.78645   0.83333   0.25000   0.00000  Uiso   1.00
Cu495  Cu    0.88022   0.83334   0.25000   0.00000  Uiso   1.00
H496   H     0.94741   0.80435   0.08594   0.00000  Uiso   1.00
H497   H     0.80608   0.84971   0.08909   0.00000  Uiso   1.00
H498   H     0.71784   0.85136   0.41376   0.00000  Uiso   1.00
H499   H     0.74889   0.84478   0.05719   0.00000  Uiso   1.00
H500   H     0.69247   0.85781   0.00853   0.00000  Uiso   1.00
H501   H     0.87611   0.78294   0.37355   0.00000  Uiso   1.00
H502   H     0.88369   0.96325   0.29477   0.00000  Uiso   1.00
H503   H     0.79356   0.73876   0.16869   0.00000  Uiso   1.00
H504   H     0.88340   0.70503   0.29336   0.00000  Uiso   1.00
H505   H     0.78580   0.95990   0.20045   0.00000  Uiso   1.00
H506   H     0.93867   0.87519   0.31342   0.00000  Uiso   1.00
H507   H     0.69230   0.87501   0.31352   0.00000  Uiso   1.00
H508   H     0.72797   0.79174   0.18632   0.00000  Uiso   1.00
H509   H     0.97434   0.79163   0.18651   0.00000  Uiso   1.00
H510   H     0.93665   0.77456   0.41805   0.00000  Uiso   1.00
H511   H     0.96483   0.78509   0.49415   0.00000  Uiso   1.00
N512   N     0.71598   0.83332   0.24998   0.00000  Uiso   1.00
N513   N     0.95069   0.83335   0.24999   0.00000  Uiso   1.00
O514   O     0.79375   0.89345   0.25000   0.00000  Uiso   1.00
O515   O     0.87294   0.89346   0.25000   0.00000  Uiso   1.00
O516   O     0.77441   0.83332   0.32549   0.00000  Uiso   1.00
O517   O     0.85360   0.83333   0.32549   0.00000  Uiso   1.00
O518   O     0.79373   0.77321   0.24999   0.00000  Uiso   1.00
O519   O     0.87292   0.77322   0.24999   0.00000  Uiso   1.00
O520   O     0.81306   0.83334   0.17451   0.00000  Uiso   1.00
O521   O     0.89225   0.83335   0.17451   0.00000  Uiso   1.00
O522   O     0.75152   0.69005   0.16879   0.00000  Uiso   1.00
C523   C     0.16671   0.24591   0.74998   0.00000  Uiso   1.00
C524   C     0.12447   0.16257   0.90746   0.00000  Uiso   1.00
C525   C     0.19563   0.31239   0.77352   0.00000  Uiso   1.00
C526   C     0.14045   0.16444   0.85006   0.00000  Uiso   1.00
C527   C     0.19565   0.02170   0.77238   0.00000  Uiso   1.00
C528   C     0.16793   0.04268   0.74541   0.00000  Uiso   1.00
C529   C     0.14079   0.02055   0.71785   0.00000  Uiso   1.00
C530   C     0.13967   0.31094   0.72113   0.00000  Uiso   1.00
C531   C     0.16707   0.29042   0.74861   0.00000  Uiso   1.00
C532   C     0.29861   0.18986   0.78524   0.00000  Uiso   1.00
C533   C     0.01488   0.18979   0.78529   0.00000  Uiso   1.00
C534   C     0.14444   0.16009   0.98983   0.00000  Uiso   1.00
C535   C     0.03471   0.14355   0.71468   0.00000  Uiso   1.00
C536   C     0.31843   0.14352   0.71473   0.00000  Uiso   1.00
C537   C     0.16720   0.08740   0.74792   0.00000  Uiso   1.00
C538   C     0.19290   0.16600   0.64998   0.00000  Uiso   1.00
C539   C     0.26292   0.13209   0.51437   0.00000  Uiso   1.00
C540   C     0.20769   0.16044   0.59343   0.00000  Uiso   1.00
C541   C     0.07704   0.17639   0.93439   0.00000  Uiso   1.00
C542   C     0.06266   0.18083   0.98814   0.00000  Uiso   1.00
C543   C     0.09600   0.17367   0.51564   0.00000  Uiso   1.00
C544   C     0.11640   0.04114   0.68296   0.00000  Uiso   1.00
C545   C     0.15699   0.15080   0.93585   0.00000  Uiso   1.00
C546   C     0.18069   0.15499   0.51589   0.00000  Uiso   1.00
C547   C     0.22677   0.13705   0.98920   0.00000  Uiso   1.00
C548   C     0.23588   0.12339   0.93810   0.00000  Uiso   1.00
C549   C     0.20129   0.12953   0.91207   0.00000  Uiso   1.00
C550   C     0.17277   0.16766   0.56759   0.00000  Uiso   1.00
C551   C     0.25332   0.14350   0.56641   0.00000  Uiso   1.00
Cu552  Cu    0.11978   0.16666   0.75000   0.00000  Uiso   1.00
Cu553  Cu    0.21355   0.16667   0.75000   0.00000  Uiso   1.00
H554   H     0.28075   0.13768   0.58594   0.00000  Uiso   1.00
H555   H     0.13941   0.18304   0.58909   0.00000  Uiso   1.00
H556   H     0.05117   0.18470   0.91376   0.00000  Uiso   1.00
H557   H     0.08222   0.17811   0.55719   0.00000  Uiso   1.00
H558   H     0.02580   0.19115   0.50853   0.00000  Uiso   1.00
H559   H     0.20944   0.11627   0.87355   0.00000  Uiso   1.00
H560   H     0.21702   0.29658   0.79477   0.00000  Uiso   1.00
H561   H     0.12689   0.07209   0.66869   0.00000  Uiso   1.00
H562   H     0.21674   0.03837   0.79336   0.00000  Uiso   1.00
H563   H     0.11913   0.29324   0.70045   0.00000  Uiso   1.00
H564   H     0.27201   0.20852   0.81342   0.00000  Uiso   1.00
H565   H     0.02563   0.20834   0.81352   0.00000  Uiso   1.00
H566   H     0.06130   0.12508   0.68632   0.00000  Uiso   1.00
H567   H     0.30767   0.12496   0.68651   0.00000  Uiso   1.00
H568   H     0.26998   0.10789   0.91805   0.00000  Uiso   1.00
H569   H     0.29816   0.11842   0.99415   0.00000  Uiso   1.00
N570   N     0.04931   0.16666   0.74998   0.00000  Uiso   1.00
N571   N     0.28402   0.16669   0.74999   0.00000  Uiso   1.00
O572   O     0.12708   0.22678   0.75000   0.00000  Uiso   1.00
O573   O     0.20627   0.22679   0.75000   0.00000  Uiso   1.00
O574   O     0.10775   0.16665   0.82549   0.00000  Uiso   1.00
O575   O     0.18694   0.16666   0.82549   0.00000  Uiso   1.00
O576   O     0.12706   0.10654   0.74999   0.00000  Uiso   1.00
O577   O     0.20625   0.10655   0.74999   0.00000  Uiso   1.00
O578   O     0.14640   0.16667   0.67451   0.00000  Uiso   1.00
O579   O     0.22559   0.16668   0.67451   0.00000  Uiso   1.00
O580   O     0.08485   0.02338   0.66879   0.00000  Uiso   1.00
C581   C     0.50004   0.24591   0.74998   0.00000  Uiso   1.00
C582   C     0.45780   0.16257   0.90746   0.00000  Uiso   1.00
C583   C     0.52897   0.31239   0.77352   0.00000  Uiso   1.00
C584   C     0.47378   0.16444   0.85006   0.00000  Uiso   1.00
C585   C     0.52898   0.02170   0.77238   0.00000  Uiso   1.00
C586   C     0.50126   0.04268   0.74541   0.00000  Uiso   1.00
C587   C     0.47412   0.02055   0.71785   0.00000  Uiso   1.00
C588   C     0.47300   0.31094   0.72113   0.00000  Uiso   1.00
C589   C     0.50040   0.29042   0.74861   0.00000  Uiso   1.00
C590   C     0.63194   0.18986   0.78524   0.00000  Uiso   1.00
C591   C     0.34821   0.18979   0.78529   0.00000  Uiso   1.00
C592   C     0.47778   0.16009   0.98983   0.00000  Uiso   1.00
C593   C     0.36805   0.14355   0.71468   0.00000  Uiso   1.00
C594   C     0.65177   0.14352   0.71473   0.00000  Uiso   1.00
C595   C     0.50053   0.08740   0.74792   0.00000  Uiso   1.00
C596   C     0.52623   0.16600   0.64998   0.00000  Uiso   1.00
C597   C     0.59625   0.13209   0.51437   0.00000  Uiso   1.00
C598   C     0.54102   0.16044   0.59343   0.00000  Uiso   1.00
C599   C     0.41037   0.17639   0.93439   0.00000  Uiso   1.00
C600   C     0.39600   0.18083   0.98814   0.00000  Uiso   1.00
C601   C     0.42934   0.17367   0.51564   0.00000  Uiso   1.00
C602   C     0.44973   0.04114   0.68296   0.00000  Uiso   1.00
C603   C     0.49033   0.15080   0.93585   0.00000  Uiso   1.00
C604   C     0.51402   0.15499   0.51589   0.00000  Uiso   1.00
C605   C     0.56010   0.13705   0.98920   0.00000  Uiso   1.00
C606   C     0.56921   0.12339   0.93810   0.00000  Uiso   1.00
C607   C     0.53462   0.12953   0.91207   0.00000  Uiso   1.00
C608   C     0.50610   0.16766   0.56759   0.00000  Uiso   1.00
C609   C     0.58665   0.14350   0.56641   0.00000  Uiso   1.00
Cu610  Cu    0.45311   0.16666   0.75000   0.00000  Uiso   1.00
Cu611  Cu    0.54689   0.16667   0.75000   0.00000  Uiso   1.00
H612   H     0.61408   0.13768   0.58594   0.00000  Uiso   1.00
H613   H     0.47274   0.18304   0.58909   0.00000  Uiso   1.00
H614   H     0.38450   0.18470   0.91376   0.00000  Uiso   1.00
H615   H     0.41556   0.17811   0.55719   0.00000  Uiso   1.00
H616   H     0.35914   0.19115   0.50853   0.00000  Uiso   1.00
H617   H     0.54277   0.11627   0.87355   0.00000  Uiso   1.00
H618   H     0.55036   0.29658   0.79477   0.00000  Uiso   1.00
H619   H     0.46023   0.07209   0.66869   0.00000  Uiso   1.00
H620   H     0.55007   0.03837   0.79336   0.00000  Uiso   1.00
H621   H     0.45246   0.29324   0.70045   0.00000  Uiso   1.00
H622   H     0.60534   0.20852   0.81342   0.00000  Uiso   1.00
H623   H     0.35897   0.20834   0.81352   0.00000  Uiso   1.00
H624   H     0.39464   0.12508   0.68632   0.00000  Uiso   1.00
H625   H     0.64101   0.12496   0.68651   0.00000  Uiso   1.00
H626   H     0.60332   0.10789   0.91805   0.00000  Uiso   1.00
H627   H     0.63149   0.11842   0.99415   0.00000  Uiso   1.00
N628   N     0.38265   0.16666   0.74998   0.00000  Uiso   1.00
N629   N     0.61735   0.16669   0.74999   0.00000  Uiso   1.00
O630   O     0.46042   0.22678   0.75000   0.00000  Uiso   1.00
O631   O     0.53961   0.22679   0.75000   0.00000  Uiso   1.00
O632   O     0.44108   0.16665   0.82549   0.00000  Uiso   1.00
O633   O     0.52027   0.16666   0.82549   0.00000  Uiso   1.00
O634   O     0.46039   0.10654   0.74999   0.00000  Uiso   1.00
O635   O     0.53958   0.10655   0.74999   0.00000  Uiso   1.00
O636   O     0.47973   0.16667   0.67451   0.00000  Uiso   1.00
O637   O     0.55892   0.16668   0.67451   0.00000  Uiso   1.00
O638   O     0.41818   0.02338   0.66879   0.00000  Uiso   1.00
C639   C     0.83338   0.24591   0.74998   0.00000  Uiso   1.00
C640   C     0.79113   0.16257   0.90746   0.00000  Uiso   1.00
C641   C     0.86230   0.31239   0.77352   0.00000  Uiso   1.00
C642   C     0.80712   0.16444   0.85006   0.00000  Uiso   1.00
C643   C     0.86232   0.02170   0.77238   0.00000  Uiso   1.00
C644   C     0.83460   0.04268   0.74541   0.00000  Uiso   1.00
C645   C     0.80746   0.02055   0.71785   0.00000  Uiso   1.00
C646   C     0.80633   0.31094   0.72113   0.00000  Uiso   1.00
C647   C     0.83373   0.29042   0.74861   0.00000  Uiso   1.00
C648   C     0.96528   0.18986   0.78524   0.00000  Uiso   1.00
C649   C     0.68154   0.18979   0.78529   0.00000  Uiso   1.00
C650   C     0.81111   0.16009   0.98983   0.00000  Uiso   1.00
C651   C     0.70138   0.14355   0.71468   0.00000  Uiso   1.00
C652   C     0.98510   0.14352   0.71473   0.00000  Uiso   1.00
C653   C     0.83386   0.08740   0.74792   0.00000  Uiso   1.00
C654   C     0.85956   0.16600   0.64998   0.00000  Uiso   1.00
C655   C     0.92959   0.13209   0.51437   0.00000  Uiso   1.00
C656   C     0.87435   0.16044   0.59343   0.00000  Uiso   1.00
C657   C     0.74370   0.17639   0.93439   0.00000  Uiso   1.00
C658   C     0.72933   0.18083   0.98814   0.00000  Uiso   1.00
C659   C     0.76267   0.17367   0.51564   0.00000  Uiso   1.00
C660   C     0.78307   0.04114   0.68296   0.00000  Uiso   1.00
C661   C     0.82366   0.15080   0.93585   0.00000  Uiso   1.00
C662   C     0.84735   0.15499   0.51589   0.00000  Uiso   1.00
C663   C     0.89344   0.13705   0.98920   0.00000  Uiso   1.00
C664   C     0.90254   0.12339   0.93810   0.00000  Uiso   1.00
C665   C     0.86795   0.12953   0.91207   0.00000  Uiso   1.00
C666   C     0.83944   0.16766   0.56759   0.00000  Uiso   1.00
C667   C     0.91998   0.14350   0.56641   0.00000  Uiso   1.00
Cu668  Cu    0.78645   0.16666   0.75000   0.00000  Uiso   1.00
Cu669  Cu    0.88022   0.16667   0.75000   0.00000  Uiso   1.00
H670   H     0.94741   0.13768   0.58594   0.00000  Uiso   1.00
H671   H     0.80608   0.18304   0.58909   0.00000  Uiso   1.00
H672   H     0.71784   0.18470   0.91376   0.00000  Uiso   1.00
H673   H     0.74889   0.17811   0.55719   0.00000  Uiso   1.00
H674   H     0.69247   0.19115   0.50853   0.00000  Uiso   1.00
H675   H     0.87611   0.11627   0.87355   0.00000  Uiso   1.00
H676   H     0.88369   0.29658   0.79477   0.00000  Uiso   1.00
H677   H     0.79356   0.07209   0.66869   0.00000  Uiso   1.00
H678   H     0.88340   0.03837   0.79336   0.00000  Uiso   1.00
H679   H     0.78580   0.29324   0.70045   0.00000  Uiso   1.00
H680   H     0.93867   0.20852   0.81342   0.00000  Uiso   1.00
H681   H     0.69230   0.20834   0.81352   0.00000  Uiso   1.00
H682   H     0.72797   0.12508   0.68632   0.00000  Uiso   1.00
H683   H     0.97434   0.12496   0.68651   0.00000  Uiso   1.00
H684   H     0.93665   0.10789   0.91805   0.00000  Uiso   1.00
H685   H     0.96483   0.11842   0.99415   0.00000  Uiso   1.00
N686   N     0.71598   0.16666   0.74998   0.00000  Uiso   1.00
N687   N     0.95069   0.16669   0.74999   0.00000  Uiso   1.00
O688   O     0.79375   0.22678   0.75000   0.00000  Uiso   1.00
O689   O     0.87294   0.22679   0.75000   0.00000  Uiso   1.00
O690   O     0.77441   0.16665   0.82549   0.00000  Uiso   1.00
O691   O     0.85360   0.16666   0.82549   0.00000  Uiso   1.00
O692   O     0.79373   0.10654   0.74999   0.00000  Uiso   1.00
O693   O     0.87292   0.10655   0.74999   0.00000  Uiso   1.00
O694   O     0.81306   0.16667   0.67451   0.00000  Uiso   1.00
O695   O     0.89225   0.16668   0.67451   0.00000  Uiso   1.00
O696   O     0.75152   0.02338   0.66879   0.00000  Uiso   1.00
C697   C     0.16671   0.57925   0.74998   0.00000  Uiso   1.00
C698   C     0.12447   0.49590   0.90746   0.00000  Uiso   1.00
C699   C     0.19563   0.64572   0.77352   0.00000  Uiso   1.00
C700   C     0.14045   0.49778   0.85006   0.00000  Uiso   1.00
C701   C     0.19565   0.35504   0.77238   0.00000  Uiso   1.00
C702   C     0.16793   0.37602   0.74541   0.00000  Uiso   1.00
C703   C     0.14079   0.35388   0.71785   0.00000  Uiso   1.00
C704   C     0.13967   0.64427   0.72113   0.00000  Uiso   1.00
C705   C     0.16707   0.62376   0.74861   0.00000  Uiso   1.00
C706   C     0.29861   0.52320   0.78524   0.00000  Uiso   1.00
C707   C     0.01488   0.52312   0.78529   0.00000  Uiso   1.00
C708   C     0.14444   0.49342   0.98983   0.00000  Uiso   1.00
C709   C     0.03471   0.47689   0.71468   0.00000  Uiso   1.00
C710   C     0.31843   0.47686   0.71473   0.00000  Uiso   1.00
C711   C     0.16720   0.42074   0.74792   0.00000  Uiso   1.00
C712   C     0.19290   0.49933   0.64998   0.00000  Uiso   1.00
C713   C     0.26292   0.46542   0.51437   0.00000  Uiso   1.00
C714   C     0.20769   0.49378   0.59343   0.00000  Uiso   1.00
C715   C     0.07704   0.50972   0.93439   0.00000  Uiso   1.00
C716   C     0.06266   0.51416   0.98814   0.00000  Uiso   1.00
C717   C     0.09600   0.50701   0.51564   0.00000  Uiso   1.00
C718   C     0.11640   0.37448   0.68296   0.00000  Uiso   1.00
C719   C     0.15699   0.48413   0.93585   0.00000  Uiso   1.00
C720   C     0.18069   0.48833   0.51589   0.00000  Uiso   1.00
C721   C     0.22677   0.47038   0.98920   0.00000  Uiso   1.00
C722   C     0.23588   0.45672   0.93810   0.00000  Uiso   1.00
C723   C     0.20129   0.46286   0.91207   0.00000  Uiso   1.00
C724   C     0.17277   0.50099   0.56759   0.00000  Uiso   1.00
C725   C     0.25332   0.47684   0.56641   0.00000  Uiso   1.00
Cu726  Cu    0.11978   0.49999   0.75000   0.00000  Uiso   1.00
Cu727  Cu    0.21355   0.50001   0.75000   0.00000  Uiso   1.00
H728   H     0.28075   0.47101   0.58594   0.00000  Uiso   1.00
H729   H     0.13941   0.51638   0.58909   0.00000  Uiso   1.00
H730   H     0.05117   0.51803   0.91376   0.00000  Uiso   1.00
H731   H     0.08222   0.51145   0.55719   0.00000  Uiso   1.00
H732   H     0.02580   0.52448   0.50853   0.00000  Uiso   1.00
H733   H     0.20944   0.44960   0.87355   0.00000  Uiso   1.00
H734   H     0.21702   0.62992   0.79477   0.00000  Uiso   1.00
H735   H     0.12689   0.40543   0.66869   0.00000  Uiso   1.00
H736   H     0.21674   0.37170   0.79336   0.00000  Uiso   1.00
H737   H     0.11913   0.62657   0.70045   0.00000  Uiso   1.00
H738   H     0.27201   0.54185   0.81342   0.00000  Uiso   1.00
H739   H     0.02563   0.54167   0.81352   0.00000  Uiso   1.00
H740   H     0.06130   0.45841   0.68632   0.00000  Uiso   1.00
H741   H     0.30767   0.45829   0.68651   0.00000  Uiso   1.00
H742   H     0.26998   0.44123   0.91805   0.00000  Uiso   1.00
H743   H     0.29816   0.45176   0.99415   0.00000  Uiso   1.00
N744   N     0.04931   0.49999   0.74998   0.00000  Uiso   1.00
N745   N     0.28402   0.50002   0.74999   0.00000  Uiso   1.00
O746   O     0.12708   0.56011   0.75000   0.00000  Uiso   1.00
O747   O     0.20627   0.56012   0.75000   0.00000  Uiso   1.00
O748   O     0.10775   0.49998   0.82549   0.00000  Uiso   1.00
O749   O     0.18694   0.49999   0.82549   0.00000  Uiso   1.00
O750   O     0.12706   0.43988   0.74999   0.00000  Uiso   1.00
O751   O     0.20625   0.43989   0.74999   0.00000  Uiso   1.00
O752   O     0.14640   0.50001   0.67451   0.00000  Uiso   1.00
O753   O     0.22559   0.50002   0.67451   0.00000  Uiso   1.00
O754   O     0.08485   0.35672   0.66879   0.00000  Uiso   1.00
C755   C     0.50004   0.57925   0.74998   0.00000  Uiso   1.00
C756   C     0.45780   0.49590   0.90746   0.00000  Uiso   1.00
C757   C     0.52897   0.64572   0.77352   0.00000  Uiso   1.00
C758   C     0.47378   0.49778   0.85006   0.00000  Uiso   1.00
C759   C     0.52898   0.35504   0.77238   0.00000  Uiso   1.00
C760   C     0.50126   0.37602   0.74541   0.00000  Uiso   1.00
C761   C     0.47412   0.35388   0.71785   0.00000  Uiso   1.00
C762   C     0.47300   0.64427   0.72113   0.00000  Uiso   1.00
C763   C     0.50040   0.62376   0.74861   0.00000  Uiso   1.00
C764   C     0.63194   0.52320   0.78524   0.00000  Uiso   1.00
C765   C     0.34821   0.52312   0.78529   0.00000  Uiso   1.00
C766   C     0.47778   0.49342   0.98983   0.00000  Uiso   1.00
C767   C     0.36805   0.47689   0.71468   0.00000  Uiso   1.00
C768   C     0.65177   0.47686   0.71473   0.00000  Uiso   1.00
C769   C     0.50053   0.42074   0.74792   0.00000  Uiso   1.00
C770   C     0.52623   0.49933   0.64998   0.00000  Uiso   1.00
C771   C     0.59625   0.46542   0.51437   0.00000  Uiso   1.00
C772   C     0.54102   0.49378   0.59343   0.00000  Uiso   1.00
C773   C     0.41037   0.50972   0.93439   0.00000  Uiso   1.00
C774   C     0.39600   0.51416   0.98814   0.00000  Uiso   1.00
C775   C     0.42934   0.50701   0.51564   0.00000  Uiso   1.00
C776   C     0.44973   0.37448   0.68296   0.00000  Uiso   1.00
C777   C     0.49033   0.48413   0.93585   0.00000  Uiso   1.00
C778   C     0.51402   0.48833   0.51589   0.00000  Uiso   1.00
C779   C     0.56010   0.47038   0.98920   0.00000  Uiso   1.00
C780   C     0.56921   0.45672   0.93810   0.00000  Uiso   1.00
C781   C     0.53462   0.46286   0.91207   0.00000  Uiso   1.00
C782   C     0.50610   0.50099   0.56759   0.00000  Uiso   1.00
C783   C     0.58665   0.47684   0.56641   0.00000  Uiso   1.00
Cu784  Cu    0.45311   0.49999   0.75000   0.00000  Uiso   1.00
Cu785  Cu    0.54689   0.50001   0.75000   0.00000  Uiso   1.00
H786   H     0.61408   0.47101   0.58594   0.00000  Uiso   1.00
H787   H     0.47274   0.51638   0.58909   0.00000  Uiso   1.00
H788   H     0.38450   0.51803   0.91376   0.00000  Uiso   1.00
H789   H     0.41556   0.51145   0.55719   0.00000  Uiso   1.00
H790   H     0.35914   0.52448   0.50853   0.00000  Uiso   1.00
H791   H     0.54277   0.44960   0.87355   0.00000  Uiso   1.00
H792   H     0.55036   0.62992   0.79477   0.00000  Uiso   1.00
H793   H     0.46023   0.40543   0.66869   0.00000  Uiso   1.00
H794   H     0.55007   0.37170   0.79336   0.00000  Uiso   1.00
H795   H     0.45246   0.62657   0.70045   0.00000  Uiso   1.00
H796   H     0.60534   0.54185   0.81342   0.00000  Uiso   1.00
H797   H     0.35897   0.54167   0.81352   0.00000  Uiso   1.00
H798   H     0.39464   0.45841   0.68632   0.00000  Uiso   1.00
H799   H     0.64101   0.45829   0.68651   0.00000  Uiso   1.00
H800   H     0.60332   0.44123   0.91805   0.00000  Uiso   1.00
H801   H     0.63149   0.45176   0.99415   0.00000  Uiso   1.00
N802   N     0.38265   0.49999   0.74998   0.00000  Uiso   1.00
N803   N     0.61735   0.50002   0.74999   0.00000  Uiso   1.00
O804   O     0.46042   0.56011   0.75000   0.00000  Uiso   1.00
O805   O     0.53961   0.56012   0.75000   0.00000  Uiso   1.00
O806   O     0.44108   0.49998   0.82549   0.00000  Uiso   1.00
O807   O     0.52027   0.49999   0.82549   0.00000  Uiso   1.00
O808   O     0.46039   0.43988   0.74999   0.00000  Uiso   1.00
O809   O     0.53958   0.43989   0.74999   0.00000  Uiso   1.00
O810   O     0.47973   0.50001   0.67451   0.00000  Uiso   1.00
O811   O     0.55892   0.50002   0.67451   0.00000  Uiso   1.00
O812   O     0.41818   0.35672   0.66879   0.00000  Uiso   1.00
C813   C     0.83338   0.57925   0.74998   0.00000  Uiso   1.00
C814   C     0.79113   0.49590   0.90746   0.00000  Uiso   1.00
C815   C     0.86230   0.64572   0.77352   0.00000  Uiso   1.00
C816   C     0.80712   0.49778   0.85006   0.00000  Uiso   1.00
C817   C     0.86232   0.35504   0.77238   0.00000  Uiso   1.00
C818   C     0.83460   0.37602   0.74541   0.00000  Uiso   1.00
C819   C     0.80746   0.35388   0.71785   0.00000  Uiso   1.00
C820   C     0.80633   0.64427   0.72113   0.00000  Uiso   1.00
C821   C     0.83373   0.62376   0.74861   0.00000  Uiso   1.00
C822   C     0.96528   0.52320   0.78524   0.00000  Uiso   1.00
C823   C     0.68154   0.52312   0.78529   0.00000  Uiso   1.00
C824   C     0.81111   0.49342   0.98983   0.00000  Uiso   1.00
C825   C     0.70138   0.47689   0.71468   0.00000  Uiso   1.00
C826   C     0.98510   0.47686   0.71473   0.00000  Uiso   1.00
C827   C     0.83386   0.42074   0.74792   0.00000  Uiso   1.00
C828   C     0.85956   0.49933   0.64998   0.00000  Uiso   1.00
C829   C     0.92959   0.46542   0.51437   0.00000  Uiso   1.00
C830   C     0.87435   0.49378   0.59343   0.00000  Uiso   1.00
C831   C     0.74370   0.50972   0.93439   0.00000  Uiso   1.00
C832   C     0.72933   0.51416   0.98814   0.00000  Uiso   1.00
C833   C     0.76267   0.50701   0.51564   0.00000  Uiso   1.00
C834   C     0.78307   0.37448   0.68296   0.00000  Uiso   1.00
C835   C     0.82366   0.48413   0.93585   0.00000  Uiso   1.00
C836   C     0.84735   0.48833   0.51589   0.00000  Uiso   1.00
C837   C     0.89344   0.47038   0.98920   0.00000  Uiso   1.00
C838   C     0.90254   0.45672   0.93810   0.00000  Uiso   1.00
C839   C     0.86795   0.46286   0.91207   0.00000  Uiso   1.00
C840   C     0.83944   0.50099   0.56759   0.00000  Uiso   1.00
C841   C     0.91998   0.47684   0.56641   0.00000  Uiso   1.00
Cu842  Cu    0.78645   0.49999   0.75000   0.00000  Uiso   1.00
Cu843  Cu    0.88022   0.50001   0.75000   0.00000  Uiso   1.00
H844   H     0.94741   0.47101   0.58594   0.00000  Uiso   1.00
H845   H     0.80608   0.51638   0.58909   0.00000  Uiso   1.00
H846   H     0.71784   0.51803   0.91376   0.00000  Uiso   1.00
H847   H     0.74889   0.51145   0.55719   0.00000  Uiso   1.00
H848   H     0.69247   0.52448   0.50853   0.00000  Uiso   1.00
H849   H     0.87611   0.44960   0.87355   0.00000  Uiso   1.00
H850   H     0.88369   0.62992   0.79477   0.00000  Uiso   1.00
H851   H     0.79356   0.40543   0.66869   0.00000  Uiso   1.00
H852   H     0.88340   0.37170   0.79336   0.00000  Uiso   1.00
H853   H     0.78580   0.62657   0.70045   0.00000  Uiso   1.00
H854   H     0.93867   0.54185   0.81342   0.00000  Uiso   1.00
H855   H     0.69230   0.54167   0.81352   0.00000  Uiso   1.00
H856   H     0.72797   0.45841   0.68632   0.00000  Uiso   1.00
H857   H     0.97434   0.45829   0.68651   0.00000  Uiso   1.00
H858   H     0.93665   0.44123   0.91805   0.00000  Uiso   1.00
H859   H     0.96483   0.45176   0.99415   0.00000  Uiso   1.00
N860   N     0.71598   0.49999   0.74998   0.00000  Uiso   1.00
N861   N     0.95069   0.50002   0.74999   0.00000  Uiso   1.00
O862   O     0.79375   0.56011   0.75000   0.00000  Uiso   1.00
O863   O     0.87294   0.56012   0.75000   0.00000  Uiso   1.00
O864   O     0.77441   0.49998   0.82549   0.00000  Uiso   1.00
O865   O     0.85360   0.49999   0.82549   0.00000  Uiso   1.00
O866   O     0.79373   0.43988   0.74999   0.00000  Uiso   1.00
O867   O     0.87292   0.43989   0.74999   0.00000  Uiso   1.00
O868   O     0.81306   0.50001   0.67451   0.00000  Uiso   1.00
O869   O     0.89225   0.50002   0.67451   0.00000  Uiso   1.00
O870   O     0.75152   0.35672   0.66879   0.00000  Uiso   1.00
C871   C     0.16671   0.91258   0.74998   0.00000  Uiso   1.00
C872   C     0.12447   0.82923   0.90746   0.00000  Uiso   1.00
C873   C     0.19563   0.97906   0.77352   0.00000  Uiso   1.00
C874   C     0.14045   0.83111   0.85006   0.00000  Uiso   1.00
C875   C     0.19565   0.68837   0.77238   0.00000  Uiso   1.00
C876   C     0.16793   0.70935   0.74541   0.00000  Uiso   1.00
C877   C     0.14079   0.68722   0.71785   0.00000  Uiso   1.00
C878   C     0.13967   0.97760   0.72113   0.00000  Uiso   1.00
C879   C     0.16707   0.95709   0.74861   0.00000  Uiso   1.00
C880   C     0.29861   0.85653   0.78524   0.00000  Uiso   1.00
C881   C     0.01488   0.85646   0.78529   0.00000  Uiso   1.00
C882   C     0.14444   0.82676   0.98983   0.00000  Uiso   1.00
C883   C     0.03471   0.81022   0.71468   0.00000  Uiso   1.00
C884   C     0.31843   0.81019   0.71473   0.00000  Uiso   1.00
C885   C     0.16720   0.75407   0.74792   0.00000  Uiso   1.00
C886   C     0.19290   0.83267   0.64998   0.00000  Uiso   1.00
C887   C     0.26292   0.79875   0.51437   0.00000  Uiso   1.00
C888   C     0.20769   0.82711   0.59343   0.00000  Uiso   1.00
C889   C     0.07704   0.84306   0.93439   0.00000  Uiso   1.00
C890   C     0.06266   0.84749   0.98814   0.00000  Uiso   1.00
C891   C     0.09600   0.84034   0.51564   0.00000  Uiso   1.00
C892   C     0.11640   0.70781   0.68296   0.00000  Uiso   1.00
C893   C     0.15699   0.81746   0.93585   0.00000  Uiso   1.00
C894   C     0.18069   0.82166   0.51589   0.00000  Uiso   1.00
C895   C     0.22677   0.80372   0.98920   0.00000  Uiso   1.00
C896   C     0.23588   0.79005   0.93810   0.00000  Uiso   1.00
C897   C     0.20129   0.79620   0.91207   0.00000  Uiso   1.00
C898   C     0.17277   0.83432   0.56759   0.00000  Uiso   1.00
C899   C     0.25332   0.81017   0.56641   0.00000  Uiso   1.00
Cu900  Cu    0.11978   0.83333   0.75000   0.00000  Uiso   1.00
Cu901  Cu    0.21355   0.83334   0.75000   0.00000  Uiso   1.00
H902   H     0.28075   0.80435   0.58594   0.00000  Uiso   1.00
H903   H     0.13941   0.84971   0.58909   0.00000  Uiso   1.00
H904   H     0.05117   0.85136   0.91376   0.00000  Uiso   1.00
H905   H     0.08222   0.84478   0.55719   0.00000  Uiso   1.00
H906   H     0.02580   0.85781   0.50853   0.00000  Uiso   1.00
H907   H     0.20944   0.78294   0.87355   0.00000  Uiso   1.00
H908   H     0.21702   0.96325   0.79477   0.00000  Uiso   1.00
H909   H     0.12689   0.73876   0.66869   0.00000  Uiso   1.00
H910   H     0.21674   0.70503   0.79336   0.00000  Uiso   1.00
H911   H     0.11913   0.95990   0.70045   0.00000  Uiso   1.00
H912   H     0.27201   0.87519   0.81342   0.00000  Uiso   1.00
H913   H     0.02563   0.87501   0.81352   0.00000  Uiso   1.00
H914   H     0.06130   0.79174   0.68632   0.00000  Uiso   1.00
H915   H     0.30767   0.79163   0.68651   0.00000  Uiso   1.00
H916   H     0.26998   0.77456   0.91805   0.00000  Uiso   1.00
H917   H     0.29816   0.78509   0.99415   0.00000  Uiso   1.00
N918   N     0.04931   0.83332   0.74998   0.00000  Uiso   1.00
N919   N     0.28402   0.83335   0.74999   0.00000  Uiso   1.00
O920   O     0.12708   0.89345   0.75000   0.00000  Uiso   1.00
O921   O     0.20627   0.89346   0.75000   0.00000  Uiso   1.00
O922   O     0.10775   0.83332   0.82549   0.00000  Uiso   1.00
O923   O     0.18694   0.83333   0.82549   0.00000  Uiso   1.00
O924   O     0.12706   0.77321   0.74999   0.00000  Uiso   1.00
O925   O     0.20625   0.77322   0.74999   0.00000  Uiso   1.00
O926   O     0.14640   0.83334   0.67451   0.00000  Uiso   1.00
O927   O     0.22559   0.83335   0.67451   0.00000  Uiso   1.00
O928   O     0.08485   0.69005   0.66879   0.00000  Uiso   1.00
C929   C     0.50004   0.91258   0.74998   0.00000  Uiso   1.00
C930   C     0.45780   0.82923   0.90746   0.00000  Uiso   1.00
C931   C     0.52897   0.97906   0.77352   0.00000  Uiso   1.00
C932   C     0.47378   0.83111   0.85006   0.00000  Uiso   1.00
C933   C     0.52898   0.68837   0.77238   0.00000  Uiso   1.00
C934   C     0.50126   0.70935   0.74541   0.00000  Uiso   1.00
C935   C     0.47412   0.68722   0.71785   0.00000  Uiso   1.00
C936   C     0.47300   0.97760   0.72113   0.00000  Uiso   1.00
C937   C     0.50040   0.95709   0.74861   0.00000  Uiso   1.00
C938   C     0.63194   0.85653   0.78524   0.00000  Uiso   1.00
C939   C     0.34821   0.85646   0.78529   0.00000  Uiso   1.00
C940   C     0.47778   0.82676   0.98983   0.00000  Uiso   1.00
C941   C     0.36805   0.81022   0.71468   0.00000  Uiso   1.00
C942   C     0.65177   0.81019   0.71473   0.00000  Uiso   1.00
C943   C     0.50053   0.75407   0.74792   0.00000  Uiso   1.00
C944   C     0.52623   0.83267   0.64998   0.00000  Uiso   1.00
C945   C     0.59625   0.79875   0.51437   0.00000  Uiso   1.00
C946   C     0.54102   0.82711   0.59343   0.00000  Uiso   1.00
C947   C     0.41037   0.84306   0.93439   0.00000  Uiso   1.00
C948   C     0.39600   0.84749   0.98814   0.00000  Uiso   1.00
C949   C     0.42934   0.84034   0.51564   0.00000  Uiso   1.00
C950   C     0.44973   0.70781   0.68296   0.00000  Uiso   1.00
C951   C     0.49033   0.81746   0.93585   0.00000  Uiso   1.00
C952   C     0.51402   0.82166   0.51589   0.00000  Uiso   1.00
C953   C     0.56010   0.80372   0.98920   0.00000  Uiso   1.00
C954   C     0.56921   0.79005   0.93810   0.00000  Uiso   1.00
C955   C     0.53462   0.79620   0.91207   0.00000  Uiso   1.00
C956   C     0.50610   0.83432   0.56759   0.00000  Uiso   1.00
C957   C     0.58665   0.81017   0.56641   0.00000  Uiso   1.00
Cu958  Cu    0.45311   0.83333   0.75000   0.00000  Uiso   1.00
Cu959  Cu    0.54689   0.83334   0.75000   0.00000  Uiso   1.00
H960   H     0.61408   0.80435   0.58594   0.00000  Uiso   1.00
H961   H     0.47274   0.84971   0.58909   0.00000  Uiso   1.00
H962   H     0.38450   0.85136   0.91376   0.00000  Uiso   1.00
H963   H     0.41556   0.84478   0.55719   0.00000  Uiso   1.00
H964   H     0.35914   0.85781   0.50853   0.00000  Uiso   1.00
H965   H     0.54277   0.78294   0.87355   0.00000  Uiso   1.00
H966   H     0.55036   0.96325   0.79477   0.00000  Uiso   1.00
H967   H     0.46023   0.73876   0.66869   0.00000  Uiso   1.00
H968   H     0.55007   0.70503   0.79336   0.00000  Uiso   1.00
H969   H     0.45246   0.95990   0.70045   0.00000  Uiso   1.00
H970   H     0.60534   0.87519   0.81342   0.00000  Uiso   1.00
H971   H     0.35897   0.87501   0.81352   0.00000  Uiso   1.00
H972   H     0.39464   0.79174   0.68632   0.00000  Uiso   1.00
H973   H     0.64101   0.79163   0.68651   0.00000  Uiso   1.00
H974   H     0.60332   0.77456   0.91805   0.00000  Uiso   1.00
H975   H     0.63149   0.78509   0.99415   0.00000  Uiso   1.00
N976   N     0.38265   0.83332   0.74998   0.00000  Uiso   1.00
N977   N     0.61735   0.83335   0.74999   0.00000  Uiso   1.00
O978   O     0.46042   0.89345   0.75000   0.00000  Uiso   1.00
O979   O     0.53961   0.89346   0.75000   0.00000  Uiso   1.00
O980   O     0.44108   0.83332   0.82549   0.00000  Uiso   1.00
O981   O     0.52027   0.83333   0.82549   0.00000  Uiso   1.00
O982   O     0.46039   0.77321   0.74999   0.00000  Uiso   1.00
O983   O     0.53958   0.77322   0.74999   0.00000  Uiso   1.00
O984   O     0.47973   0.83334   0.67451   0.00000  Uiso   1.00
O985   O     0.55892   0.83335   0.67451   0.00000  Uiso   1.00
O986   O     0.41818   0.69005   0.66879   0.00000  Uiso   1.00
C987   C     0.83338   0.91258   0.74998   0.00000  Uiso   1.00
C988   C     0.79113   0.82923   0.90746   0.00000  Uiso   1.00
C989   C     0.86230   0.97906   0.77352   0.00000  Uiso   1.00
C990   C     0.80712   0.83111   0.85006   0.00000  Uiso   1.00
C991   C     0.86232   0.68837   0.77238   0.00000  Uiso   1.00
C992   C     0.83460   0.70935   0.74541   0.00000  Uiso   1.00
C993   C     0.80746   0.68722   0.71785   0.00000  Uiso   1.00
C994   C     0.80633   0.97760   0.72113   0.00000  Uiso   1.00
C995   C     0.83373   0.95709   0.74861   0.00000  Uiso   1.00
C996   C     0.96528   0.85653   0.78524   0.00000  Uiso   1.00
C997   C     0.68154   0.85646   0.78529   0.00000  Uiso   1.00
C998   C     0.81111   0.82676   0.98983   0.00000  Uiso   1.00
C999   C     0.70138   0.81022   0.71468   0.00000  Uiso   1.00
C1000  C     0.98510   0.81019   0.71473   0.00000  Uiso   1.00
C1001  C     0.83386   0.75407   0.74792   0.00000  Uiso   1.00
C1002  C     0.85956   0.83267   0.64998   0.00000  Uiso   1.00
C1003  C     0.92959   0.79875   0.51437   0.00000  Uiso   1.00
C1004  C     0.87435   0.82711   0.59343   0.00000  Uiso   1.00
C1005  C     0.74370   0.84306   0.93439   0.00000  Uiso   1.00
C1006  C     0.72933   0.84749   0.98814   0.00000  Uiso   1.00
C1007  C     0.76267   0.84034   0.51564   0.00000  Uiso   1.00
C1008  C     0.78307   0.70781   0.68296   0.00000  Uiso   1.00
C1009  C     0.82366   0.81746   0.93585   0.00000  Uiso   1.00
C1010  C     0.84735   0.82166   0.51589   0.00000  Uiso   1.00
C1011  C     0.89344   0.80372   0.98920   0.00000  Uiso   1.00
C1012  C     0.90254   0.79005   0.93810   0.00000  Uiso   1.00
C1013  C     0.86795   0.79620   0.91207   0.00000  Uiso   1.00
C1014  C     0.83944   0.83432   0.56759   0.00000  Uiso   1.00
C1015  C     0.91998   0.81017   0.56641   0.00000  Uiso   1.00
Cu1016 Cu    0.78645   0.83333   0.75000   0.00000  Uiso   1.00
Cu1017 Cu    0.88022   0.83334   0.75000   0.00000  Uiso   1.00
H1018  H     0.94741   0.80435   0.58594   0.00000  Uiso   1.00
H1019  H     0.80608   0.84971   0.58909   0.00000  Uiso   1.00
H1020  H     0.71784   0.85136   0.91376   0.00000  Uiso   1.00
H1021  H     0.74889   0.84478   0.55719   0.00000  Uiso   1.00
H1022  H     0.69247   0.85781   0.50853   0.00000  Uiso   1.00
H1023  H     0.87611   0.78294   0.87355   0.00000  Uiso   1.00
H1024  H     0.88369   0.96325   0.79477   0.00000  Uiso   1.00
H1025  H     0.79356   0.73876   0.66869   0.00000  Uiso   1.00
H1026  H     0.88340   0.70503   0.79336   0.00000  Uiso   1.00
H1027  H     0.78580   0.95990   0.70045   0.00000  Uiso   1.00
H1028  H     0.93867   0.87519   0.81342   0.00000  Uiso   1.00
H1029  H     0.69230   0.87501   0.81352   0.00000  Uiso   1.00
H1030  H     0.72797   0.79174   0.68632   0.00000  Uiso   1.00
H1031  H     0.97434   0.79163   0.68651   0.00000  Uiso   1.00
H1032  H     0.93665   0.77456   0.91805   0.00000  Uiso   1.00
H1033  H     0.96483   0.78509   0.99415   0.00000  Uiso   1.00
N1034  N     0.71598   0.83332   0.74998   0.00000  Uiso   1.00
N1035  N     0.95069   0.83335   0.74999   0.00000  Uiso   1.00
O1036  O     0.79375   0.89345   0.75000   0.00000  Uiso   1.00
O1037  O     0.87294   0.89346   0.75000   0.00000  Uiso   1.00
O1038  O     0.77441   0.83332   0.82549   0.00000  Uiso   1.00
O1039  O     0.85360   0.83333   0.82549   0.00000  Uiso   1.00
O1040  O     0.79373   0.77321   0.74999   0.00000  Uiso   1.00
O1041  O     0.87292   0.77322   0.74999   0.00000  Uiso   1.00
O1042  O     0.81306   0.83334   0.67451   0.00000  Uiso   1.00
O1043  O     0.89225   0.83335   0.67451   0.00000  Uiso   1.00
O1044  O     0.75152   0.69005   0.66879   0.00000  Uiso   1.00
loop_
_geom_bond_atom_site_label_1
_geom_bond_atom_site_label_2
_geom_bond_distance
_geom_bond_site_symmetry_2
_ccdc_geom_bond_type
C1     O50     1.289   .     A
C1     C9      1.443   .     S
C1     O51     1.289   .     A
C2     C4      1.474   .     S
C2     C23     1.421   .     A
C2     C19     1.403   .     A
C3     C9      1.395   .     A
C3     H38     1.084   .     S
C3     C179    1.382   .     S
C4     O53     1.294   .     A
C4     O52     1.298   .     A
C5     C6      1.402   .     A
C5     H40     1.084   .     S
C5     C351    1.382   1_545 S
C6     C7      1.416   .     A
C6     C15     1.451   .     S
C7     C22     1.486   .     S
C7     C356    1.394   1_545 S
C8     H41     1.084   .     S
C8     C9      1.397   .     A
C8     C181    1.394   .     S
C10    H42     1.082   .     S
C10    N49     1.367   .     A
C10    C69     1.416   .     S
C11    H43     1.082   .     S
C11    N48     1.367   .     A
C11    C126    1.416   1_455 S
C12    C23     1.419   .     A
C12    C543    1.418   .     S
C12    C546    1.424   .     S
C13    N48     1.368   .     A
C13    H44     1.081   .     S
C13    C130    1.416   1_455 S
C14    N49     1.366   .     A
C14    H45     1.082   .     S
C14    C71     1.416   .     S
C15    O54     1.290   .     A
C15    O55     1.291   .     A
C16    O56     1.293   .     A
C16    O57     1.295   .     A
C16    C18     1.462   .     S
C17    C29     1.393   .     A
C17    C547    1.404   1_554 S
C17    H569    1.084   1_554 S
C18    C29     1.399   .     A
C18    C28     1.396   .     A
C19    C20     1.386   .     A
C19    H34     1.083   .     S
C20    C543    1.390   .     S
C20    H558    1.083   .     S
C21    H35     1.077   .     S
C21    C542    1.390   1_554 S
C21    C534    1.418   1_554 S
C22    O58     1.221   .     D
C22    H39     1.084   .     S
C23    C27     1.413   .     A
C24    C28     1.401   .     A
C24    C534    1.424   1_554 S
C24    C547    1.420   1_554 S
C25    C26     1.391   .     A
C25    C539    1.404   .     S
C25    C546    1.420   .     S
C26    C27     1.387   .     A
C26    H46     1.084   .     S
C27    H37     1.080   .     S
C28    H33     1.077   .     S
C29    H32     1.083   .     S
Cu30   O54     1.960   .     S
Cu30   O50     1.959   .     S
Cu30   N48     2.012   .     S
Cu30   Cu31    2.677   .     S
Cu30   O52     1.955   .     S
Cu30   O56     1.942   .     S
Cu31   O57     1.955   .     S
Cu31   O55     1.959   .     S
Cu31   N49     2.012   .     S
Cu31   O53     1.942   .     S
Cu31   O51     1.960   .     S
H36    C542    1.083   1_554 S
H47    C539    1.084   .     S
C59    O108    1.289   .     A
C59    C67     1.443   .     S
C59    O109    1.289   .     A
C60    C62     1.474   .     S
C60    C81     1.421   .     A
C60    C77     1.403   .     A
C61    C67     1.395   .     A
C61    H96     1.084   .     S
C61    C237    1.382   .     S
C62    O111    1.294   .     A
C62    O110    1.298   .     A
C63    C64     1.402   .     A
C63    H98     1.084   .     S
C63    C409    1.382   1_545 S
C64    C65     1.416   .     A
C64    C73     1.451   .     S
C65    C80     1.486   .     S
C65    C414    1.394   1_545 S
C66    H99     1.084   .     S
C66    C67     1.397   .     A
C66    C239    1.394   .     S
C68    H100    1.082   .     S
C68    N107    1.367   .     A
C68    C127    1.416   .     S
C69    H101    1.082   .     S
C69    N106    1.367   .     A
C70    C81     1.419   .     A
C70    C601    1.418   .     S
C70    C604    1.424   .     S
C71    N106    1.368   .     A
C71    H102    1.081   .     S
C72    N107    1.366   .     A
C72    H103    1.082   .     S
C72    C129    1.416   .     S
C73    O112    1.290   .     A
C73    O113    1.291   .     A
C74    O114    1.293   .     A
C74    O115    1.295   .     A
C74    C76     1.462   .     S
C75    C87     1.393   .     A
C75    C605    1.404   1_554 S
C75    H627    1.084   1_554 S
C76    C87     1.399   .     A
C76    C86     1.396   .     A
C77    C78     1.386   .     A
C77    H92     1.083   .     S
C78    C601    1.390   .     S
C78    H616    1.083   .     S
C79    H93     1.077   .     S
C79    C600    1.390   1_554 S
C79    C592    1.418   1_554 S
C80    O116    1.221   .     D
C80    H97     1.084   .     S
C81    C85     1.413   .     A
C82    C86     1.401   .     A
C82    C592    1.424   1_554 S
C82    C605    1.420   1_554 S
C83    C84     1.391   .     A
C83    C597    1.404   .     S
C83    C604    1.420   .     S
C84    C85     1.387   .     A
C84    H104    1.084   .     S
C85    H95     1.080   .     S
C86    H91     1.077   .     S
C87    H90     1.083   .     S
Cu88   O112    1.960   .     S
Cu88   O108    1.959   .     S
Cu88   N106    2.012   .     S
Cu88   Cu89    2.677   .     S
Cu88   O110    1.955   .     S
Cu88   O114    1.942   .     S
Cu89   O115    1.955   .     S
Cu89   O113    1.959   .     S
Cu89   N107    2.012   .     S
Cu89   O111    1.942   .     S
Cu89   O109    1.960   .     S
H94    C600    1.083   1_554 S
H105   C597    1.084   .     S
C117   O166    1.289   .     A
C117   C125    1.443   .     S
C117   O167    1.289   .     A
C118   C120    1.474   .     S
C118   C139    1.421   .     A
C118   C135    1.403   .     A
C119   C125    1.395   .     A
C119   H154    1.084   .     S
C119   C295    1.382   .     S
C120   O169    1.294   .     A
C120   O168    1.298   .     A
C121   C122    1.402   .     A
C121   H156    1.084   .     S
C121   C467    1.382   1_545 S
C122   C123    1.416   .     A
C122   C131    1.451   .     S
C123   C138    1.486   .     S
C123   C472    1.394   1_545 S
C124   H157    1.084   .     S
C124   C125    1.397   .     A
C124   C297    1.394   .     S
C126   H158    1.082   .     S
C126   N165    1.367   .     A
C126   C11     1.416   1_655 S
C127   H159    1.082   .     S
C127   N164    1.367   .     A
C128   C139    1.419   .     A
C128   C659    1.418   .     S
C128   C662    1.424   .     S
C129   N164    1.368   .     A
C129   H160    1.081   .     S
C130   N165    1.366   .     A
C130   H161    1.082   .     S
C130   C13     1.416   1_655 S
C131   O170    1.290   .     A
C131   O171    1.291   .     A
C132   O172    1.293   .     A
C132   O173    1.295   .     A
C132   C134    1.462   .     S
C133   C145    1.393   .     A
C133   C663    1.404   1_554 S
C133   H685    1.084   1_554 S
C134   C145    1.399   .     A
C134   C144    1.396   .     A
C135   C136    1.386   .     A
C135   H150    1.083   .     S
C136   C659    1.390   .     S
C136   H674    1.083   .     S
C137   H151    1.077   .     S
C137   C658    1.390   1_554 S
C137   C650    1.418   1_554 S
C138   O174    1.221   .     D
C138   H155    1.084   .     S
C139   C143    1.413   .     A
C140   C144    1.401   .     A
C140   C650    1.424   1_554 S
C140   C663    1.420   1_554 S
C141   C142    1.391   .     A
C141   C655    1.404   .     S
C141   C662    1.420   .     S
C142   C143    1.387   .     A
C142   H162    1.084   .     S
C143   H153    1.080   .     S
C144   H149    1.077   .     S
C145   H148    1.083   .     S
Cu146  O170    1.960   .     S
Cu146  O166    1.959   .     S
Cu146  N164    2.012   .     S
Cu146  Cu147   2.677   .     S
Cu146  O168    1.955   .     S
Cu146  O172    1.942   .     S
Cu147  O173    1.955   .     S
Cu147  O171    1.959   .     S
Cu147  N165    2.012   .     S
Cu147  O169    1.942   .     S
Cu147  O167    1.960   .     S
H152   C658    1.083   1_554 S
H163   C655    1.084   .     S
C175   O224    1.289   .     A
C175   C183    1.443   .     S
C175   O225    1.289   .     A
C176   C178    1.474   .     S
C176   C197    1.421   .     A
C176   C193    1.403   .     A
C177   C183    1.395   .     A
C177   H212    1.084   .     S
C177   C353    1.382   .     S
C178   O227    1.294   .     A
C178   O226    1.298   .     A
C179   C180    1.402   .     A
C179   H214    1.084   .     S
C180   C181    1.416   .     A
C180   C189    1.451   .     S
C181   C196    1.486   .     S
C182   H215    1.084   .     S
C182   C183    1.397   .     A
C182   C355    1.394   .     S
C184   H216    1.082   .     S
C184   N223    1.367   .     A
C184   C243    1.416   .     S
C185   H217    1.082   .     S
C185   N222    1.367   .     A
C185   C300    1.416   1_455 S
C186   C197    1.419   .     A
C186   C717    1.418   .     S
C186   C720    1.424   .     S
C187   N222    1.368   .     A
C187   H218    1.081   .     S
C187   C304    1.416   1_455 S
C188   N223    1.366   .     A
C188   H219    1.082   .     S
C188   C245    1.416   .     S
C189   O228    1.290   .     A
C189   O229    1.291   .     A
C190   O230    1.293   .     A
C190   O231    1.295   .     A
C190   C192    1.462   .     S
C191   C203    1.393   .     A
C191   C721    1.404   1_554 S
C191   H743    1.084   1_554 S
C192   C203    1.399   .     A
C192   C202    1.396   .     A
C193   C194    1.386   .     A
C193   H208    1.083   .     S
C194   C717    1.390   .     S
C194   H732    1.083   .     S
C195   H209    1.077   .     S
C195   C716    1.390   1_554 S
C195   C708    1.418   1_554 S
C196   O232    1.221   .     D
C196   H213    1.084   .     S
C197   C201    1.413   .     A
C198   C202    1.401   .     A
C198   C708    1.424   1_554 S
C198   C721    1.420   1_554 S
C199   C200    1.391   .     A
C199   C713    1.404   .     S
C199   C720    1.420   .     S
C200   C201    1.387   .     A
C200   H220    1.084   .     S
C201   H211    1.080   .     S
C202   H207    1.077   .     S
C203   H206    1.083   .     S
Cu204  O228    1.960   .     S
Cu204  O224    1.959   .     S
Cu204  N222    2.012   .     S
Cu204  Cu205   2.677   .     S
Cu204  O226    1.955   .     S
Cu204  O230    1.942   .     S
Cu205  O231    1.955   .     S
Cu205  O229    1.959   .     S
Cu205  N223    2.012   .     S
Cu205  O227    1.942   .     S
Cu205  O225    1.960   .     S
H210   C716    1.083   1_554 S
H221   C713    1.084   .     S
C233   O282    1.289   .     A
C233   C241    1.443   .     S
C233   O283    1.289   .     A
C234   C236    1.474   .     S
C234   C255    1.421   .     A
C234   C251    1.403   .     A
C235   C241    1.395   .     A
C235   H270    1.084   .     S
C235   C411    1.382   .     S
C236   O285    1.294   .     A
C236   O284    1.298   .     A
C237   C238    1.402   .     A
C237   H272    1.084   .     S
C238   C239    1.416   .     A
C238   C247    1.451   .     S
C239   C254    1.486   .     S
C240   H273    1.084   .     S
C240   C241    1.397   .     A
C240   C413    1.394   .     S
C242   H274    1.082   .     S
C242   N281    1.367   .     A
C242   C301    1.416   .     S
C243   H275    1.082   .     S
C243   N280    1.367   .     A
C244   C255    1.419   .     A
C244   C775    1.418   .     S
C244   C778    1.424   .     S
C245   N280    1.368   .     A
C245   H276    1.081   .     S
C246   N281    1.366   .     A
C246   H277    1.082   .     S
C246   C303    1.416   .     S
C247   O286    1.290   .     A
C247   O287    1.291   .     A
C248   O288    1.293   .     A
C248   O289    1.295   .     A
C248   C250    1.462   .     S
C249   C261    1.393   .     A
C249   C779    1.404   1_554 S
C249   H801    1.084   1_554 S
C250   C261    1.399   .     A
C250   C260    1.396   .     A
C251   C252    1.386   .     A
C251   H266    1.083   .     S
C252   C775    1.390   .     S
C252   H790    1.083   .     S
C253   H267    1.077   .     S
C253   C774    1.390   1_554 S
C253   C766    1.418   1_554 S
C254   O290    1.221   .     D
C254   H271    1.084   .     S
C255   C259    1.413   .     A
C256   C260    1.401   .     A
C256   C766    1.424   1_554 S
C256   C779    1.420   1_554 S
C257   C258    1.391   .     A
C257   C771    1.404   .     S
C257   C778    1.420   .     S
C258   C259    1.387   .     A
C258   H278    1.084   .     S
C259   H269    1.080   .     S
C260   H265    1.077   .     S
C261   H264    1.083   .     S
Cu262  O286    1.960   .     S
Cu262  O282    1.959   .     S
Cu262  N280    2.012   .     S
Cu262  Cu263   2.677   .     S
Cu262  O284    1.955   .     S
Cu262  O288    1.942   .     S
Cu263  O289    1.955   .     S
Cu263  O287    1.959   .     S
Cu263  N281    2.012   .     S
Cu263  O285    1.942   .     S
Cu263  O283    1.960   .     S
H268   C774    1.083   1_554 S
H279   C771    1.084   .     S
C291   O340    1.289   .     A
C291   C299    1.443   .     S
C291   O341    1.289   .     A
C292   C294    1.474   .     S
C292   C313    1.421   .     A
C292   C309    1.403   .     A
C293   C299    1.395   .     A
C293   H328    1.084   .     S
C293   C469    1.382   .     S
C294   O343    1.294   .     A
C294   O342    1.298   .     A
C295   C296    1.402   .     A
C295   H330    1.084   .     S
C296   C297    1.416   .     A
C296   C305    1.451   .     S
C297   C312    1.486   .     S
C298   H331    1.084   .     S
C298   C299    1.397   .     A
C298   C471    1.394   .     S
C300   H332    1.082   .     S
C300   N339    1.367   .     A
C300   C185    1.416   1_655 S
C301   H333    1.082   .     S
C301   N338    1.367   .     A
C302   C313    1.419   .     A
C302   C833    1.418   .     S
C302   C836    1.424   .     S
C303   N338    1.368   .     A
C303   H334    1.081   .     S
C304   N339    1.366   .     A
C304   H335    1.082   .     S
C304   C187    1.416   1_655 S
C305   O344    1.290   .     A
C305   O345    1.291   .     A
C306   O346    1.293   .     A
C306   O347    1.295   .     A
C306   C308    1.462   .     S
C307   C319    1.393   .     A
C307   C837    1.404   1_554 S
C307   H859    1.084   1_554 S
C308   C319    1.399   .     A
C308   C318    1.396   .     A
C309   C310    1.386   .     A
C309   H324    1.083   .     S
C310   C833    1.390   .     S
C310   H848    1.083   .     S
C311   H325    1.077   .     S
C311   C832    1.390   1_554 S
C311   C824    1.418   1_554 S
C312   O348    1.221   .     D
C312   H329    1.084   .     S
C313   C317    1.413   .     A
C314   C318    1.401   .     A
C314   C824    1.424   1_554 S
C314   C837    1.420   1_554 S
C315   C316    1.391   .     A
C315   C829    1.404   .     S
C315   C836    1.420   .     S
C316   C317    1.387   .     A
C316   H336    1.084   .     S
C317   H327    1.080   .     S
C318   H323    1.077   .     S
C319   H322    1.083   .     S
Cu320  O344    1.960   .     S
Cu320  O340    1.959   .     S
Cu320  N338    2.012   .     S
Cu320  Cu321   2.677   .     S
Cu320  O342    1.955   .     S
Cu320  O346    1.942   .     S
Cu321  O347    1.955   .     S
Cu321  O345    1.959   .     S
Cu321  N339    2.012   .     S
Cu321  O343    1.942   .     S
Cu321  O341    1.960   .     S
H326   C832    1.083   1_554 S
H337   C829    1.084   .     S
C349   O398    1.289   .     A
C349   C357    1.443   .     S
C349   O399    1.289   .     A
C350   C352    1.474   .     S
C350   C371    1.421   .     A
C350   C367    1.403   .     A
C351   C357    1.395   .     A
C351   H386    1.084   .     S
C351   C5      1.382   1_565 S
C352   O401    1.294   .     A
C352   O400    1.298   .     A
C353   C354    1.402   .     A
C353   H388    1.084   .     S
C354   C355    1.416   .     A
C354   C363    1.451   .     S
C355   C370    1.486   .     S
C356   H389    1.084   .     S
C356   C357    1.397   .     A
C356   C7      1.394   1_565 S
C358   H390    1.082   .     S
C358   N397    1.367   .     A
C358   C417    1.416   .     S
C359   H391    1.082   .     S
C359   N396    1.367   .     A
C359   C474    1.416   1_455 S
C360   C371    1.419   .     A
C360   C891    1.418   .     S
C360   C894    1.424   .     S
C361   N396    1.368   .     A
C361   H392    1.081   .     S
C361   C478    1.416   1_455 S
C362   N397    1.366   .     A
C362   H393    1.082   .     S
C362   C419    1.416   .     S
C363   O402    1.290   .     A
C363   O403    1.291   .     A
C364   O404    1.293   .     A
C364   O405    1.295   .     A
C364   C366    1.462   .     S
C365   C377    1.393   .     A
C365   C895    1.404   1_554 S
C365   H917    1.084   1_554 S
C366   C377    1.399   .     A
C366   C376    1.396   .     A
C367   C368    1.386   .     A
C367   H382    1.083   .     S
C368   C891    1.390   .     S
C368   H906    1.083   .     S
C369   H383    1.077   .     S
C369   C890    1.390   1_554 S
C369   C882    1.418   1_554 S
C370   O406    1.221   .     D
C370   H387    1.084   .     S
C371   C375    1.413   .     A
C372   C376    1.401   .     A
C372   C882    1.424   1_554 S
C372   C895    1.420   1_554 S
C373   C374    1.391   .     A
C373   C887    1.404   .     S
C373   C894    1.420   .     S
C374   C375    1.387   .     A
C374   H394    1.084   .     S
C375   H385    1.080   .     S
C376   H381    1.077   .     S
C377   H380    1.083   .     S
Cu378  O402    1.960   .     S
Cu378  O398    1.959   .     S
Cu378  N396    2.012   .     S
Cu378  Cu379   2.677   .     S
Cu378  O400    1.955   .     S
Cu378  O404    1.942   .     S
Cu379  O405    1.955   .     S
Cu379  O403    1.959   .     S
Cu379  N397    2.012   .     S
Cu379  O401    1.942   .     S
Cu379  O399    1.960   .     S
H384   C890    1.083   1_554 S
H395   C887    1.084   .     S
C407   O456    1.289   .     A
C407   C415    1.443   .     S
C407   O457    1.289   .     A
C408   C410    1.474   .     S
C408   C429    1.421   .     A
C408   C425    1.403   .     A
C409   C415    1.395   .     A
C409   H444    1.084   .     S
C409   C63     1.382   1_565 S
C410   O459    1.294   .     A
C410   O458    1.298   .     A
C411   C412    1.402   .     A
C411   H446    1.084   .     S
C412   C413    1.416   .     A
C412   C421    1.451   .     S
C413   C428    1.486   .     S
C414   H447    1.084   .     S
C414   C415    1.397   .     A
C414   C65     1.394   1_565 S
C416   H448    1.082   .     S
C416   N455    1.367   .     A
C416   C475    1.416   .     S
C417   H449    1.082   .     S
C417   N454    1.367   .     A
C418   C429    1.419   .     A
C418   C949    1.418   .     S
C418   C952    1.424   .     S
C419   N454    1.368   .     A
C419   H450    1.081   .     S
C420   N455    1.366   .     A
C420   H451    1.082   .     S
C420   C477    1.416   .     S
C421   O460    1.290   .     A
C421   O461    1.291   .     A
C422   O462    1.293   .     A
C422   O463    1.295   .     A
C422   C424    1.462   .     S
C423   C435    1.393   .     A
C423   C953    1.404   1_554 S
C423   H975    1.084   1_554 S
C424   C435    1.399   .     A
C424   C434    1.396   .     A
C425   C426    1.386   .     A
C425   H440    1.083   .     S
C426   C949    1.390   .     S
C426   H964    1.083   .     S
C427   H441    1.077   .     S
C427   C948    1.390   1_554 S
C427   C940    1.418   1_554 S
C428   O464    1.221   .     D
C428   H445    1.084   .     S
C429   C433    1.413   .     A
C430   C434    1.401   .     A
C430   C940    1.424   1_554 S
C430   C953    1.420   1_554 S
C431   C432    1.391   .     A
C431   C945    1.404   .     S
C431   C952    1.420   .     S
C432   C433    1.387   .     A
C432   H452    1.084   .     S
C433   H443    1.080   .     S
C434   H439    1.077   .     S
C435   H438    1.083   .     S
Cu436  O460    1.960   .     S
Cu436  O456    1.959   .     S
Cu436  N454    2.012   .     S
Cu436  Cu437   2.677   .     S
Cu436  O458    1.955   .     S
Cu436  O462    1.942   .     S
Cu437  O463    1.955   .     S
Cu437  O461    1.959   .     S
Cu437  N455    2.012   .     S
Cu437  O459    1.942   .     S
Cu437  O457    1.960   .     S
H442   C948    1.083   1_554 S
H453   C945    1.084   .     S
C465   O514    1.289   .     A
C465   C473    1.443   .     S
C465   O515    1.289   .     A
C466   C468    1.474   .     S
C466   C487    1.421   .     A
C466   C483    1.403   .     A
C467   C473    1.395   .     A
C467   H502    1.084   .     S
C467   C121    1.382   1_565 S
C468   O517    1.294   .     A
C468   O516    1.298   .     A
C469   C470    1.402   .     A
C469   H504    1.084   .     S
C470   C471    1.416   .     A
C470   C479    1.451   .     S
C471   C486    1.486   .     S
C472   H505    1.084   .     S
C472   C473    1.397   .     A
C472   C123    1.394   1_565 S
C474   H506    1.082   .     S
C474   N513    1.367   .     A
C474   C359    1.416   1_655 S
C475   H507    1.082   .     S
C475   N512    1.367   .     A
C476   C487    1.419   .     A
C476   C1007   1.418   .     S
C476   C1010   1.424   .     S
C477   N512    1.368   .     A
C477   H508    1.081   .     S
C478   N513    1.366   .     A
C478   H509    1.082   .     S
C478   C361    1.416   1_655 S
C479   O518    1.290   .     A
C479   O519    1.291   .     A
C480   O520    1.293   .     A
C480   O521    1.295   .     A
C480   C482    1.462   .     S
C481   C493    1.393   .     A
C481   C1011   1.404   1_554 S
C481   H1033   1.084   1_554 S
C482   C493    1.399   .     A
C482   C492    1.396   .     A
C483   C484    1.386   .     A
C483   H498    1.083   .     S
C484   C1007   1.390   .     S
C484   H1022   1.083   .     S
C485   H499    1.077   .     S
C485   C1006   1.390   1_554 S
C485   C998    1.418   1_554 S
C486   O522    1.221   .     D
C486   H503    1.084   .     S
C487   C491    1.413   .     A
C488   C492    1.401   .     A
C488   C998    1.424   1_554 S
C488   C1011   1.420   1_554 S
C489   C490    1.391   .     A
C489   C1003   1.404   .     S
C489   C1010   1.420   .     S
C490   C491    1.387   .     A
C490   H510    1.084   .     S
C491   H501    1.080   .     S
C492   H497    1.077   .     S
C493   H496    1.083   .     S
Cu494  O518    1.960   .     S
Cu494  O514    1.959   .     S
Cu494  N512    2.012   .     S
Cu494  Cu495   2.677   .     S
Cu494  O516    1.955   .     S
Cu494  O520    1.942   .     S
Cu495  O521    1.955   .     S
Cu495  O519    1.959   .     S
Cu495  N513    2.012   .     S
Cu495  O517    1.942   .     S
Cu495  O515    1.960   .     S
H500   C1006   1.083   1_554 S
H511   C1003   1.084   .     S
C523   O572    1.289   .     A
C523   C531    1.443   .     S
C523   O573    1.289   .     A
C524   C526    1.474   .     S
C524   C545    1.421   .     A
C524   C541    1.403   .     A
C525   C531    1.395   .     A
C525   H560    1.084   .     S
C525   C701    1.382   .     S
C526   O575    1.294   .     A
C526   O574    1.298   .     A
C527   C528    1.402   .     A
C527   H562    1.084   .     S
C527   C873    1.382   1_545 S
C528   C529    1.416   .     A
C528   C537    1.451   .     S
C529   C544    1.486   .     S
C529   C878    1.394   1_545 S
C530   H563    1.084   .     S
C530   C531    1.397   .     A
C530   C703    1.394   .     S
C532   H564    1.082   .     S
C532   N571    1.367   .     A
C532   C591    1.416   .     S
C533   H565    1.082   .     S
C533   N570    1.367   .     A
C533   C648    1.416   1_455 S
C534   C545    1.419   .     A
C534   C21     1.418   1_556 S
C534   C24     1.424   1_556 S
C535   N570    1.368   .     A
C535   H566    1.081   .     S
C535   C652    1.416   1_455 S
C536   N571    1.366   .     A
C536   H567    1.082   .     S
C536   C593    1.416   .     S
C537   O576    1.290   .     A
C537   O577    1.291   .     A
C538   O578    1.293   .     A
C538   O579    1.295   .     A
C538   C540    1.462   .     S
C539   C551    1.393   .     A
C540   C551    1.399   .     A
C540   C550    1.396   .     A
C541   C542    1.386   .     A
C541   H556    1.083   .     S
C542   C21     1.390   1_556 S
C542   H36     1.083   1_556 S
C543   H557    1.077   .     S
C544   O580    1.221   .     D
C544   H561    1.084   .     S
C545   C549    1.413   .     A
C546   C550    1.401   .     A
C547   C548    1.391   .     A
C547   C17     1.404   1_556 S
C547   C24     1.420   1_556 S
C548   C549    1.387   .     A
C548   H568    1.084   .     S
C549   H559    1.080   .     S
C550   H555    1.077   .     S
C551   H554    1.083   .     S
Cu552  O576    1.960   .     S
Cu552  O572    1.959   .     S
Cu552  N570    2.012   .     S
Cu552  Cu553   2.677   .     S
Cu552  O574    1.955   .     S
Cu552  O578    1.942   .     S
Cu553  O579    1.955   .     S
Cu553  O577    1.959   .     S
Cu553  N571    2.012   .     S
Cu553  O575    1.942   .     S
Cu553  O573    1.960   .     S
H569   C17     1.084   1_556 S
C581   O630    1.289   .     A
C581   C589    1.443   .     S
C581   O631    1.289   .     A
C582   C584    1.474   .     S
C582   C603    1.421   .     A
C582   C599    1.403   .     A
C583   C589    1.395   .     A
C583   H618    1.084   .     S
C583   C759    1.382   .     S
C584   O633    1.294   .     A
C584   O632    1.298   .     A
C585   C586    1.402   .     A
C585   H620    1.084   .     S
C585   C931    1.382   1_545 S
C586   C587    1.416   .     A
C586   C595    1.451   .     S
C587   C602    1.486   .     S
C587   C936    1.394   1_545 S
C588   H621    1.084   .     S
C588   C589    1.397   .     A
C588   C761    1.394   .     S
C590   H622    1.082   .     S
C590   N629    1.367   .     A
C590   C649    1.416   .     S
C591   H623    1.082   .     S
C591   N628    1.367   .     A
C592   C603    1.419   .     A
C592   C79     1.418   1_556 S
C592   C82     1.424   1_556 S
C593   N628    1.368   .     A
C593   H624    1.081   .     S
C594   N629    1.366   .     A
C594   H625    1.082   .     S
C594   C651    1.416   .     S
C595   O634    1.290   .     A
C595   O635    1.291   .     A
C596   O636    1.293   .     A
C596   O637    1.295   .     A
C596   C598    1.462   .     S
C597   C609    1.393   .     A
C598   C609    1.399   .     A
C598   C608    1.396   .     A
C599   C600    1.386   .     A
C599   H614    1.083   .     S
C600   C79     1.390   1_556 S
C600   H94     1.083   1_556 S
C601   H615    1.077   .     S
C602   O638    1.221   .     D
C602   H619    1.084   .     S
C603   C607    1.413   .     A
C604   C608    1.401   .     A
C605   C606    1.391   .     A
C605   C75     1.404   1_556 S
C605   C82     1.420   1_556 S
C606   C607    1.387   .     A
C606   H626    1.084   .     S
C607   H617    1.080   .     S
C608   H613    1.077   .     S
C609   H612    1.083   .     S
Cu610  O634    1.960   .     S
Cu610  O630    1.959   .     S
Cu610  N628    2.012   .     S
Cu610  Cu611   2.677   .     S
Cu610  O632    1.955   .     S
Cu610  O636    1.942   .     S
Cu611  O637    1.955   .     S
Cu611  O635    1.959   .     S
Cu611  N629    2.012   .     S
Cu611  O633    1.942   .     S
Cu611  O631    1.960   .     S
H627   C75     1.084   1_556 S
C639   O688    1.289   .     A
C639   C647    1.443   .     S
C639   O689    1.289   .     A
C640   C642    1.474   .     S
C640   C661    1.421   .     A
C640   C657    1.403   .     A
C641   C647    1.395   .     A
C641   H676    1.084   .     S
C641   C817    1.382   .     S
C642   O691    1.294   .     A
C642   O690    1.298   .     A
C643   C644    1.402   .     A
C643   H678    1.084   .     S
C643   C989    1.382   1_545 S
C644   C645    1.416   .     A
C644   C653    1.451   .     S
C645   C660    1.486   .     S
C645   C994    1.394   1_545 S
C646   H679    1.084   .     S
C646   C647    1.397   .     A
C646   C819    1.394   .     S
C648   H680    1.082   .     S
C648   N687    1.367   .     A
C648   C533    1.416   1_655 S
C649   H681    1.082   .     S
C649   N686    1.367   .     A
C650   C661    1.419   .     A
C650   C137    1.418   1_556 S
C650   C140    1.424   1_556 S
C651   N686    1.368   .     A
C651   H682    1.081   .     S
C652   N687    1.366   .     A
C652   H683    1.082   .     S
C652   C535    1.416   1_655 S
C653   O692    1.290   .     A
C653   O693    1.291   .     A
C654   O694    1.293   .     A
C654   O695    1.295   .     A
C654   C656    1.462   .     S
C655   C667    1.393   .     A
C656   C667    1.399   .     A
C656   C666    1.396   .     A
C657   C658    1.386   .     A
C657   H672    1.083   .     S
C658   C137    1.390   1_556 S
C658   H152    1.083   1_556 S
C659   H673    1.077   .     S
C660   O696    1.221   .     D
C660   H677    1.084   .     S
C661   C665    1.413   .     A
C662   C666    1.401   .     A
C663   C664    1.391   .     A
C663   C133    1.404   1_556 S
C663   C140    1.420   1_556 S
C664   C665    1.387   .     A
C664   H684    1.084   .     S
C665   H675    1.080   .     S
C666   H671    1.077   .     S
C667   H670    1.083   .     S
Cu668  O692    1.960   .     S
Cu668  O688    1.959   .     S
Cu668  N686    2.012   .     S
Cu668  Cu669   2.677   .     S
Cu668  O690    1.955   .     S
Cu668  O694    1.942   .     S
Cu669  O695    1.955   .     S
Cu669  O693    1.959   .     S
Cu669  N687    2.012   .     S
Cu669  O691    1.942   .     S
Cu669  O689    1.960   .     S
H685   C133    1.084   1_556 S
C697   O746    1.289   .     A
C697   C705    1.443   .     S
C697   O747    1.289   .     A
C698   C700    1.474   .     S
C698   C719    1.421   .     A
C698   C715    1.403   .     A
C699   C705    1.395   .     A
C699   H734    1.084   .     S
C699   C875    1.382   .     S
C700   O749    1.294   .     A
C700   O748    1.298   .     A
C701   C702    1.402   .     A
C701   H736    1.084   .     S
C702   C703    1.416   .     A
C702   C711    1.451   .     S
C703   C718    1.486   .     S
C704   H737    1.084   .     S
C704   C705    1.397   .     A
C704   C877    1.394   .     S
C706   H738    1.082   .     S
C706   N745    1.367   .     A
C706   C765    1.416   .     S
C707   H739    1.082   .     S
C707   N744    1.367   .     A
C707   C822    1.416   1_455 S
C708   C719    1.419   .     A
C708   C195    1.418   1_556 S
C708   C198    1.424   1_556 S
C709   N744    1.368   .     A
C709   H740    1.081   .     S
C709   C826    1.416   1_455 S
C710   N745    1.366   .     A
C710   H741    1.082   .     S
C710   C767    1.416   .     S
C711   O750    1.290   .     A
C711   O751    1.291   .     A
C712   O752    1.293   .     A
C712   O753    1.295   .     A
C712   C714    1.462   .     S
C713   C725    1.393   .     A
C714   C725    1.399   .     A
C714   C724    1.396   .     A
C715   C716    1.386   .     A
C715   H730    1.083   .     S
C716   C195    1.390   1_556 S
C716   H210    1.083   1_556 S
C717   H731    1.077   .     S
C718   O754    1.221   .     D
C718   H735    1.084   .     S
C719   C723    1.413   .     A
C720   C724    1.401   .     A
C721   C722    1.391   .     A
C721   C191    1.404   1_556 S
C721   C198    1.420   1_556 S
C722   C723    1.387   .     A
C722   H742    1.084   .     S
C723   H733    1.080   .     S
C724   H729    1.077   .     S
C725   H728    1.083   .     S
Cu726  O750    1.960   .     S
Cu726  O746    1.959   .     S
Cu726  N744    2.012   .     S
Cu726  Cu727   2.677   .     S
Cu726  O748    1.955   .     S
Cu726  O752    1.942   .     S
Cu727  O753    1.955   .     S
Cu727  O751    1.959   .     S
Cu727  N745    2.012   .     S
Cu727  O749    1.942   .     S
Cu727  O747    1.960   .     S
H743   C191    1.084   1_556 S
C755   O804    1.289   .     A
C755   C763    1.443   .     S
C755   O805    1.289   .     A
C756   C758    1.474   .     S
C756   C777    1.421   .     A
C756   C773    1.403   .     A
C757   C763    1.395   .     A
C757   H792    1.084   .     S
C757   C933    1.382   .     S
C758   O807    1.294   .     A
C758   O806    1.298   .     A
C759   C760    1.402   .     A
C759   H794    1.084   .     S
C760   C761    1.416   .     A
C760   C769    1.451   .     S
C761   C776    1.486   .     S
C762   H795    1.084   .     S
C762   C763    1.397   .     A
C762   C935    1.394   .     S
C764   H796    1.082   .     S
C764   N803    1.367   .     A
C764   C823    1.416   .     S
C765   H797    1.082   .     S
C765   N802    1.367   .     A
C766   C777    1.419   .     A
C766   C253    1.418   1_556 S
C766   C256    1.424   1_556 S
C767   N802    1.368   .     A
C767   H798    1.081   .     S
C768   N803    1.366   .     A
C768   H799    1.082   .     S
C768   C825    1.416   .     S
C769   O808    1.290   .     A
C769   O809    1.291   .     A
C770   O810    1.293   .     A
C770   O811    1.295   .     A
C770   C772    1.462   .     S
C771   C783    1.393   .     A
C772   C783    1.399   .     A
C772   C782    1.396   .     A
C773   C774    1.386   .     A
C773   H788    1.083   .     S
C774   C253    1.390   1_556 S
C774   H268    1.083   1_556 S
C775   H789    1.077   .     S
C776   O812    1.221   .     D
C776   H793    1.084   .     S
C777   C781    1.413   .     A
C778   C782    1.401   .     A
C779   C780    1.391   .     A
C779   C249    1.404   1_556 S
C779   C256    1.420   1_556 S
C780   C781    1.387   .     A
C780   H800    1.084   .     S
C781   H791    1.080   .     S
C782   H787    1.077   .     S
C783   H786    1.083   .     S
Cu784  O808    1.960   .     S
Cu784  O804    1.959   .     S
Cu784  N802    2.012   .     S
Cu784  Cu785   2.677   .     S
Cu784  O806    1.955   .     S
Cu784  O810    1.942   .     S
Cu785  O811    1.955   .     S
Cu785  O809    1.959   .     S
Cu785  N803    2.012   .     S
Cu785  O807    1.942   .     S
Cu785  O805    1.960   .     S
H801   C249    1.084   1_556 S
C813   O862    1.289   .     A
C813   C821    1.443   .     S
C813   O863    1.289   .     A
C814   C816    1.474   .     S
C814   C835    1.421   .     A
C814   C831    1.403   .     A
C815   C821    1.395   .     A
C815   H850    1.084   .     S
C815   C991    1.382   .     S
C816   O865    1.294   .     A
C816   O864    1.298   .     A
C817   C818    1.402   .     A
C817   H852    1.084   .     S
C818   C819    1.416   .     A
C818   C827    1.451   .     S
C819   C834    1.486   .     S
C820   H853    1.084   .     S
C820   C821    1.397   .     A
C820   C993    1.394   .     S
C822   H854    1.082   .     S
C822   N861    1.367   .     A
C822   C707    1.416   1_655 S
C823   H855    1.082   .     S
C823   N860    1.367   .     A
C824   C835    1.419   .     A
C824   C311    1.418   1_556 S
C824   C314    1.424   1_556 S
C825   N860    1.368   .     A
C825   H856    1.081   .     S
C826   N861    1.366   .     A
C826   H857    1.082   .     S
C826   C709    1.416   1_655 S
C827   O866    1.290   .     A
C827   O867    1.291   .     A
C828   O868    1.293   .     A
C828   O869    1.295   .     A
C828   C830    1.462   .     S
C829   C841    1.393   .     A
C830   C841    1.399   .     A
C830   C840    1.396   .     A
C831   C832    1.386   .     A
C831   H846    1.083   .     S
C832   C311    1.390   1_556 S
C832   H326    1.083   1_556 S
C833   H847    1.077   .     S
C834   O870    1.221   .     D
C834   H851    1.084   .     S
C835   C839    1.413   .     A
C836   C840    1.401   .     A
C837   C838    1.391   .     A
C837   C307    1.404   1_556 S
C837   C314    1.420   1_556 S
C838   C839    1.387   .     A
C838   H858    1.084   .     S
C839   H849    1.080   .     S
C840   H845    1.077   .     S
C841   H844    1.083   .     S
Cu842  O866    1.960   .     S
Cu842  O862    1.959   .     S
Cu842  N860    2.012   .     S
Cu842  Cu843   2.677   .     S
Cu842  O864    1.955   .     S
Cu842  O868    1.942   .     S
Cu843  O869    1.955   .     S
Cu843  O867    1.959   .     S
Cu843  N861    2.012   .     S
Cu843  O865    1.942   .     S
Cu843  O863    1.960   .     S
H859   C307    1.084   1_556 S
C871   O920    1.289   .     A
C871   C879    1.443   .     S
C871   O921    1.289   .     A
C872   C874    1.474   .     S
C872   C893    1.421   .     A
C872   C889    1.403   .     A
C873   C879    1.395   .     A
C873   H908    1.084   .     S
C873   C527    1.382   1_565 S
C874   O923    1.294   .     A
C874   O922    1.298   .     A
C875   C876    1.402   .     A
C875   H910    1.084   .     S
C876   C877    1.416   .     A
C876   C885    1.451   .     S
C877   C892    1.486   .     S
C878   H911    1.084   .     S
C878   C879    1.397   .     A
C878   C529    1.394   1_565 S
C880   H912    1.082   .     S
C880   N919    1.367   .     A
C880   C939    1.416   .     S
C881   H913    1.082   .     S
C881   N918    1.367   .     A
C881   C996    1.416   1_455 S
C882   C893    1.419   .     A
C882   C369    1.418   1_556 S
C882   C372    1.424   1_556 S
C883   N918    1.368   .     A
C883   H914    1.081   .     S
C883   C1000   1.416   1_455 S
C884   N919    1.366   .     A
C884   H915    1.082   .     S
C884   C941    1.416   .     S
C885   O924    1.290   .     A
C885   O925    1.291   .     A
C886   O926    1.293   .     A
C886   O927    1.295   .     A
C886   C888    1.462   .     S
C887   C899    1.393   .     A
C888   C899    1.399   .     A
C888   C898    1.396   .     A
C889   C890    1.386   .     A
C889   H904    1.083   .     S
C890   C369    1.390   1_556 S
C890   H384    1.083   1_556 S
C891   H905    1.077   .     S
C892   O928    1.221   .     D
C892   H909    1.084   .     S
C893   C897    1.413   .     A
C894   C898    1.401   .     A
C895   C896    1.391   .     A
C895   C365    1.404   1_556 S
C895   C372    1.420   1_556 S
C896   C897    1.387   .     A
C896   H916    1.084   .     S
C897   H907    1.080   .     S
C898   H903    1.077   .     S
C899   H902    1.083   .     S
Cu900  O924    1.960   .     S
Cu900  O920    1.959   .     S
Cu900  N918    2.012   .     S
Cu900  Cu901   2.677   .     S
Cu900  O922    1.955   .     S
Cu900  O926    1.942   .     S
Cu901  O927    1.955   .     S
Cu901  O925    1.959   .     S
Cu901  N919    2.012   .     S
Cu901  O923    1.942   .     S
Cu901  O921    1.960   .     S
H917   C365    1.084   1_556 S
C929   O978    1.289   .     A
C929   C937    1.443   .     S
C929   O979    1.289   .     A
C930   C932    1.474   .     S
C930   C951    1.421   .     A
C930   C947    1.403   .     A
C931   C937    1.395   .     A
C931   H966    1.084   .     S
C931   C585    1.382   1_565 S
C932   O981    1.294   .     A
C932   O980    1.298   .     A
C933   C934    1.402   .     A
C933   H968    1.084   .     S
C934   C935    1.416   .     A
C934   C943    1.451   .     S
C935   C950    1.486   .     S
C936   H969    1.084   .     S
C936   C937    1.397   .     A
C936   C587    1.394   1_565 S
C938   H970    1.082   .     S
C938   N977    1.367   .     A
C938   C997    1.416   .     S
C939   H971    1.082   .     S
C939   N976    1.367   .     A
C940   C951    1.419   .     A
C940   C427    1.418   1_556 S
C940   C430    1.424   1_556 S
C941   N976    1.368   .     A
C941   H972    1.081   .     S
C942   N977    1.366   .     A
C942   H973    1.082   .     S
C942   C999    1.416   .     S
C943   O982    1.290   .     A
C943   O983    1.291   .     A
C944   O984    1.293   .     A
C944   O985    1.295   .     A
C944   C946    1.462   .     S
C945   C957    1.393   .     A
C946   C957    1.399   .     A
C946   C956    1.396   .     A
C947   C948    1.386   .     A
C947   H962    1.083   .     S
C948   C427    1.390   1_556 S
C948   H442    1.083   1_556 S
C949   H963    1.077   .     S
C950   O986    1.221   .     D
C950   H967    1.084   .     S
C951   C955    1.413   .     A
C952   C956    1.401   .     A
C953   C954    1.391   .     A
C953   C423    1.404   1_556 S
C953   C430    1.420   1_556 S
C954   C955    1.387   .     A
C954   H974    1.084   .     S
C955   H965    1.080   .     S
C956   H961    1.077   .     S
C957   H960    1.083   .     S
Cu958  O982    1.960   .     S
Cu958  O978    1.959   .     S
Cu958  N976    2.012   .     S
Cu958  Cu959   2.677   .     S
Cu958  O980    1.955   .     S
Cu958  O984    1.942   .     S
Cu959  O985    1.955   .     S
Cu959  O983    1.959   .     S
Cu959  N977    2.012   .     S
Cu959  O981    1.942   .     S
Cu959  O979    1.960   .     S
H975   C423    1.084   1_556 S
C987   O1036   1.289   .     A
C987   C995    1.443   .     S
C987   O1037   1.289   .     A
C988   C990    1.474   .     S
C988   C1009   1.421   .     A
C988   C1005   1.403   .     A
C989   C995    1.395   .     A
C989   H1024   1.084   .     S
C989   C643    1.382   1_565 S
C990   O1039   1.294   .     A
C990   O1038   1.298   .     A
C991   C992    1.402   .     A
C991   H1026   1.084   .     S
C992   C993    1.416   .     A
C992   C1001   1.451   .     S
C993   C1008   1.486   .     S
C994   H1027   1.084   .     S
C994   C995    1.397   .     A
C994   C645    1.394   1_565 S
C996   H1028   1.082   .     S
C996   N1035   1.367   .     A
C996   C881    1.416   1_655 S
C997   H1029   1.082   .     S
C997   N1034   1.367   .     A
C998   C1009   1.419   .     A
C998   C485    1.418   1_556 S
C998   C488    1.424   1_556 S
C999   N1034   1.368   .     A
C999   H1030   1.081   .     S
C1000  N1035   1.366   .     A
C1000  H1031   1.082   .     S
C1000  C883    1.416   1_655 S
C1001  O1040   1.290   .     A
C1001  O1041   1.291   .     A
C1002  O1042   1.293   .     A
C1002  O1043   1.295   .     A
C1002  C1004   1.462   .     S
C1003  C1015   1.393   .     A
C1004  C1015   1.399   .     A
C1004  C1014   1.396   .     A
C1005  C1006   1.386   .     A
C1005  H1020   1.083   .     S
C1006  C485    1.390   1_556 S
C1006  H500    1.083   1_556 S
C1007  H1021   1.077   .     S
C1008  O1044   1.221   .     D
C1008  H1025   1.084   .     S
C1009  C1013   1.413   .     A
C1010  C1014   1.401   .     A
C1011  C1012   1.391   .     A
C1011  C481    1.404   1_556 S
C1011  C488    1.420   1_556 S
C1012  C1013   1.387   .     A
C1012  H1032   1.084   .     S
C1013  H1023   1.080   .     S
C1014  H1019   1.077   .     S
C1015  H1018   1.083   .     S
Cu1016 O1040   1.960   .     S
Cu1016 O1036   1.959   .     S
Cu1016 N1034   2.012   .     S
Cu1016 Cu1017  2.677   .     S
Cu1016 O1038   1.955   .     S
Cu1016 O1042   1.942   .     S
Cu1017 O1043   1.955   .     S
Cu1017 O1041   1.959   .     S
Cu1017 N1035   2.012   .     S
Cu1017 O1039   1.942   .     S
Cu1017 O1037   1.960   .     S
H1033  C481    1.084   1_556 S
