data_str_m2_o2_o10_pcu_sym.5
_audit_creation_date              2020-01-03
_audit_creation_method            'Materials Studio'
_symmetry_space_group_name_H-M    'P1'
_symmetry_Int_Tables_number       1
_symmetry_cell_setting            triclinic
loop_
_symmetry_equiv_pos_as_xyz
  x,y,z
_cell_length_a                    26.1749
_cell_length_b                    30.2453
_cell_length_c                    27.7287
_cell_angle_alpha                 89.7502
_cell_angle_beta                  97.9724
_cell_angle_gamma                 90.2382
loop_
_atom_site_label
_atom_site_type_symbol
_atom_site_fract_x
_atom_site_fract_y
_atom_site_fract_z
_atom_site_U_iso_or_equiv
_atom_site_adp_type
_atom_site_occupancy
C1     C     0.16719   0.16480   0.25024   0.00000  Uiso   1.00
C2     C     0.19193   0.28333   0.44920   0.00000  Uiso   1.00
C3     C     0.16677   0.24980   0.02733   0.00000  Uiso   1.00
C4     C     0.16679   0.24980   0.47265   0.00000  Uiso   1.00
C5     C     0.06789   0.24987   0.23755   0.00000  Uiso   1.00
C6     C     0.26545   0.25001   0.26246   0.00000  Uiso   1.00
C7     C     0.01261   0.24950   0.23069   0.00000  Uiso   1.00
C8     C     0.32072   0.25011   0.26934   0.00000  Uiso   1.00
C9     C     0.17708   0.04621   0.29413   0.00000  Uiso   1.00
C10    C     0.19729   0.45265   0.21966   0.00000  Uiso   1.00
C11    C     0.17871   0.09233   0.29494   0.00000  Uiso   1.00
C12    C     0.16727   0.33496   0.24998   0.00000  Uiso   1.00
C13    C     0.19903   0.40655   0.22060   0.00000  Uiso   1.00
C14    C     0.16810   0.11625   0.25076   0.00000  Uiso   1.00
C15    C     0.16827   0.38307   0.24994   0.00000  Uiso   1.00
C16    C     0.15869   0.09328   0.20649   0.00000  Uiso   1.00
C17    C     0.13853   0.40591   0.27989   0.00000  Uiso   1.00
C18    C     0.15870   0.04734   0.20603   0.00000  Uiso   1.00
C19    C     0.13816   0.45184   0.27978   0.00000  Uiso   1.00
C20    C     0.16744   0.02368   0.24983   0.00000  Uiso   1.00
C21    C     0.16725   0.47535   0.24944   0.00000  Uiso   1.00
C22    C     0.24291   0.11474   0.35336   0.00000  Uiso   1.00
C23    C     0.20700   0.26972   0.05912   0.00000  Uiso   1.00
C24    C     0.25540   0.14460   0.39746   0.00000  Uiso   1.00
C25    C     0.28002   0.38004   0.22132   0.00000  Uiso   1.00
C26    C     0.31831   0.36245   0.18962   0.00000  Uiso   1.00
C27    C     0.14160   0.21635   0.44285   0.00000  Uiso   1.00
C28    C     0.20597   0.26976   0.10970   0.00000  Uiso   1.00
C29    C     0.14162   0.21729   0.39212   0.00000  Uiso   1.00
C30    C     0.12740   0.23013   0.09965   0.00000  Uiso   1.00
C31    C     0.19175   0.28260   0.39845   0.00000  Uiso   1.00
C32    C     0.12649   0.22995   0.04879   0.00000  Uiso   1.00
Cu33   Cu    0.16667   0.24999   0.29821   0.00000  Uiso   1.00
Cu34   Cu    0.16667   0.25000   0.20178   0.00000  Uiso   1.00
H35    H     0.32594   0.24876   0.19362   0.00000  Uiso   1.00
H36    H     0.12244   0.18912   0.45839   0.00000  Uiso   1.00
H37    H     0.23698   0.28552   0.13325   0.00000  Uiso   1.00
H38    H     0.12181   0.19146   0.36996   0.00000  Uiso   1.00
H39    H     0.09633   0.21437   0.11527   0.00000  Uiso   1.00
H40    H     0.21162   0.30845   0.38132   0.00000  Uiso   1.00
H41    H     0.09389   0.21480   0.02663   0.00000  Uiso   1.00
H42    H     0.21117   0.31049   0.46958   0.00000  Uiso   1.00
H43    H     0.26349   0.12814   0.32376   0.00000  Uiso   1.00
H44    H     0.25747   0.08096   0.36352   0.00000  Uiso   1.00
H45    H     0.23454   0.13305   0.42745   0.00000  Uiso   1.00
H46    H     0.00740   0.25074   0.30641   0.00000  Uiso   1.00
H47    H     0.29753   0.14403   0.41021   0.00000  Uiso   1.00
H48    H     0.24384   0.17909   0.38758   0.00000  Uiso   1.00
H49    H     0.27776   0.35618   0.25166   0.00000  Uiso   1.00
H50    H     0.29521   0.41230   0.23667   0.00000  Uiso   1.00
H51    H     0.32213   0.38607   0.15955   0.00000  Uiso   1.00
H52    H     0.02333   0.35810   0.21187   0.00000  Uiso   1.00
H53    H     0.30501   0.33006   0.17396   0.00000  Uiso   1.00
H54    H     0.18439   0.02800   0.32811   0.00000  Uiso   1.00
H55    H     0.22073   0.47069   0.19688   0.00000  Uiso   1.00
H56    H     0.15089   0.11078   0.17211   0.00000  Uiso   1.00
H57    H     0.11508   0.38817   0.30290   0.00000  Uiso   1.00
H58    H     0.15106   0.03021   0.17153   0.00000  Uiso   1.00
H59    H     0.11470   0.46906   0.30289   0.00000  Uiso   1.00
H60    H     0.23966   0.28479   0.04538   0.00000  Uiso   1.00
N61    N     0.16667   0.25001   0.12934   0.00000  Uiso   1.00
N62    N     0.16667   0.24999   0.37065   0.00000  Uiso   1.00
O63    O     0.16667   0.18572   0.29071   0.00000  Uiso   1.00
O64    O     0.23112   0.38482   0.19295   0.00000  Uiso   1.00
O65    O     0.16666   0.31427   0.20928   0.00000  Uiso   1.00
O66    O     0.16667   0.18573   0.20928   0.00000  Uiso   1.00
O67    O     0.16666   0.31427   0.29072   0.00000  Uiso   1.00
O68    O     0.09161   0.24999   0.28132   0.00000  Uiso   1.00
O69    O     0.24172   0.25000   0.21868   0.00000  Uiso   1.00
O70    O     0.09161   0.25000   0.19988   0.00000  Uiso   1.00
O71    O     0.24172   0.25000   0.30011   0.00000  Uiso   1.00
O72    O     0.18897   0.11380   0.33918   0.00000  Uiso   1.00
C73    C     0.50052   0.16480   0.25024   0.00000  Uiso   1.00
C74    C     0.52527   0.28333   0.44920   0.00000  Uiso   1.00
C75    C     0.50010   0.24980   0.02733   0.00000  Uiso   1.00
C76    C     0.50012   0.24980   0.47265   0.00000  Uiso   1.00
C77    C     0.40122   0.24987   0.23755   0.00000  Uiso   1.00
C78    C     0.59878   0.25001   0.26246   0.00000  Uiso   1.00
C79    C     0.34595   0.24950   0.23069   0.00000  Uiso   1.00
C80    C     0.65406   0.25011   0.26934   0.00000  Uiso   1.00
C81    C     0.51041   0.04621   0.29413   0.00000  Uiso   1.00
C82    C     0.53062   0.45265   0.21966   0.00000  Uiso   1.00
C83    C     0.51204   0.09233   0.29494   0.00000  Uiso   1.00
C84    C     0.50061   0.33496   0.24998   0.00000  Uiso   1.00
C85    C     0.53236   0.40655   0.22060   0.00000  Uiso   1.00
C86    C     0.50143   0.11625   0.25076   0.00000  Uiso   1.00
C87    C     0.50160   0.38307   0.24994   0.00000  Uiso   1.00
C88    C     0.49203   0.09328   0.20649   0.00000  Uiso   1.00
C89    C     0.47186   0.40591   0.27989   0.00000  Uiso   1.00
C90    C     0.49203   0.04734   0.20603   0.00000  Uiso   1.00
C91    C     0.47149   0.45184   0.27978   0.00000  Uiso   1.00
C92    C     0.50077   0.02368   0.24983   0.00000  Uiso   1.00
C93    C     0.50059   0.47535   0.24944   0.00000  Uiso   1.00
C94    C     0.57625   0.11474   0.35336   0.00000  Uiso   1.00
C95    C     0.54033   0.26972   0.05912   0.00000  Uiso   1.00
C96    C     0.58874   0.14460   0.39746   0.00000  Uiso   1.00
C97    C     0.61335   0.38004   0.22132   0.00000  Uiso   1.00
C98    C     0.65164   0.36245   0.18962   0.00000  Uiso   1.00
C99    C     0.47493   0.21635   0.44285   0.00000  Uiso   1.00
C100   C     0.53930   0.26976   0.10970   0.00000  Uiso   1.00
C101   C     0.47495   0.21729   0.39212   0.00000  Uiso   1.00
C102   C     0.46073   0.23013   0.09965   0.00000  Uiso   1.00
C103   C     0.52508   0.28260   0.39845   0.00000  Uiso   1.00
C104   C     0.45982   0.22995   0.04879   0.00000  Uiso   1.00
Cu105  Cu    0.50000   0.24999   0.29821   0.00000  Uiso   1.00
Cu106  Cu    0.50000   0.25000   0.20178   0.00000  Uiso   1.00
H107   H     0.65927   0.24876   0.19362   0.00000  Uiso   1.00
H108   H     0.45577   0.18912   0.45839   0.00000  Uiso   1.00
H109   H     0.57031   0.28552   0.13325   0.00000  Uiso   1.00
H110   H     0.45514   0.19146   0.36996   0.00000  Uiso   1.00
H111   H     0.42966   0.21437   0.11527   0.00000  Uiso   1.00
H112   H     0.54495   0.30845   0.38132   0.00000  Uiso   1.00
H113   H     0.42723   0.21480   0.02663   0.00000  Uiso   1.00
H114   H     0.54450   0.31049   0.46958   0.00000  Uiso   1.00
H115   H     0.59682   0.12814   0.32376   0.00000  Uiso   1.00
H116   H     0.59080   0.08096   0.36352   0.00000  Uiso   1.00
H117   H     0.56787   0.13305   0.42745   0.00000  Uiso   1.00
H118   H     0.34074   0.25074   0.30641   0.00000  Uiso   1.00
H119   H     0.63086   0.14403   0.41021   0.00000  Uiso   1.00
H120   H     0.57717   0.17909   0.38758   0.00000  Uiso   1.00
H121   H     0.61109   0.35618   0.25166   0.00000  Uiso   1.00
H122   H     0.62854   0.41230   0.23667   0.00000  Uiso   1.00
H123   H     0.65547   0.38607   0.15955   0.00000  Uiso   1.00
H124   H     0.35666   0.35810   0.21187   0.00000  Uiso   1.00
H125   H     0.63834   0.33006   0.17396   0.00000  Uiso   1.00
H126   H     0.51773   0.02800   0.32811   0.00000  Uiso   1.00
H127   H     0.55406   0.47069   0.19688   0.00000  Uiso   1.00
H128   H     0.48423   0.11078   0.17211   0.00000  Uiso   1.00
H129   H     0.44842   0.38817   0.30290   0.00000  Uiso   1.00
H130   H     0.48439   0.03021   0.17153   0.00000  Uiso   1.00
H131   H     0.44803   0.46906   0.30289   0.00000  Uiso   1.00
H132   H     0.57299   0.28479   0.04538   0.00000  Uiso   1.00
N133   N     0.50000   0.25001   0.12934   0.00000  Uiso   1.00
N134   N     0.50000   0.24999   0.37065   0.00000  Uiso   1.00
O135   O     0.50000   0.18572   0.29071   0.00000  Uiso   1.00
O136   O     0.56445   0.38482   0.19295   0.00000  Uiso   1.00
O137   O     0.50000   0.31427   0.20928   0.00000  Uiso   1.00
O138   O     0.50000   0.18573   0.20928   0.00000  Uiso   1.00
O139   O     0.50000   0.31427   0.29072   0.00000  Uiso   1.00
O140   O     0.42495   0.24999   0.28132   0.00000  Uiso   1.00
O141   O     0.57505   0.25000   0.21868   0.00000  Uiso   1.00
O142   O     0.42495   0.25000   0.19988   0.00000  Uiso   1.00
O143   O     0.57505   0.25000   0.30011   0.00000  Uiso   1.00
O144   O     0.52230   0.11380   0.33918   0.00000  Uiso   1.00
C145   C     0.83386   0.16480   0.25024   0.00000  Uiso   1.00
C146   C     0.85860   0.28333   0.44920   0.00000  Uiso   1.00
C147   C     0.83344   0.24980   0.02733   0.00000  Uiso   1.00
C148   C     0.83345   0.24980   0.47265   0.00000  Uiso   1.00
C149   C     0.73455   0.24987   0.23755   0.00000  Uiso   1.00
C150   C     0.93211   0.25001   0.26246   0.00000  Uiso   1.00
C151   C     0.67928   0.24950   0.23069   0.00000  Uiso   1.00
C152   C     0.98739   0.25011   0.26934   0.00000  Uiso   1.00
C153   C     0.84374   0.04621   0.29413   0.00000  Uiso   1.00
C154   C     0.86396   0.45265   0.21966   0.00000  Uiso   1.00
C155   C     0.84537   0.09233   0.29494   0.00000  Uiso   1.00
C156   C     0.83394   0.33496   0.24998   0.00000  Uiso   1.00
C157   C     0.86570   0.40655   0.22060   0.00000  Uiso   1.00
C158   C     0.83476   0.11625   0.25076   0.00000  Uiso   1.00
C159   C     0.83493   0.38307   0.24994   0.00000  Uiso   1.00
C160   C     0.82536   0.09328   0.20649   0.00000  Uiso   1.00
C161   C     0.80520   0.40591   0.27989   0.00000  Uiso   1.00
C162   C     0.82537   0.04734   0.20603   0.00000  Uiso   1.00
C163   C     0.80483   0.45184   0.27978   0.00000  Uiso   1.00
C164   C     0.83410   0.02368   0.24983   0.00000  Uiso   1.00
C165   C     0.83392   0.47535   0.24944   0.00000  Uiso   1.00
C166   C     0.90958   0.11474   0.35336   0.00000  Uiso   1.00
C167   C     0.87367   0.26972   0.05912   0.00000  Uiso   1.00
C168   C     0.92207   0.14460   0.39746   0.00000  Uiso   1.00
C169   C     0.94669   0.38004   0.22132   0.00000  Uiso   1.00
C170   C     0.98497   0.36245   0.18962   0.00000  Uiso   1.00
C171   C     0.80827   0.21635   0.44285   0.00000  Uiso   1.00
C172   C     0.87263   0.26976   0.10970   0.00000  Uiso   1.00
C173   C     0.80829   0.21729   0.39212   0.00000  Uiso   1.00
C174   C     0.79407   0.23013   0.09965   0.00000  Uiso   1.00
C175   C     0.85841   0.28260   0.39845   0.00000  Uiso   1.00
C176   C     0.79316   0.22995   0.04879   0.00000  Uiso   1.00
Cu177  Cu    0.83333   0.24999   0.29821   0.00000  Uiso   1.00
Cu178  Cu    0.83333   0.25000   0.20178   0.00000  Uiso   1.00
H179   H     0.99260   0.24876   0.19362   0.00000  Uiso   1.00
H180   H     0.78910   0.18912   0.45839   0.00000  Uiso   1.00
H181   H     0.90365   0.28552   0.13325   0.00000  Uiso   1.00
H182   H     0.78848   0.19146   0.36996   0.00000  Uiso   1.00
H183   H     0.76300   0.21437   0.11527   0.00000  Uiso   1.00
H184   H     0.87828   0.30845   0.38132   0.00000  Uiso   1.00
H185   H     0.76056   0.21480   0.02663   0.00000  Uiso   1.00
H186   H     0.87783   0.31049   0.46958   0.00000  Uiso   1.00
H187   H     0.93016   0.12814   0.32376   0.00000  Uiso   1.00
H188   H     0.92414   0.08096   0.36352   0.00000  Uiso   1.00
H189   H     0.90120   0.13305   0.42745   0.00000  Uiso   1.00
H190   H     0.67407   0.25074   0.30641   0.00000  Uiso   1.00
H191   H     0.96420   0.14403   0.41021   0.00000  Uiso   1.00
H192   H     0.91050   0.17909   0.38758   0.00000  Uiso   1.00
H193   H     0.94442   0.35618   0.25166   0.00000  Uiso   1.00
H194   H     0.96187   0.41230   0.23667   0.00000  Uiso   1.00
H195   H     0.98880   0.38607   0.15955   0.00000  Uiso   1.00
H196   H     0.69000   0.35810   0.21187   0.00000  Uiso   1.00
H197   H     0.97167   0.33006   0.17396   0.00000  Uiso   1.00
H198   H     0.85106   0.02800   0.32811   0.00000  Uiso   1.00
H199   H     0.88739   0.47069   0.19688   0.00000  Uiso   1.00
H200   H     0.81756   0.11078   0.17211   0.00000  Uiso   1.00
H201   H     0.78175   0.38817   0.30290   0.00000  Uiso   1.00
H202   H     0.81773   0.03021   0.17153   0.00000  Uiso   1.00
H203   H     0.78136   0.46906   0.30289   0.00000  Uiso   1.00
H204   H     0.90632   0.28479   0.04538   0.00000  Uiso   1.00
N205   N     0.83333   0.25001   0.12934   0.00000  Uiso   1.00
N206   N     0.83333   0.24999   0.37065   0.00000  Uiso   1.00
O207   O     0.83334   0.18572   0.29071   0.00000  Uiso   1.00
O208   O     0.89779   0.38482   0.19295   0.00000  Uiso   1.00
O209   O     0.83333   0.31427   0.20928   0.00000  Uiso   1.00
O210   O     0.83334   0.18573   0.20928   0.00000  Uiso   1.00
O211   O     0.83333   0.31427   0.29072   0.00000  Uiso   1.00
O212   O     0.75828   0.24999   0.28132   0.00000  Uiso   1.00
O213   O     0.90839   0.25000   0.21868   0.00000  Uiso   1.00
O214   O     0.75828   0.25000   0.19988   0.00000  Uiso   1.00
O215   O     0.90839   0.25000   0.30011   0.00000  Uiso   1.00
O216   O     0.85563   0.11380   0.33918   0.00000  Uiso   1.00
C217   C     0.16719   0.66480   0.25024   0.00000  Uiso   1.00
C218   C     0.19193   0.78333   0.44920   0.00000  Uiso   1.00
C219   C     0.16677   0.74980   0.02733   0.00000  Uiso   1.00
C220   C     0.16679   0.74980   0.47265   0.00000  Uiso   1.00
C221   C     0.06789   0.74987   0.23755   0.00000  Uiso   1.00
C222   C     0.26545   0.75001   0.26246   0.00000  Uiso   1.00
C223   C     0.01261   0.74950   0.23069   0.00000  Uiso   1.00
C224   C     0.32072   0.75011   0.26934   0.00000  Uiso   1.00
C225   C     0.17708   0.54621   0.29413   0.00000  Uiso   1.00
C226   C     0.19729   0.95265   0.21966   0.00000  Uiso   1.00
C227   C     0.17871   0.59233   0.29494   0.00000  Uiso   1.00
C228   C     0.16727   0.83496   0.24998   0.00000  Uiso   1.00
C229   C     0.19903   0.90655   0.22060   0.00000  Uiso   1.00
C230   C     0.16810   0.61625   0.25076   0.00000  Uiso   1.00
C231   C     0.16827   0.88307   0.24994   0.00000  Uiso   1.00
C232   C     0.15869   0.59328   0.20649   0.00000  Uiso   1.00
C233   C     0.13853   0.90591   0.27989   0.00000  Uiso   1.00
C234   C     0.15870   0.54734   0.20603   0.00000  Uiso   1.00
C235   C     0.13816   0.95184   0.27978   0.00000  Uiso   1.00
C236   C     0.16744   0.52368   0.24983   0.00000  Uiso   1.00
C237   C     0.16725   0.97535   0.24944   0.00000  Uiso   1.00
C238   C     0.24291   0.61474   0.35336   0.00000  Uiso   1.00
C239   C     0.20700   0.76972   0.05912   0.00000  Uiso   1.00
C240   C     0.25540   0.64460   0.39746   0.00000  Uiso   1.00
C241   C     0.28002   0.88004   0.22132   0.00000  Uiso   1.00
C242   C     0.31831   0.86245   0.18962   0.00000  Uiso   1.00
C243   C     0.14160   0.71635   0.44285   0.00000  Uiso   1.00
C244   C     0.20597   0.76976   0.10970   0.00000  Uiso   1.00
C245   C     0.14162   0.71729   0.39212   0.00000  Uiso   1.00
C246   C     0.12740   0.73013   0.09965   0.00000  Uiso   1.00
C247   C     0.19175   0.78260   0.39845   0.00000  Uiso   1.00
C248   C     0.12649   0.72995   0.04879   0.00000  Uiso   1.00
Cu249  Cu    0.16667   0.74999   0.29821   0.00000  Uiso   1.00
Cu250  Cu    0.16667   0.75000   0.20178   0.00000  Uiso   1.00
H251   H     0.32594   0.74876   0.19362   0.00000  Uiso   1.00
H252   H     0.12244   0.68912   0.45839   0.00000  Uiso   1.00
H253   H     0.23698   0.78552   0.13325   0.00000  Uiso   1.00
H254   H     0.12181   0.69146   0.36996   0.00000  Uiso   1.00
H255   H     0.09633   0.71437   0.11527   0.00000  Uiso   1.00
H256   H     0.21162   0.80845   0.38132   0.00000  Uiso   1.00
H257   H     0.09389   0.71480   0.02663   0.00000  Uiso   1.00
H258   H     0.21117   0.81049   0.46958   0.00000  Uiso   1.00
H259   H     0.26349   0.62814   0.32376   0.00000  Uiso   1.00
H260   H     0.25747   0.58096   0.36352   0.00000  Uiso   1.00
H261   H     0.23454   0.63305   0.42745   0.00000  Uiso   1.00
H262   H     0.00740   0.75074   0.30641   0.00000  Uiso   1.00
H263   H     0.29753   0.64403   0.41021   0.00000  Uiso   1.00
H264   H     0.24384   0.67909   0.38758   0.00000  Uiso   1.00
H265   H     0.27776   0.85618   0.25166   0.00000  Uiso   1.00
H266   H     0.29521   0.91230   0.23667   0.00000  Uiso   1.00
H267   H     0.32213   0.88607   0.15955   0.00000  Uiso   1.00
H268   H     0.02333   0.85810   0.21187   0.00000  Uiso   1.00
H269   H     0.30501   0.83006   0.17396   0.00000  Uiso   1.00
H270   H     0.18439   0.52800   0.32811   0.00000  Uiso   1.00
H271   H     0.22073   0.97069   0.19688   0.00000  Uiso   1.00
H272   H     0.15089   0.61078   0.17211   0.00000  Uiso   1.00
H273   H     0.11508   0.88817   0.30290   0.00000  Uiso   1.00
H274   H     0.15106   0.53021   0.17153   0.00000  Uiso   1.00
H275   H     0.11470   0.96906   0.30289   0.00000  Uiso   1.00
H276   H     0.23966   0.78479   0.04538   0.00000  Uiso   1.00
N277   N     0.16667   0.75001   0.12934   0.00000  Uiso   1.00
N278   N     0.16667   0.74999   0.37065   0.00000  Uiso   1.00
O279   O     0.16667   0.68572   0.29071   0.00000  Uiso   1.00
O280   O     0.23112   0.88482   0.19295   0.00000  Uiso   1.00
O281   O     0.16666   0.81427   0.20928   0.00000  Uiso   1.00
O282   O     0.16667   0.68573   0.20928   0.00000  Uiso   1.00
O283   O     0.16666   0.81427   0.29072   0.00000  Uiso   1.00
O284   O     0.09161   0.74999   0.28132   0.00000  Uiso   1.00
O285   O     0.24172   0.75000   0.21868   0.00000  Uiso   1.00
O286   O     0.09161   0.75000   0.19988   0.00000  Uiso   1.00
O287   O     0.24172   0.75000   0.30011   0.00000  Uiso   1.00
O288   O     0.18897   0.61380   0.33918   0.00000  Uiso   1.00
C289   C     0.50052   0.66480   0.25024   0.00000  Uiso   1.00
C290   C     0.52527   0.78333   0.44920   0.00000  Uiso   1.00
C291   C     0.50010   0.74980   0.02733   0.00000  Uiso   1.00
C292   C     0.50012   0.74980   0.47265   0.00000  Uiso   1.00
C293   C     0.40122   0.74987   0.23755   0.00000  Uiso   1.00
C294   C     0.59878   0.75001   0.26246   0.00000  Uiso   1.00
C295   C     0.34595   0.74950   0.23069   0.00000  Uiso   1.00
C296   C     0.65406   0.75011   0.26934   0.00000  Uiso   1.00
C297   C     0.51041   0.54621   0.29413   0.00000  Uiso   1.00
C298   C     0.53062   0.95265   0.21966   0.00000  Uiso   1.00
C299   C     0.51204   0.59233   0.29494   0.00000  Uiso   1.00
C300   C     0.50061   0.83496   0.24998   0.00000  Uiso   1.00
C301   C     0.53236   0.90655   0.22060   0.00000  Uiso   1.00
C302   C     0.50143   0.61625   0.25076   0.00000  Uiso   1.00
C303   C     0.50160   0.88307   0.24994   0.00000  Uiso   1.00
C304   C     0.49203   0.59328   0.20649   0.00000  Uiso   1.00
C305   C     0.47186   0.90591   0.27989   0.00000  Uiso   1.00
C306   C     0.49203   0.54734   0.20603   0.00000  Uiso   1.00
C307   C     0.47149   0.95184   0.27978   0.00000  Uiso   1.00
C308   C     0.50077   0.52368   0.24983   0.00000  Uiso   1.00
C309   C     0.50059   0.97535   0.24944   0.00000  Uiso   1.00
C310   C     0.57625   0.61474   0.35336   0.00000  Uiso   1.00
C311   C     0.54033   0.76972   0.05912   0.00000  Uiso   1.00
C312   C     0.58874   0.64460   0.39746   0.00000  Uiso   1.00
C313   C     0.61335   0.88004   0.22132   0.00000  Uiso   1.00
C314   C     0.65164   0.86245   0.18962   0.00000  Uiso   1.00
C315   C     0.47493   0.71635   0.44285   0.00000  Uiso   1.00
C316   C     0.53930   0.76976   0.10970   0.00000  Uiso   1.00
C317   C     0.47495   0.71729   0.39212   0.00000  Uiso   1.00
C318   C     0.46073   0.73013   0.09965   0.00000  Uiso   1.00
C319   C     0.52508   0.78260   0.39845   0.00000  Uiso   1.00
C320   C     0.45982   0.72995   0.04879   0.00000  Uiso   1.00
Cu321  Cu    0.50000   0.74999   0.29821   0.00000  Uiso   1.00
Cu322  Cu    0.50000   0.75000   0.20178   0.00000  Uiso   1.00
H323   H     0.65927   0.74876   0.19362   0.00000  Uiso   1.00
H324   H     0.45577   0.68912   0.45839   0.00000  Uiso   1.00
H325   H     0.57031   0.78552   0.13325   0.00000  Uiso   1.00
H326   H     0.45514   0.69146   0.36996   0.00000  Uiso   1.00
H327   H     0.42966   0.71437   0.11527   0.00000  Uiso   1.00
H328   H     0.54495   0.80845   0.38132   0.00000  Uiso   1.00
H329   H     0.42723   0.71480   0.02663   0.00000  Uiso   1.00
H330   H     0.54450   0.81049   0.46958   0.00000  Uiso   1.00
H331   H     0.59682   0.62814   0.32376   0.00000  Uiso   1.00
H332   H     0.59080   0.58096   0.36352   0.00000  Uiso   1.00
H333   H     0.56787   0.63305   0.42745   0.00000  Uiso   1.00
H334   H     0.34074   0.75074   0.30641   0.00000  Uiso   1.00
H335   H     0.63086   0.64403   0.41021   0.00000  Uiso   1.00
H336   H     0.57717   0.67909   0.38758   0.00000  Uiso   1.00
H337   H     0.61109   0.85618   0.25166   0.00000  Uiso   1.00
H338   H     0.62854   0.91230   0.23667   0.00000  Uiso   1.00
H339   H     0.65547   0.88607   0.15955   0.00000  Uiso   1.00
H340   H     0.35666   0.85810   0.21187   0.00000  Uiso   1.00
H341   H     0.63834   0.83006   0.17396   0.00000  Uiso   1.00
H342   H     0.51773   0.52800   0.32811   0.00000  Uiso   1.00
H343   H     0.55406   0.97069   0.19688   0.00000  Uiso   1.00
H344   H     0.48423   0.61078   0.17211   0.00000  Uiso   1.00
H345   H     0.44842   0.88817   0.30290   0.00000  Uiso   1.00
H346   H     0.48439   0.53021   0.17153   0.00000  Uiso   1.00
H347   H     0.44803   0.96906   0.30289   0.00000  Uiso   1.00
H348   H     0.57299   0.78479   0.04538   0.00000  Uiso   1.00
N349   N     0.50000   0.75001   0.12934   0.00000  Uiso   1.00
N350   N     0.50000   0.74999   0.37065   0.00000  Uiso   1.00
O351   O     0.50000   0.68572   0.29071   0.00000  Uiso   1.00
O352   O     0.56445   0.88482   0.19295   0.00000  Uiso   1.00
O353   O     0.50000   0.81427   0.20928   0.00000  Uiso   1.00
O354   O     0.50000   0.68573   0.20928   0.00000  Uiso   1.00
O355   O     0.50000   0.81427   0.29072   0.00000  Uiso   1.00
O356   O     0.42495   0.74999   0.28132   0.00000  Uiso   1.00
O357   O     0.57505   0.75000   0.21868   0.00000  Uiso   1.00
O358   O     0.42495   0.75000   0.19988   0.00000  Uiso   1.00
O359   O     0.57505   0.75000   0.30011   0.00000  Uiso   1.00
O360   O     0.52230   0.61380   0.33918   0.00000  Uiso   1.00
C361   C     0.83386   0.66480   0.25024   0.00000  Uiso   1.00
C362   C     0.85860   0.78333   0.44920   0.00000  Uiso   1.00
C363   C     0.83344   0.74980   0.02733   0.00000  Uiso   1.00
C364   C     0.83345   0.74980   0.47265   0.00000  Uiso   1.00
C365   C     0.73455   0.74987   0.23755   0.00000  Uiso   1.00
C366   C     0.93211   0.75001   0.26246   0.00000  Uiso   1.00
C367   C     0.67928   0.74950   0.23069   0.00000  Uiso   1.00
C368   C     0.98739   0.75011   0.26934   0.00000  Uiso   1.00
C369   C     0.84374   0.54621   0.29413   0.00000  Uiso   1.00
C370   C     0.86396   0.95265   0.21966   0.00000  Uiso   1.00
C371   C     0.84537   0.59233   0.29494   0.00000  Uiso   1.00
C372   C     0.83394   0.83496   0.24998   0.00000  Uiso   1.00
C373   C     0.86570   0.90655   0.22060   0.00000  Uiso   1.00
C374   C     0.83476   0.61625   0.25076   0.00000  Uiso   1.00
C375   C     0.83493   0.88307   0.24994   0.00000  Uiso   1.00
C376   C     0.82536   0.59328   0.20649   0.00000  Uiso   1.00
C377   C     0.80520   0.90591   0.27989   0.00000  Uiso   1.00
C378   C     0.82537   0.54734   0.20603   0.00000  Uiso   1.00
C379   C     0.80483   0.95184   0.27978   0.00000  Uiso   1.00
C380   C     0.83410   0.52368   0.24983   0.00000  Uiso   1.00
C381   C     0.83392   0.97535   0.24944   0.00000  Uiso   1.00
C382   C     0.90958   0.61474   0.35336   0.00000  Uiso   1.00
C383   C     0.87367   0.76972   0.05912   0.00000  Uiso   1.00
C384   C     0.92207   0.64460   0.39746   0.00000  Uiso   1.00
C385   C     0.94669   0.88004   0.22132   0.00000  Uiso   1.00
C386   C     0.98497   0.86245   0.18962   0.00000  Uiso   1.00
C387   C     0.80827   0.71635   0.44285   0.00000  Uiso   1.00
C388   C     0.87263   0.76976   0.10970   0.00000  Uiso   1.00
C389   C     0.80829   0.71729   0.39212   0.00000  Uiso   1.00
C390   C     0.79407   0.73013   0.09965   0.00000  Uiso   1.00
C391   C     0.85841   0.78260   0.39845   0.00000  Uiso   1.00
C392   C     0.79316   0.72995   0.04879   0.00000  Uiso   1.00
Cu393  Cu    0.83333   0.74999   0.29821   0.00000  Uiso   1.00
Cu394  Cu    0.83333   0.75000   0.20178   0.00000  Uiso   1.00
H395   H     0.99260   0.74876   0.19362   0.00000  Uiso   1.00
H396   H     0.78910   0.68912   0.45839   0.00000  Uiso   1.00
H397   H     0.90365   0.78552   0.13325   0.00000  Uiso   1.00
H398   H     0.78848   0.69146   0.36996   0.00000  Uiso   1.00
H399   H     0.76300   0.71437   0.11527   0.00000  Uiso   1.00
H400   H     0.87828   0.80845   0.38132   0.00000  Uiso   1.00
H401   H     0.76056   0.71480   0.02663   0.00000  Uiso   1.00
H402   H     0.87783   0.81049   0.46958   0.00000  Uiso   1.00
H403   H     0.93016   0.62814   0.32376   0.00000  Uiso   1.00
H404   H     0.92414   0.58096   0.36352   0.00000  Uiso   1.00
H405   H     0.90120   0.63305   0.42745   0.00000  Uiso   1.00
H406   H     0.67407   0.75074   0.30641   0.00000  Uiso   1.00
H407   H     0.96420   0.64403   0.41021   0.00000  Uiso   1.00
H408   H     0.91050   0.67909   0.38758   0.00000  Uiso   1.00
H409   H     0.94442   0.85618   0.25166   0.00000  Uiso   1.00
H410   H     0.96187   0.91230   0.23667   0.00000  Uiso   1.00
H411   H     0.98880   0.88607   0.15955   0.00000  Uiso   1.00
H412   H     0.69000   0.85810   0.21187   0.00000  Uiso   1.00
H413   H     0.97167   0.83006   0.17396   0.00000  Uiso   1.00
H414   H     0.85106   0.52800   0.32811   0.00000  Uiso   1.00
H415   H     0.88739   0.97069   0.19688   0.00000  Uiso   1.00
H416   H     0.81756   0.61078   0.17211   0.00000  Uiso   1.00
H417   H     0.78175   0.88817   0.30290   0.00000  Uiso   1.00
H418   H     0.81773   0.53021   0.17153   0.00000  Uiso   1.00
H419   H     0.78136   0.96906   0.30289   0.00000  Uiso   1.00
H420   H     0.90632   0.78479   0.04538   0.00000  Uiso   1.00
N421   N     0.83333   0.75001   0.12934   0.00000  Uiso   1.00
N422   N     0.83333   0.74999   0.37065   0.00000  Uiso   1.00
O423   O     0.83334   0.68572   0.29071   0.00000  Uiso   1.00
O424   O     0.89779   0.88482   0.19295   0.00000  Uiso   1.00
O425   O     0.83333   0.81427   0.20928   0.00000  Uiso   1.00
O426   O     0.83334   0.68573   0.20928   0.00000  Uiso   1.00
O427   O     0.83333   0.81427   0.29072   0.00000  Uiso   1.00
O428   O     0.75828   0.74999   0.28132   0.00000  Uiso   1.00
O429   O     0.90839   0.75000   0.21868   0.00000  Uiso   1.00
O430   O     0.75828   0.75000   0.19988   0.00000  Uiso   1.00
O431   O     0.90839   0.75000   0.30011   0.00000  Uiso   1.00
O432   O     0.85563   0.61380   0.33918   0.00000  Uiso   1.00
C433   C     0.16719   0.16480   0.75024   0.00000  Uiso   1.00
C434   C     0.19193   0.28333   0.94920   0.00000  Uiso   1.00
C435   C     0.16677   0.24980   0.52733   0.00000  Uiso   1.00
C436   C     0.16679   0.24980   0.97265   0.00000  Uiso   1.00
C437   C     0.06789   0.24987   0.73755   0.00000  Uiso   1.00
C438   C     0.26545   0.25001   0.76246   0.00000  Uiso   1.00
C439   C     0.01261   0.24950   0.73069   0.00000  Uiso   1.00
C440   C     0.32072   0.25011   0.76934   0.00000  Uiso   1.00
C441   C     0.17708   0.04621   0.79413   0.00000  Uiso   1.00
C442   C     0.19729   0.45265   0.71966   0.00000  Uiso   1.00
C443   C     0.17871   0.09233   0.79494   0.00000  Uiso   1.00
C444   C     0.16727   0.33496   0.74998   0.00000  Uiso   1.00
C445   C     0.19903   0.40655   0.72060   0.00000  Uiso   1.00
C446   C     0.16810   0.11625   0.75076   0.00000  Uiso   1.00
C447   C     0.16827   0.38307   0.74994   0.00000  Uiso   1.00
C448   C     0.15869   0.09328   0.70649   0.00000  Uiso   1.00
C449   C     0.13853   0.40591   0.77989   0.00000  Uiso   1.00
C450   C     0.15870   0.04734   0.70603   0.00000  Uiso   1.00
C451   C     0.13816   0.45184   0.77978   0.00000  Uiso   1.00
C452   C     0.16744   0.02368   0.74983   0.00000  Uiso   1.00
C453   C     0.16725   0.47535   0.74944   0.00000  Uiso   1.00
C454   C     0.24291   0.11474   0.85336   0.00000  Uiso   1.00
C455   C     0.20700   0.26972   0.55912   0.00000  Uiso   1.00
C456   C     0.25540   0.14460   0.89746   0.00000  Uiso   1.00
C457   C     0.28002   0.38004   0.72132   0.00000  Uiso   1.00
C458   C     0.31831   0.36245   0.68962   0.00000  Uiso   1.00
C459   C     0.14160   0.21635   0.94285   0.00000  Uiso   1.00
C460   C     0.20597   0.26976   0.60970   0.00000  Uiso   1.00
C461   C     0.14162   0.21729   0.89212   0.00000  Uiso   1.00
C462   C     0.12740   0.23013   0.59965   0.00000  Uiso   1.00
C463   C     0.19175   0.28260   0.89845   0.00000  Uiso   1.00
C464   C     0.12649   0.22995   0.54879   0.00000  Uiso   1.00
Cu465  Cu    0.16667   0.24999   0.79821   0.00000  Uiso   1.00
Cu466  Cu    0.16667   0.25000   0.70178   0.00000  Uiso   1.00
H467   H     0.32594   0.24876   0.69362   0.00000  Uiso   1.00
H468   H     0.12244   0.18912   0.95839   0.00000  Uiso   1.00
H469   H     0.23698   0.28552   0.63325   0.00000  Uiso   1.00
H470   H     0.12181   0.19146   0.86996   0.00000  Uiso   1.00
H471   H     0.09633   0.21437   0.61527   0.00000  Uiso   1.00
H472   H     0.21162   0.30845   0.88132   0.00000  Uiso   1.00
H473   H     0.09389   0.21480   0.52663   0.00000  Uiso   1.00
H474   H     0.21117   0.31049   0.96958   0.00000  Uiso   1.00
H475   H     0.26349   0.12814   0.82376   0.00000  Uiso   1.00
H476   H     0.25747   0.08096   0.86352   0.00000  Uiso   1.00
H477   H     0.23454   0.13305   0.92745   0.00000  Uiso   1.00
H478   H     0.00740   0.25074   0.80641   0.00000  Uiso   1.00
H479   H     0.29753   0.14403   0.91021   0.00000  Uiso   1.00
H480   H     0.24384   0.17909   0.88758   0.00000  Uiso   1.00
H481   H     0.27776   0.35618   0.75166   0.00000  Uiso   1.00
H482   H     0.29521   0.41230   0.73667   0.00000  Uiso   1.00
H483   H     0.32213   0.38607   0.65955   0.00000  Uiso   1.00
H484   H     0.02333   0.35810   0.71187   0.00000  Uiso   1.00
H485   H     0.30501   0.33006   0.67396   0.00000  Uiso   1.00
H486   H     0.18439   0.02800   0.82811   0.00000  Uiso   1.00
H487   H     0.22073   0.47069   0.69688   0.00000  Uiso   1.00
H488   H     0.15089   0.11078   0.67211   0.00000  Uiso   1.00
H489   H     0.11508   0.38817   0.80290   0.00000  Uiso   1.00
H490   H     0.15106   0.03021   0.67153   0.00000  Uiso   1.00
H491   H     0.11470   0.46906   0.80289   0.00000  Uiso   1.00
H492   H     0.23966   0.28479   0.54538   0.00000  Uiso   1.00
N493   N     0.16667   0.25001   0.62934   0.00000  Uiso   1.00
N494   N     0.16667   0.24999   0.87065   0.00000  Uiso   1.00
O495   O     0.16667   0.18572   0.79071   0.00000  Uiso   1.00
O496   O     0.23112   0.38482   0.69295   0.00000  Uiso   1.00
O497   O     0.16666   0.31427   0.70928   0.00000  Uiso   1.00
O498   O     0.16667   0.18573   0.70928   0.00000  Uiso   1.00
O499   O     0.16666   0.31427   0.79072   0.00000  Uiso   1.00
O500   O     0.09161   0.24999   0.78132   0.00000  Uiso   1.00
O501   O     0.24172   0.25000   0.71868   0.00000  Uiso   1.00
O502   O     0.09161   0.25000   0.69988   0.00000  Uiso   1.00
O503   O     0.24172   0.25000   0.80011   0.00000  Uiso   1.00
O504   O     0.18897   0.11380   0.83918   0.00000  Uiso   1.00
C505   C     0.50052   0.16480   0.75024   0.00000  Uiso   1.00
C506   C     0.52527   0.28333   0.94920   0.00000  Uiso   1.00
C507   C     0.50010   0.24980   0.52733   0.00000  Uiso   1.00
C508   C     0.50012   0.24980   0.97265   0.00000  Uiso   1.00
C509   C     0.40122   0.24987   0.73755   0.00000  Uiso   1.00
C510   C     0.59878   0.25001   0.76246   0.00000  Uiso   1.00
C511   C     0.34595   0.24950   0.73069   0.00000  Uiso   1.00
C512   C     0.65406   0.25011   0.76934   0.00000  Uiso   1.00
C513   C     0.51041   0.04621   0.79413   0.00000  Uiso   1.00
C514   C     0.53062   0.45265   0.71966   0.00000  Uiso   1.00
C515   C     0.51204   0.09233   0.79494   0.00000  Uiso   1.00
C516   C     0.50061   0.33496   0.74998   0.00000  Uiso   1.00
C517   C     0.53236   0.40655   0.72060   0.00000  Uiso   1.00
C518   C     0.50143   0.11625   0.75076   0.00000  Uiso   1.00
C519   C     0.50160   0.38307   0.74994   0.00000  Uiso   1.00
C520   C     0.49203   0.09328   0.70649   0.00000  Uiso   1.00
C521   C     0.47186   0.40591   0.77989   0.00000  Uiso   1.00
C522   C     0.49203   0.04734   0.70603   0.00000  Uiso   1.00
C523   C     0.47149   0.45184   0.77978   0.00000  Uiso   1.00
C524   C     0.50077   0.02368   0.74983   0.00000  Uiso   1.00
C525   C     0.50059   0.47535   0.74944   0.00000  Uiso   1.00
C526   C     0.57625   0.11474   0.85336   0.00000  Uiso   1.00
C527   C     0.54033   0.26972   0.55912   0.00000  Uiso   1.00
C528   C     0.58874   0.14460   0.89746   0.00000  Uiso   1.00
C529   C     0.61335   0.38004   0.72132   0.00000  Uiso   1.00
C530   C     0.65164   0.36245   0.68962   0.00000  Uiso   1.00
C531   C     0.47493   0.21635   0.94285   0.00000  Uiso   1.00
C532   C     0.53930   0.26976   0.60970   0.00000  Uiso   1.00
C533   C     0.47495   0.21729   0.89212   0.00000  Uiso   1.00
C534   C     0.46073   0.23013   0.59965   0.00000  Uiso   1.00
C535   C     0.52508   0.28260   0.89845   0.00000  Uiso   1.00
C536   C     0.45982   0.22995   0.54879   0.00000  Uiso   1.00
Cu537  Cu    0.50000   0.24999   0.79821   0.00000  Uiso   1.00
Cu538  Cu    0.50000   0.25000   0.70178   0.00000  Uiso   1.00
H539   H     0.65927   0.24876   0.69362   0.00000  Uiso   1.00
H540   H     0.45577   0.18912   0.95839   0.00000  Uiso   1.00
H541   H     0.57031   0.28552   0.63325   0.00000  Uiso   1.00
H542   H     0.45514   0.19146   0.86996   0.00000  Uiso   1.00
H543   H     0.42966   0.21437   0.61527   0.00000  Uiso   1.00
H544   H     0.54495   0.30845   0.88132   0.00000  Uiso   1.00
H545   H     0.42723   0.21480   0.52663   0.00000  Uiso   1.00
H546   H     0.54450   0.31049   0.96958   0.00000  Uiso   1.00
H547   H     0.59682   0.12814   0.82376   0.00000  Uiso   1.00
H548   H     0.59080   0.08096   0.86352   0.00000  Uiso   1.00
H549   H     0.56787   0.13305   0.92745   0.00000  Uiso   1.00
H550   H     0.34074   0.25074   0.80641   0.00000  Uiso   1.00
H551   H     0.63086   0.14403   0.91021   0.00000  Uiso   1.00
H552   H     0.57717   0.17909   0.88758   0.00000  Uiso   1.00
H553   H     0.61109   0.35618   0.75166   0.00000  Uiso   1.00
H554   H     0.62854   0.41230   0.73667   0.00000  Uiso   1.00
H555   H     0.65547   0.38607   0.65955   0.00000  Uiso   1.00
H556   H     0.35666   0.35810   0.71187   0.00000  Uiso   1.00
H557   H     0.63834   0.33006   0.67396   0.00000  Uiso   1.00
H558   H     0.51773   0.02800   0.82811   0.00000  Uiso   1.00
H559   H     0.55406   0.47069   0.69688   0.00000  Uiso   1.00
H560   H     0.48423   0.11078   0.67211   0.00000  Uiso   1.00
H561   H     0.44842   0.38817   0.80290   0.00000  Uiso   1.00
H562   H     0.48439   0.03021   0.67153   0.00000  Uiso   1.00
H563   H     0.44803   0.46906   0.80289   0.00000  Uiso   1.00
H564   H     0.57299   0.28479   0.54538   0.00000  Uiso   1.00
N565   N     0.50000   0.25001   0.62934   0.00000  Uiso   1.00
N566   N     0.50000   0.24999   0.87065   0.00000  Uiso   1.00
O567   O     0.50000   0.18572   0.79071   0.00000  Uiso   1.00
O568   O     0.56445   0.38482   0.69295   0.00000  Uiso   1.00
O569   O     0.50000   0.31427   0.70928   0.00000  Uiso   1.00
O570   O     0.50000   0.18573   0.70928   0.00000  Uiso   1.00
O571   O     0.50000   0.31427   0.79072   0.00000  Uiso   1.00
O572   O     0.42495   0.24999   0.78132   0.00000  Uiso   1.00
O573   O     0.57505   0.25000   0.71868   0.00000  Uiso   1.00
O574   O     0.42495   0.25000   0.69988   0.00000  Uiso   1.00
O575   O     0.57505   0.25000   0.80011   0.00000  Uiso   1.00
O576   O     0.52230   0.11380   0.83918   0.00000  Uiso   1.00
C577   C     0.83386   0.16480   0.75024   0.00000  Uiso   1.00
C578   C     0.85860   0.28333   0.94920   0.00000  Uiso   1.00
C579   C     0.83344   0.24980   0.52733   0.00000  Uiso   1.00
C580   C     0.83345   0.24980   0.97265   0.00000  Uiso   1.00
C581   C     0.73455   0.24987   0.73755   0.00000  Uiso   1.00
C582   C     0.93211   0.25001   0.76246   0.00000  Uiso   1.00
C583   C     0.67928   0.24950   0.73069   0.00000  Uiso   1.00
C584   C     0.98739   0.25011   0.76934   0.00000  Uiso   1.00
C585   C     0.84374   0.04621   0.79413   0.00000  Uiso   1.00
C586   C     0.86396   0.45265   0.71966   0.00000  Uiso   1.00
C587   C     0.84537   0.09233   0.79494   0.00000  Uiso   1.00
C588   C     0.83394   0.33496   0.74998   0.00000  Uiso   1.00
C589   C     0.86570   0.40655   0.72060   0.00000  Uiso   1.00
C590   C     0.83476   0.11625   0.75076   0.00000  Uiso   1.00
C591   C     0.83493   0.38307   0.74994   0.00000  Uiso   1.00
C592   C     0.82536   0.09328   0.70649   0.00000  Uiso   1.00
C593   C     0.80520   0.40591   0.77989   0.00000  Uiso   1.00
C594   C     0.82537   0.04734   0.70603   0.00000  Uiso   1.00
C595   C     0.80483   0.45184   0.77978   0.00000  Uiso   1.00
C596   C     0.83410   0.02368   0.74983   0.00000  Uiso   1.00
C597   C     0.83392   0.47535   0.74944   0.00000  Uiso   1.00
C598   C     0.90958   0.11474   0.85336   0.00000  Uiso   1.00
C599   C     0.87367   0.26972   0.55912   0.00000  Uiso   1.00
C600   C     0.92207   0.14460   0.89746   0.00000  Uiso   1.00
C601   C     0.94669   0.38004   0.72132   0.00000  Uiso   1.00
C602   C     0.98497   0.36245   0.68962   0.00000  Uiso   1.00
C603   C     0.80827   0.21635   0.94285   0.00000  Uiso   1.00
C604   C     0.87263   0.26976   0.60970   0.00000  Uiso   1.00
C605   C     0.80829   0.21729   0.89212   0.00000  Uiso   1.00
C606   C     0.79407   0.23013   0.59965   0.00000  Uiso   1.00
C607   C     0.85841   0.28260   0.89845   0.00000  Uiso   1.00
C608   C     0.79316   0.22995   0.54879   0.00000  Uiso   1.00
Cu609  Cu    0.83333   0.24999   0.79821   0.00000  Uiso   1.00
Cu610  Cu    0.83333   0.25000   0.70178   0.00000  Uiso   1.00
H611   H     0.99260   0.24876   0.69362   0.00000  Uiso   1.00
H612   H     0.78910   0.18912   0.95839   0.00000  Uiso   1.00
H613   H     0.90365   0.28552   0.63325   0.00000  Uiso   1.00
H614   H     0.78848   0.19146   0.86996   0.00000  Uiso   1.00
H615   H     0.76300   0.21437   0.61527   0.00000  Uiso   1.00
H616   H     0.87828   0.30845   0.88132   0.00000  Uiso   1.00
H617   H     0.76056   0.21480   0.52663   0.00000  Uiso   1.00
H618   H     0.87783   0.31049   0.96958   0.00000  Uiso   1.00
H619   H     0.93016   0.12814   0.82376   0.00000  Uiso   1.00
H620   H     0.92414   0.08096   0.86352   0.00000  Uiso   1.00
H621   H     0.90120   0.13305   0.92745   0.00000  Uiso   1.00
H622   H     0.67407   0.25074   0.80641   0.00000  Uiso   1.00
H623   H     0.96420   0.14403   0.91021   0.00000  Uiso   1.00
H624   H     0.91050   0.17909   0.88758   0.00000  Uiso   1.00
H625   H     0.94442   0.35618   0.75166   0.00000  Uiso   1.00
H626   H     0.96187   0.41230   0.73667   0.00000  Uiso   1.00
H627   H     0.98880   0.38607   0.65955   0.00000  Uiso   1.00
H628   H     0.69000   0.35810   0.71187   0.00000  Uiso   1.00
H629   H     0.97167   0.33006   0.67396   0.00000  Uiso   1.00
H630   H     0.85106   0.02800   0.82811   0.00000  Uiso   1.00
H631   H     0.88739   0.47069   0.69688   0.00000  Uiso   1.00
H632   H     0.81756   0.11078   0.67211   0.00000  Uiso   1.00
H633   H     0.78175   0.38817   0.80290   0.00000  Uiso   1.00
H634   H     0.81773   0.03021   0.67153   0.00000  Uiso   1.00
H635   H     0.78136   0.46906   0.80289   0.00000  Uiso   1.00
H636   H     0.90632   0.28479   0.54538   0.00000  Uiso   1.00
N637   N     0.83333   0.25001   0.62934   0.00000  Uiso   1.00
N638   N     0.83333   0.24999   0.87065   0.00000  Uiso   1.00
O639   O     0.83334   0.18572   0.79071   0.00000  Uiso   1.00
O640   O     0.89779   0.38482   0.69295   0.00000  Uiso   1.00
O641   O     0.83333   0.31427   0.70928   0.00000  Uiso   1.00
O642   O     0.83334   0.18573   0.70928   0.00000  Uiso   1.00
O643   O     0.83333   0.31427   0.79072   0.00000  Uiso   1.00
O644   O     0.75828   0.24999   0.78132   0.00000  Uiso   1.00
O645   O     0.90839   0.25000   0.71868   0.00000  Uiso   1.00
O646   O     0.75828   0.25000   0.69988   0.00000  Uiso   1.00
O647   O     0.90839   0.25000   0.80011   0.00000  Uiso   1.00
O648   O     0.85563   0.11380   0.83918   0.00000  Uiso   1.00
C649   C     0.16719   0.66480   0.75024   0.00000  Uiso   1.00
C650   C     0.19193   0.78333   0.94920   0.00000  Uiso   1.00
C651   C     0.16677   0.74980   0.52733   0.00000  Uiso   1.00
C652   C     0.16679   0.74980   0.97265   0.00000  Uiso   1.00
C653   C     0.06789   0.74987   0.73755   0.00000  Uiso   1.00
C654   C     0.26545   0.75001   0.76246   0.00000  Uiso   1.00
C655   C     0.01261   0.74950   0.73069   0.00000  Uiso   1.00
C656   C     0.32072   0.75011   0.76934   0.00000  Uiso   1.00
C657   C     0.17708   0.54621   0.79413   0.00000  Uiso   1.00
C658   C     0.19729   0.95265   0.71966   0.00000  Uiso   1.00
C659   C     0.17871   0.59233   0.79494   0.00000  Uiso   1.00
C660   C     0.16727   0.83496   0.74998   0.00000  Uiso   1.00
C661   C     0.19903   0.90655   0.72060   0.00000  Uiso   1.00
C662   C     0.16810   0.61625   0.75076   0.00000  Uiso   1.00
C663   C     0.16827   0.88307   0.74994   0.00000  Uiso   1.00
C664   C     0.15869   0.59328   0.70649   0.00000  Uiso   1.00
C665   C     0.13853   0.90591   0.77989   0.00000  Uiso   1.00
C666   C     0.15870   0.54734   0.70603   0.00000  Uiso   1.00
C667   C     0.13816   0.95184   0.77978   0.00000  Uiso   1.00
C668   C     0.16744   0.52368   0.74983   0.00000  Uiso   1.00
C669   C     0.16725   0.97535   0.74944   0.00000  Uiso   1.00
C670   C     0.24291   0.61474   0.85336   0.00000  Uiso   1.00
C671   C     0.20700   0.76972   0.55912   0.00000  Uiso   1.00
C672   C     0.25540   0.64460   0.89746   0.00000  Uiso   1.00
C673   C     0.28002   0.88004   0.72132   0.00000  Uiso   1.00
C674   C     0.31831   0.86245   0.68962   0.00000  Uiso   1.00
C675   C     0.14160   0.71635   0.94285   0.00000  Uiso   1.00
C676   C     0.20597   0.76976   0.60970   0.00000  Uiso   1.00
C677   C     0.14162   0.71729   0.89212   0.00000  Uiso   1.00
C678   C     0.12740   0.73013   0.59965   0.00000  Uiso   1.00
C679   C     0.19175   0.78260   0.89845   0.00000  Uiso   1.00
C680   C     0.12649   0.72995   0.54879   0.00000  Uiso   1.00
Cu681  Cu    0.16667   0.74999   0.79821   0.00000  Uiso   1.00
Cu682  Cu    0.16667   0.75000   0.70178   0.00000  Uiso   1.00
H683   H     0.32594   0.74876   0.69362   0.00000  Uiso   1.00
H684   H     0.12244   0.68912   0.95839   0.00000  Uiso   1.00
H685   H     0.23698   0.78552   0.63325   0.00000  Uiso   1.00
H686   H     0.12181   0.69146   0.86996   0.00000  Uiso   1.00
H687   H     0.09633   0.71437   0.61527   0.00000  Uiso   1.00
H688   H     0.21162   0.80845   0.88132   0.00000  Uiso   1.00
H689   H     0.09389   0.71480   0.52663   0.00000  Uiso   1.00
H690   H     0.21117   0.81049   0.96958   0.00000  Uiso   1.00
H691   H     0.26349   0.62814   0.82376   0.00000  Uiso   1.00
H692   H     0.25747   0.58096   0.86352   0.00000  Uiso   1.00
H693   H     0.23454   0.63305   0.92745   0.00000  Uiso   1.00
H694   H     0.00740   0.75074   0.80641   0.00000  Uiso   1.00
H695   H     0.29753   0.64403   0.91021   0.00000  Uiso   1.00
H696   H     0.24384   0.67909   0.88758   0.00000  Uiso   1.00
H697   H     0.27776   0.85618   0.75166   0.00000  Uiso   1.00
H698   H     0.29521   0.91230   0.73667   0.00000  Uiso   1.00
H699   H     0.32213   0.88607   0.65955   0.00000  Uiso   1.00
H700   H     0.02333   0.85810   0.71187   0.00000  Uiso   1.00
H701   H     0.30501   0.83006   0.67396   0.00000  Uiso   1.00
H702   H     0.18439   0.52800   0.82811   0.00000  Uiso   1.00
H703   H     0.22073   0.97069   0.69688   0.00000  Uiso   1.00
H704   H     0.15089   0.61078   0.67211   0.00000  Uiso   1.00
H705   H     0.11508   0.88817   0.80290   0.00000  Uiso   1.00
H706   H     0.15106   0.53021   0.67153   0.00000  Uiso   1.00
H707   H     0.11470   0.96906   0.80289   0.00000  Uiso   1.00
H708   H     0.23966   0.78479   0.54538   0.00000  Uiso   1.00
N709   N     0.16667   0.75001   0.62934   0.00000  Uiso   1.00
N710   N     0.16667   0.74999   0.87065   0.00000  Uiso   1.00
O711   O     0.16667   0.68572   0.79071   0.00000  Uiso   1.00
O712   O     0.23112   0.88482   0.69295   0.00000  Uiso   1.00
O713   O     0.16666   0.81427   0.70928   0.00000  Uiso   1.00
O714   O     0.16667   0.68573   0.70928   0.00000  Uiso   1.00
O715   O     0.16666   0.81427   0.79072   0.00000  Uiso   1.00
O716   O     0.09161   0.74999   0.78132   0.00000  Uiso   1.00
O717   O     0.24172   0.75000   0.71868   0.00000  Uiso   1.00
O718   O     0.09161   0.75000   0.69988   0.00000  Uiso   1.00
O719   O     0.24172   0.75000   0.80011   0.00000  Uiso   1.00
O720   O     0.18897   0.61380   0.83918   0.00000  Uiso   1.00
C721   C     0.50052   0.66480   0.75024   0.00000  Uiso   1.00
C722   C     0.52527   0.78333   0.94920   0.00000  Uiso   1.00
C723   C     0.50010   0.74980   0.52733   0.00000  Uiso   1.00
C724   C     0.50012   0.74980   0.97265   0.00000  Uiso   1.00
C725   C     0.40122   0.74987   0.73755   0.00000  Uiso   1.00
C726   C     0.59878   0.75001   0.76246   0.00000  Uiso   1.00
C727   C     0.34595   0.74950   0.73069   0.00000  Uiso   1.00
C728   C     0.65406   0.75011   0.76934   0.00000  Uiso   1.00
C729   C     0.51041   0.54621   0.79413   0.00000  Uiso   1.00
C730   C     0.53062   0.95265   0.71966   0.00000  Uiso   1.00
C731   C     0.51204   0.59233   0.79494   0.00000  Uiso   1.00
C732   C     0.50061   0.83496   0.74998   0.00000  Uiso   1.00
C733   C     0.53236   0.90655   0.72060   0.00000  Uiso   1.00
C734   C     0.50143   0.61625   0.75076   0.00000  Uiso   1.00
C735   C     0.50160   0.88307   0.74994   0.00000  Uiso   1.00
C736   C     0.49203   0.59328   0.70649   0.00000  Uiso   1.00
C737   C     0.47186   0.90591   0.77989   0.00000  Uiso   1.00
C738   C     0.49203   0.54734   0.70603   0.00000  Uiso   1.00
C739   C     0.47149   0.95184   0.77978   0.00000  Uiso   1.00
C740   C     0.50077   0.52368   0.74983   0.00000  Uiso   1.00
C741   C     0.50059   0.97535   0.74944   0.00000  Uiso   1.00
C742   C     0.57625   0.61474   0.85336   0.00000  Uiso   1.00
C743   C     0.54033   0.76972   0.55912   0.00000  Uiso   1.00
C744   C     0.58874   0.64460   0.89746   0.00000  Uiso   1.00
C745   C     0.61335   0.88004   0.72132   0.00000  Uiso   1.00
C746   C     0.65164   0.86245   0.68962   0.00000  Uiso   1.00
C747   C     0.47493   0.71635   0.94285   0.00000  Uiso   1.00
C748   C     0.53930   0.76976   0.60970   0.00000  Uiso   1.00
C749   C     0.47495   0.71729   0.89212   0.00000  Uiso   1.00
C750   C     0.46073   0.73013   0.59965   0.00000  Uiso   1.00
C751   C     0.52508   0.78260   0.89845   0.00000  Uiso   1.00
C752   C     0.45982   0.72995   0.54879   0.00000  Uiso   1.00
Cu753  Cu    0.50000   0.74999   0.79821   0.00000  Uiso   1.00
Cu754  Cu    0.50000   0.75000   0.70178   0.00000  Uiso   1.00
H755   H     0.65927   0.74876   0.69362   0.00000  Uiso   1.00
H756   H     0.45577   0.68912   0.95839   0.00000  Uiso   1.00
H757   H     0.57031   0.78552   0.63325   0.00000  Uiso   1.00
H758   H     0.45514   0.69146   0.86996   0.00000  Uiso   1.00
H759   H     0.42966   0.71437   0.61527   0.00000  Uiso   1.00
H760   H     0.54495   0.80845   0.88132   0.00000  Uiso   1.00
H761   H     0.42723   0.71480   0.52663   0.00000  Uiso   1.00
H762   H     0.54450   0.81049   0.96958   0.00000  Uiso   1.00
H763   H     0.59682   0.62814   0.82376   0.00000  Uiso   1.00
H764   H     0.59080   0.58096   0.86352   0.00000  Uiso   1.00
H765   H     0.56787   0.63305   0.92745   0.00000  Uiso   1.00
H766   H     0.34074   0.75074   0.80641   0.00000  Uiso   1.00
H767   H     0.63086   0.64403   0.91021   0.00000  Uiso   1.00
H768   H     0.57717   0.67909   0.88758   0.00000  Uiso   1.00
H769   H     0.61109   0.85618   0.75166   0.00000  Uiso   1.00
H770   H     0.62854   0.91230   0.73667   0.00000  Uiso   1.00
H771   H     0.65547   0.88607   0.65955   0.00000  Uiso   1.00
H772   H     0.35666   0.85810   0.71187   0.00000  Uiso   1.00
H773   H     0.63834   0.83006   0.67396   0.00000  Uiso   1.00
H774   H     0.51773   0.52800   0.82811   0.00000  Uiso   1.00
H775   H     0.55406   0.97069   0.69688   0.00000  Uiso   1.00
H776   H     0.48423   0.61078   0.67211   0.00000  Uiso   1.00
H777   H     0.44842   0.88817   0.80290   0.00000  Uiso   1.00
H778   H     0.48439   0.53021   0.67153   0.00000  Uiso   1.00
H779   H     0.44803   0.96906   0.80289   0.00000  Uiso   1.00
H780   H     0.57299   0.78479   0.54538   0.00000  Uiso   1.00
N781   N     0.50000   0.75001   0.62934   0.00000  Uiso   1.00
N782   N     0.50000   0.74999   0.87065   0.00000  Uiso   1.00
O783   O     0.50000   0.68572   0.79071   0.00000  Uiso   1.00
O784   O     0.56445   0.88482   0.69295   0.00000  Uiso   1.00
O785   O     0.50000   0.81427   0.70928   0.00000  Uiso   1.00
O786   O     0.50000   0.68573   0.70928   0.00000  Uiso   1.00
O787   O     0.50000   0.81427   0.79072   0.00000  Uiso   1.00
O788   O     0.42495   0.74999   0.78132   0.00000  Uiso   1.00
O789   O     0.57505   0.75000   0.71868   0.00000  Uiso   1.00
O790   O     0.42495   0.75000   0.69988   0.00000  Uiso   1.00
O791   O     0.57505   0.75000   0.80011   0.00000  Uiso   1.00
O792   O     0.52230   0.61380   0.83918   0.00000  Uiso   1.00
C793   C     0.83386   0.66480   0.75024   0.00000  Uiso   1.00
C794   C     0.85860   0.78333   0.94920   0.00000  Uiso   1.00
C795   C     0.83344   0.74980   0.52733   0.00000  Uiso   1.00
C796   C     0.83345   0.74980   0.97265   0.00000  Uiso   1.00
C797   C     0.73455   0.74987   0.73755   0.00000  Uiso   1.00
C798   C     0.93211   0.75001   0.76246   0.00000  Uiso   1.00
C799   C     0.67928   0.74950   0.73069   0.00000  Uiso   1.00
C800   C     0.98739   0.75011   0.76934   0.00000  Uiso   1.00
C801   C     0.84374   0.54621   0.79413   0.00000  Uiso   1.00
C802   C     0.86396   0.95265   0.71966   0.00000  Uiso   1.00
C803   C     0.84537   0.59233   0.79494   0.00000  Uiso   1.00
C804   C     0.83394   0.83496   0.74998   0.00000  Uiso   1.00
C805   C     0.86570   0.90655   0.72060   0.00000  Uiso   1.00
C806   C     0.83476   0.61625   0.75076   0.00000  Uiso   1.00
C807   C     0.83493   0.88307   0.74994   0.00000  Uiso   1.00
C808   C     0.82536   0.59328   0.70649   0.00000  Uiso   1.00
C809   C     0.80520   0.90591   0.77989   0.00000  Uiso   1.00
C810   C     0.82537   0.54734   0.70603   0.00000  Uiso   1.00
C811   C     0.80483   0.95184   0.77978   0.00000  Uiso   1.00
C812   C     0.83410   0.52368   0.74983   0.00000  Uiso   1.00
C813   C     0.83392   0.97535   0.74944   0.00000  Uiso   1.00
C814   C     0.90958   0.61474   0.85336   0.00000  Uiso   1.00
C815   C     0.87367   0.76972   0.55912   0.00000  Uiso   1.00
C816   C     0.92207   0.64460   0.89746   0.00000  Uiso   1.00
C817   C     0.94669   0.88004   0.72132   0.00000  Uiso   1.00
C818   C     0.98497   0.86245   0.68962   0.00000  Uiso   1.00
C819   C     0.80827   0.71635   0.94285   0.00000  Uiso   1.00
C820   C     0.87263   0.76976   0.60970   0.00000  Uiso   1.00
C821   C     0.80829   0.71729   0.89212   0.00000  Uiso   1.00
C822   C     0.79407   0.73013   0.59965   0.00000  Uiso   1.00
C823   C     0.85841   0.78260   0.89845   0.00000  Uiso   1.00
C824   C     0.79316   0.72995   0.54879   0.00000  Uiso   1.00
Cu825  Cu    0.83333   0.74999   0.79821   0.00000  Uiso   1.00
Cu826  Cu    0.83333   0.75000   0.70178   0.00000  Uiso   1.00
H827   H     0.99260   0.74876   0.69362   0.00000  Uiso   1.00
H828   H     0.78910   0.68912   0.95839   0.00000  Uiso   1.00
H829   H     0.90365   0.78552   0.63325   0.00000  Uiso   1.00
H830   H     0.78848   0.69146   0.86996   0.00000  Uiso   1.00
H831   H     0.76300   0.71437   0.61527   0.00000  Uiso   1.00
H832   H     0.87828   0.80845   0.88132   0.00000  Uiso   1.00
H833   H     0.76056   0.71480   0.52663   0.00000  Uiso   1.00
H834   H     0.87783   0.81049   0.96958   0.00000  Uiso   1.00
H835   H     0.93016   0.62814   0.82376   0.00000  Uiso   1.00
H836   H     0.92414   0.58096   0.86352   0.00000  Uiso   1.00
H837   H     0.90120   0.63305   0.92745   0.00000  Uiso   1.00
H838   H     0.67407   0.75074   0.80641   0.00000  Uiso   1.00
H839   H     0.96420   0.64403   0.91021   0.00000  Uiso   1.00
H840   H     0.91050   0.67909   0.88758   0.00000  Uiso   1.00
H841   H     0.94442   0.85618   0.75166   0.00000  Uiso   1.00
H842   H     0.96187   0.91230   0.73667   0.00000  Uiso   1.00
H843   H     0.98880   0.88607   0.65955   0.00000  Uiso   1.00
H844   H     0.69000   0.85810   0.71187   0.00000  Uiso   1.00
H845   H     0.97167   0.83006   0.67396   0.00000  Uiso   1.00
H846   H     0.85106   0.52800   0.82811   0.00000  Uiso   1.00
H847   H     0.88739   0.97069   0.69688   0.00000  Uiso   1.00
H848   H     0.81756   0.61078   0.67211   0.00000  Uiso   1.00
H849   H     0.78175   0.88817   0.80290   0.00000  Uiso   1.00
H850   H     0.81773   0.53021   0.67153   0.00000  Uiso   1.00
H851   H     0.78136   0.96906   0.80289   0.00000  Uiso   1.00
H852   H     0.90632   0.78479   0.54538   0.00000  Uiso   1.00
N853   N     0.83333   0.75001   0.62934   0.00000  Uiso   1.00
N854   N     0.83333   0.74999   0.87065   0.00000  Uiso   1.00
O855   O     0.83334   0.68572   0.79071   0.00000  Uiso   1.00
O856   O     0.89779   0.88482   0.69295   0.00000  Uiso   1.00
O857   O     0.83333   0.81427   0.70928   0.00000  Uiso   1.00
O858   O     0.83334   0.68573   0.70928   0.00000  Uiso   1.00
O859   O     0.83333   0.81427   0.79072   0.00000  Uiso   1.00
O860   O     0.75828   0.74999   0.78132   0.00000  Uiso   1.00
O861   O     0.90839   0.75000   0.71868   0.00000  Uiso   1.00
O862   O     0.75828   0.75000   0.69988   0.00000  Uiso   1.00
O863   O     0.90839   0.75000   0.80011   0.00000  Uiso   1.00
O864   O     0.85563   0.61380   0.83918   0.00000  Uiso   1.00
loop_
_geom_bond_atom_site_label_1
_geom_bond_atom_site_label_2
_geom_bond_distance
_geom_bond_site_symmetry_2
_ccdc_geom_bond_type
C1     C14     1.469   .     S
C1     O63     1.293   .     A
C1     O66     1.296   .     A
C2     C4      1.411   .     A
C2     H42     1.081   .     S
C2     C31     1.407   .     A
C3     C23     1.411   .     A
C3     C32     1.411   .     A
C3     C436    1.516   1_554 S
C4     C27     1.411   .     A
C4     C435    1.516   .     S
C5     O70     1.287   .     A
C5     C7      1.433   .     S
C5     O68     1.284   .     A
C6     O69     1.285   .     A
C6     C8      1.433   .     S
C6     O71     1.287   .     A
C7     C152    1.335   1_455 S
C7     H179    1.087   1_455 S
C8     C79     1.335   .     S
C8     H118    1.087   .     S
C9     H54     1.084   .     S
C9     C20     1.399   .     A
C9     C11     1.396   .     A
C10    C13     1.395   .     A
C10    H55     1.084   .     S
C10    C21     1.400   .     A
C11    C14     1.415   .     A
C11    O72     1.383   .     S
C12    O65     1.291   .     A
C12    C15     1.455   .     S
C12    O67     1.291   .     A
C13    O64     1.383   .     S
C13    C15     1.409   .     A
C14    C16     1.405   .     A
C15    C17     1.401   .     A
C16    H56     1.083   .     S
C16    C18     1.389   .     A
C17    C19     1.389   .     A
C17    H57     1.084   .     S
C18    C20     1.399   .     A
C18    H58     1.083   .     S
C19    H59     1.083   .     S
C19    C21     1.401   .     A
C20    C237    1.462   1_545 S
C21    C236    1.462   .     S
C22    H43     1.116   .     S
C22    C24     1.521   .     S
C22    O72     1.412   .     S
C22    H44     1.113   .     S
C23    C28     1.407   .     A
C23    H60     1.081   .     S
C24    H45     1.111   .     S
C24    H48     1.110   .     S
C24    H47     1.110   .     S
C25    H49     1.114   .     S
C25    H50     1.116   .     S
C25    C26     1.521   .     S
C25    O64     1.414   .     S
C26    H53     1.108   .     S
C26    H51     1.111   .     S
C26    H124    1.111   .     S
C27    H36     1.081   .     S
C27    C29     1.407   .     A
C28    N61     1.364   .     A
C28    H37     1.079   .     S
C29    H38     1.081   .     S
C29    N62     1.364   .     A
C30    C32     1.407   .     A
C30    H39     1.081   .     S
C30    N61     1.364   .     A
C31    H40     1.081   .     S
C31    N62     1.363   .     A
C32    H41     1.081   .     S
Cu33   O63     1.956   .     S
Cu33   Cu34    2.674   .     S
Cu33   O67     1.954   .     S
Cu33   O71     1.958   .     S
Cu33   O68     1.955   .     S
Cu33   N62     2.009   .     S
Cu34   O70     1.958   .     S
Cu34   O69     1.955   .     S
Cu34   O66     1.954   .     S
Cu34   O65     1.956   .     S
Cu34   N61     2.009   .     S
H35    C79     1.087   .     S
H46    C152    1.087   1_455 S
H52    C170    1.111   1_455 S
C73    C86     1.469   .     S
C73    O135    1.293   .     A
C73    O138    1.296   .     A
C74    C76     1.411   .     A
C74    H114    1.081   .     S
C74    C103    1.407   .     A
C75    C95     1.411   .     A
C75    C104    1.411   .     A
C75    C508    1.516   1_554 S
C76    C99     1.411   .     A
C76    C507    1.516   .     S
C77    O142    1.287   .     A
C77    C79     1.433   .     S
C77    O140    1.284   .     A
C78    O141    1.285   .     A
C78    C80     1.433   .     S
C78    O143    1.287   .     A
C80    C151    1.335   .     S
C80    H190    1.087   .     S
C81    H126    1.084   .     S
C81    C92     1.399   .     A
C81    C83     1.396   .     A
C82    C85     1.395   .     A
C82    H127    1.084   .     S
C82    C93     1.400   .     A
C83    C86     1.415   .     A
C83    O144    1.383   .     S
C84    O137    1.291   .     A
C84    C87     1.455   .     S
C84    O139    1.291   .     A
C85    O136    1.383   .     S
C85    C87     1.409   .     A
C86    C88     1.405   .     A
C87    C89     1.401   .     A
C88    H128    1.083   .     S
C88    C90     1.389   .     A
C89    C91     1.389   .     A
C89    H129    1.084   .     S
C90    C92     1.399   .     A
C90    H130    1.083   .     S
C91    H131    1.083   .     S
C91    C93     1.401   .     A
C92    C309    1.462   1_545 S
C93    C308    1.462   .     S
C94    H115    1.116   .     S
C94    C96     1.521   .     S
C94    O144    1.412   .     S
C94    H116    1.113   .     S
C95    C100    1.407   .     A
C95    H132    1.081   .     S
C96    H117    1.111   .     S
C96    H120    1.110   .     S
C96    H119    1.110   .     S
C97    H121    1.114   .     S
C97    H122    1.116   .     S
C97    C98     1.521   .     S
C97    O136    1.414   .     S
C98    H125    1.108   .     S
C98    H123    1.111   .     S
C98    H196    1.111   .     S
C99    H108    1.081   .     S
C99    C101    1.407   .     A
C100   N133    1.364   .     A
C100   H109    1.079   .     S
C101   H110    1.081   .     S
C101   N134    1.364   .     A
C102   C104    1.407   .     A
C102   H111    1.081   .     S
C102   N133    1.364   .     A
C103   H112    1.081   .     S
C103   N134    1.363   .     A
C104   H113    1.081   .     S
Cu105  O135    1.956   .     S
Cu105  Cu106   2.674   .     S
Cu105  O139    1.954   .     S
Cu105  O143    1.958   .     S
Cu105  O140    1.955   .     S
Cu105  N134    2.009   .     S
Cu106  O142    1.958   .     S
Cu106  O141    1.955   .     S
Cu106  O138    1.954   .     S
Cu106  O137    1.956   .     S
Cu106  N133    2.009   .     S
H107   C151    1.087   .     S
C145   C158    1.469   .     S
C145   O207    1.293   .     A
C145   O210    1.296   .     A
C146   C148    1.411   .     A
C146   H186    1.081   .     S
C146   C175    1.407   .     A
C147   C167    1.411   .     A
C147   C176    1.411   .     A
C147   C580    1.516   1_554 S
C148   C171    1.411   .     A
C148   C579    1.516   .     S
C149   O214    1.287   .     A
C149   C151    1.433   .     S
C149   O212    1.284   .     A
C150   O213    1.285   .     A
C150   C152    1.433   .     S
C150   O215    1.287   .     A
C152   C7      1.335   1_655 S
C152   H46     1.087   1_655 S
C153   H198    1.084   .     S
C153   C164    1.399   .     A
C153   C155    1.396   .     A
C154   C157    1.395   .     A
C154   H199    1.084   .     S
C154   C165    1.400   .     A
C155   C158    1.415   .     A
C155   O216    1.383   .     S
C156   O209    1.291   .     A
C156   C159    1.455   .     S
C156   O211    1.291   .     A
C157   O208    1.383   .     S
C157   C159    1.409   .     A
C158   C160    1.405   .     A
C159   C161    1.401   .     A
C160   H200    1.083   .     S
C160   C162    1.389   .     A
C161   C163    1.389   .     A
C161   H201    1.084   .     S
C162   C164    1.399   .     A
C162   H202    1.083   .     S
C163   H203    1.083   .     S
C163   C165    1.401   .     A
C164   C381    1.462   1_545 S
C165   C380    1.462   .     S
C166   H187    1.116   .     S
C166   C168    1.521   .     S
C166   O216    1.412   .     S
C166   H188    1.113   .     S
C167   C172    1.407   .     A
C167   H204    1.081   .     S
C168   H189    1.111   .     S
C168   H192    1.110   .     S
C168   H191    1.110   .     S
C169   H193    1.114   .     S
C169   H194    1.116   .     S
C169   C170    1.521   .     S
C169   O208    1.414   .     S
C170   H197    1.108   .     S
C170   H195    1.111   .     S
C170   H52     1.111   1_655 S
C171   H180    1.081   .     S
C171   C173    1.407   .     A
C172   N205    1.364   .     A
C172   H181    1.079   .     S
C173   H182    1.081   .     S
C173   N206    1.364   .     A
C174   C176    1.407   .     A
C174   H183    1.081   .     S
C174   N205    1.364   .     A
C175   H184    1.081   .     S
C175   N206    1.363   .     A
C176   H185    1.081   .     S
Cu177  O207    1.956   .     S
Cu177  Cu178   2.674   .     S
Cu177  O211    1.954   .     S
Cu177  O215    1.958   .     S
Cu177  O212    1.955   .     S
Cu177  N206    2.009   .     S
Cu178  O214    1.958   .     S
Cu178  O213    1.955   .     S
Cu178  O210    1.954   .     S
Cu178  O209    1.956   .     S
Cu178  N205    2.009   .     S
H179   C7      1.087   1_655 S
C217   C230    1.469   .     S
C217   O279    1.293   .     A
C217   O282    1.296   .     A
C218   C220    1.411   .     A
C218   H258    1.081   .     S
C218   C247    1.407   .     A
C219   C239    1.411   .     A
C219   C248    1.411   .     A
C219   C652    1.516   1_554 S
C220   C243    1.411   .     A
C220   C651    1.516   .     S
C221   O286    1.287   .     A
C221   C223    1.433   .     S
C221   O284    1.284   .     A
C222   O285    1.285   .     A
C222   C224    1.433   .     S
C222   O287    1.287   .     A
C223   C368    1.335   1_455 S
C223   H395    1.087   1_455 S
C224   C295    1.335   .     S
C224   H334    1.087   .     S
C225   H270    1.084   .     S
C225   C236    1.399   .     A
C225   C227    1.396   .     A
C226   C229    1.395   .     A
C226   H271    1.084   .     S
C226   C237    1.400   .     A
C227   C230    1.415   .     A
C227   O288    1.383   .     S
C228   O281    1.291   .     A
C228   C231    1.455   .     S
C228   O283    1.291   .     A
C229   O280    1.383   .     S
C229   C231    1.409   .     A
C230   C232    1.405   .     A
C231   C233    1.401   .     A
C232   H272    1.083   .     S
C232   C234    1.389   .     A
C233   C235    1.389   .     A
C233   H273    1.084   .     S
C234   C236    1.399   .     A
C234   H274    1.083   .     S
C235   H275    1.083   .     S
C235   C237    1.401   .     A
C237   C20     1.462   1_565 S
C238   H259    1.116   .     S
C238   C240    1.521   .     S
C238   O288    1.412   .     S
C238   H260    1.113   .     S
C239   C244    1.407   .     A
C239   H276    1.081   .     S
C240   H261    1.111   .     S
C240   H264    1.110   .     S
C240   H263    1.110   .     S
C241   H265    1.114   .     S
C241   H266    1.116   .     S
C241   C242    1.521   .     S
C241   O280    1.414   .     S
C242   H269    1.108   .     S
C242   H267    1.111   .     S
C242   H340    1.111   .     S
C243   H252    1.081   .     S
C243   C245    1.407   .     A
C244   N277    1.364   .     A
C244   H253    1.079   .     S
C245   H254    1.081   .     S
C245   N278    1.364   .     A
C246   C248    1.407   .     A
C246   H255    1.081   .     S
C246   N277    1.364   .     A
C247   H256    1.081   .     S
C247   N278    1.363   .     A
C248   H257    1.081   .     S
Cu249  O279    1.956   .     S
Cu249  Cu250   2.674   .     S
Cu249  O283    1.954   .     S
Cu249  O287    1.958   .     S
Cu249  O284    1.955   .     S
Cu249  N278    2.009   .     S
Cu250  O286    1.958   .     S
Cu250  O285    1.955   .     S
Cu250  O282    1.954   .     S
Cu250  O281    1.956   .     S
Cu250  N277    2.009   .     S
H251   C295    1.087   .     S
H262   C368    1.087   1_455 S
H268   C386    1.111   1_455 S
C289   C302    1.469   .     S
C289   O351    1.293   .     A
C289   O354    1.296   .     A
C290   C292    1.411   .     A
C290   H330    1.081   .     S
C290   C319    1.407   .     A
C291   C311    1.411   .     A
C291   C320    1.411   .     A
C291   C724    1.516   1_554 S
C292   C315    1.411   .     A
C292   C723    1.516   .     S
C293   O358    1.287   .     A
C293   C295    1.433   .     S
C293   O356    1.284   .     A
C294   O357    1.285   .     A
C294   C296    1.433   .     S
C294   O359    1.287   .     A
C296   C367    1.335   .     S
C296   H406    1.087   .     S
C297   H342    1.084   .     S
C297   C308    1.399   .     A
C297   C299    1.396   .     A
C298   C301    1.395   .     A
C298   H343    1.084   .     S
C298   C309    1.400   .     A
C299   C302    1.415   .     A
C299   O360    1.383   .     S
C300   O353    1.291   .     A
C300   C303    1.455   .     S
C300   O355    1.291   .     A
C301   O352    1.383   .     S
C301   C303    1.409   .     A
C302   C304    1.405   .     A
C303   C305    1.401   .     A
C304   H344    1.083   .     S
C304   C306    1.389   .     A
C305   C307    1.389   .     A
C305   H345    1.084   .     S
C306   C308    1.399   .     A
C306   H346    1.083   .     S
C307   H347    1.083   .     S
C307   C309    1.401   .     A
C309   C92     1.462   1_565 S
C310   H331    1.116   .     S
C310   C312    1.521   .     S
C310   O360    1.412   .     S
C310   H332    1.113   .     S
C311   C316    1.407   .     A
C311   H348    1.081   .     S
C312   H333    1.111   .     S
C312   H336    1.110   .     S
C312   H335    1.110   .     S
C313   H337    1.114   .     S
C313   H338    1.116   .     S
C313   C314    1.521   .     S
C313   O352    1.414   .     S
C314   H341    1.108   .     S
C314   H339    1.111   .     S
C314   H412    1.111   .     S
C315   H324    1.081   .     S
C315   C317    1.407   .     A
C316   N349    1.364   .     A
C316   H325    1.079   .     S
C317   H326    1.081   .     S
C317   N350    1.364   .     A
C318   C320    1.407   .     A
C318   H327    1.081   .     S
C318   N349    1.364   .     A
C319   H328    1.081   .     S
C319   N350    1.363   .     A
C320   H329    1.081   .     S
Cu321  O351    1.956   .     S
Cu321  Cu322   2.674   .     S
Cu321  O355    1.954   .     S
Cu321  O359    1.958   .     S
Cu321  O356    1.955   .     S
Cu321  N350    2.009   .     S
Cu322  O358    1.958   .     S
Cu322  O357    1.955   .     S
Cu322  O354    1.954   .     S
Cu322  O353    1.956   .     S
Cu322  N349    2.009   .     S
H323   C367    1.087   .     S
C361   C374    1.469   .     S
C361   O423    1.293   .     A
C361   O426    1.296   .     A
C362   C364    1.411   .     A
C362   H402    1.081   .     S
C362   C391    1.407   .     A
C363   C383    1.411   .     A
C363   C392    1.411   .     A
C363   C796    1.516   1_554 S
C364   C387    1.411   .     A
C364   C795    1.516   .     S
C365   O430    1.287   .     A
C365   C367    1.433   .     S
C365   O428    1.284   .     A
C366   O429    1.285   .     A
C366   C368    1.433   .     S
C366   O431    1.287   .     A
C368   C223    1.335   1_655 S
C368   H262    1.087   1_655 S
C369   H414    1.084   .     S
C369   C380    1.399   .     A
C369   C371    1.396   .     A
C370   C373    1.395   .     A
C370   H415    1.084   .     S
C370   C381    1.400   .     A
C371   C374    1.415   .     A
C371   O432    1.383   .     S
C372   O425    1.291   .     A
C372   C375    1.455   .     S
C372   O427    1.291   .     A
C373   O424    1.383   .     S
C373   C375    1.409   .     A
C374   C376    1.405   .     A
C375   C377    1.401   .     A
C376   H416    1.083   .     S
C376   C378    1.389   .     A
C377   C379    1.389   .     A
C377   H417    1.084   .     S
C378   C380    1.399   .     A
C378   H418    1.083   .     S
C379   H419    1.083   .     S
C379   C381    1.401   .     A
C381   C164    1.462   1_565 S
C382   H403    1.116   .     S
C382   C384    1.521   .     S
C382   O432    1.412   .     S
C382   H404    1.113   .     S
C383   C388    1.407   .     A
C383   H420    1.081   .     S
C384   H405    1.111   .     S
C384   H408    1.110   .     S
C384   H407    1.110   .     S
C385   H409    1.114   .     S
C385   H410    1.116   .     S
C385   C386    1.521   .     S
C385   O424    1.414   .     S
C386   H413    1.108   .     S
C386   H411    1.111   .     S
C386   H268    1.111   1_655 S
C387   H396    1.081   .     S
C387   C389    1.407   .     A
C388   N421    1.364   .     A
C388   H397    1.079   .     S
C389   H398    1.081   .     S
C389   N422    1.364   .     A
C390   C392    1.407   .     A
C390   H399    1.081   .     S
C390   N421    1.364   .     A
C391   H400    1.081   .     S
C391   N422    1.363   .     A
C392   H401    1.081   .     S
Cu393  O423    1.956   .     S
Cu393  Cu394   2.674   .     S
Cu393  O427    1.954   .     S
Cu393  O431    1.958   .     S
Cu393  O428    1.955   .     S
Cu393  N422    2.009   .     S
Cu394  O430    1.958   .     S
Cu394  O429    1.955   .     S
Cu394  O426    1.954   .     S
Cu394  O425    1.956   .     S
Cu394  N421    2.009   .     S
H395   C223    1.087   1_655 S
C433   C446    1.469   .     S
C433   O495    1.293   .     A
C433   O498    1.296   .     A
C434   C436    1.411   .     A
C434   H474    1.081   .     S
C434   C463    1.407   .     A
C435   C455    1.411   .     A
C435   C464    1.411   .     A
C436   C459    1.411   .     A
C436   C3      1.516   1_556 S
C437   O502    1.287   .     A
C437   C439    1.433   .     S
C437   O500    1.284   .     A
C438   O501    1.285   .     A
C438   C440    1.433   .     S
C438   O503    1.287   .     A
C439   C584    1.335   1_455 S
C439   H611    1.087   1_455 S
C440   C511    1.335   .     S
C440   H550    1.087   .     S
C441   H486    1.084   .     S
C441   C452    1.399   .     A
C441   C443    1.396   .     A
C442   C445    1.395   .     A
C442   H487    1.084   .     S
C442   C453    1.400   .     A
C443   C446    1.415   .     A
C443   O504    1.383   .     S
C444   O497    1.291   .     A
C444   C447    1.455   .     S
C444   O499    1.291   .     A
C445   O496    1.383   .     S
C445   C447    1.409   .     A
C446   C448    1.405   .     A
C447   C449    1.401   .     A
C448   H488    1.083   .     S
C448   C450    1.389   .     A
C449   C451    1.389   .     A
C449   H489    1.084   .     S
C450   C452    1.399   .     A
C450   H490    1.083   .     S
C451   H491    1.083   .     S
C451   C453    1.401   .     A
C452   C669    1.462   1_545 S
C453   C668    1.462   .     S
C454   H475    1.116   .     S
C454   C456    1.521   .     S
C454   O504    1.412   .     S
C454   H476    1.113   .     S
C455   C460    1.407   .     A
C455   H492    1.081   .     S
C456   H477    1.111   .     S
C456   H480    1.110   .     S
C456   H479    1.110   .     S
C457   H481    1.114   .     S
C457   H482    1.116   .     S
C457   C458    1.521   .     S
C457   O496    1.414   .     S
C458   H485    1.108   .     S
C458   H483    1.111   .     S
C458   H556    1.111   .     S
C459   H468    1.081   .     S
C459   C461    1.407   .     A
C460   N493    1.364   .     A
C460   H469    1.079   .     S
C461   H470    1.081   .     S
C461   N494    1.364   .     A
C462   C464    1.407   .     A
C462   H471    1.081   .     S
C462   N493    1.364   .     A
C463   H472    1.081   .     S
C463   N494    1.363   .     A
C464   H473    1.081   .     S
Cu465  O495    1.956   .     S
Cu465  Cu466   2.674   .     S
Cu465  O499    1.954   .     S
Cu465  O503    1.958   .     S
Cu465  O500    1.955   .     S
Cu465  N494    2.009   .     S
Cu466  O502    1.958   .     S
Cu466  O501    1.955   .     S
Cu466  O498    1.954   .     S
Cu466  O497    1.956   .     S
Cu466  N493    2.009   .     S
H467   C511    1.087   .     S
H478   C584    1.087   1_455 S
H484   C602    1.111   1_455 S
C505   C518    1.469   .     S
C505   O567    1.293   .     A
C505   O570    1.296   .     A
C506   C508    1.411   .     A
C506   H546    1.081   .     S
C506   C535    1.407   .     A
C507   C527    1.411   .     A
C507   C536    1.411   .     A
C508   C531    1.411   .     A
C508   C75     1.516   1_556 S
C509   O574    1.287   .     A
C509   C511    1.433   .     S
C509   O572    1.284   .     A
C510   O573    1.285   .     A
C510   C512    1.433   .     S
C510   O575    1.287   .     A
C512   C583    1.335   .     S
C512   H622    1.087   .     S
C513   H558    1.084   .     S
C513   C524    1.399   .     A
C513   C515    1.396   .     A
C514   C517    1.395   .     A
C514   H559    1.084   .     S
C514   C525    1.400   .     A
C515   C518    1.415   .     A
C515   O576    1.383   .     S
C516   O569    1.291   .     A
C516   C519    1.455   .     S
C516   O571    1.291   .     A
C517   O568    1.383   .     S
C517   C519    1.409   .     A
C518   C520    1.405   .     A
C519   C521    1.401   .     A
C520   H560    1.083   .     S
C520   C522    1.389   .     A
C521   C523    1.389   .     A
C521   H561    1.084   .     S
C522   C524    1.399   .     A
C522   H562    1.083   .     S
C523   H563    1.083   .     S
C523   C525    1.401   .     A
C524   C741    1.462   1_545 S
C525   C740    1.462   .     S
C526   H547    1.116   .     S
C526   C528    1.521   .     S
C526   O576    1.412   .     S
C526   H548    1.113   .     S
C527   C532    1.407   .     A
C527   H564    1.081   .     S
C528   H549    1.111   .     S
C528   H552    1.110   .     S
C528   H551    1.110   .     S
C529   H553    1.114   .     S
C529   H554    1.116   .     S
C529   C530    1.521   .     S
C529   O568    1.414   .     S
C530   H557    1.108   .     S
C530   H555    1.111   .     S
C530   H628    1.111   .     S
C531   H540    1.081   .     S
C531   C533    1.407   .     A
C532   N565    1.364   .     A
C532   H541    1.079   .     S
C533   H542    1.081   .     S
C533   N566    1.364   .     A
C534   C536    1.407   .     A
C534   H543    1.081   .     S
C534   N565    1.364   .     A
C535   H544    1.081   .     S
C535   N566    1.363   .     A
C536   H545    1.081   .     S
Cu537  O567    1.956   .     S
Cu537  Cu538   2.674   .     S
Cu537  O571    1.954   .     S
Cu537  O575    1.958   .     S
Cu537  O572    1.955   .     S
Cu537  N566    2.009   .     S
Cu538  O574    1.958   .     S
Cu538  O573    1.955   .     S
Cu538  O570    1.954   .     S
Cu538  O569    1.956   .     S
Cu538  N565    2.009   .     S
H539   C583    1.087   .     S
C577   C590    1.469   .     S
C577   O639    1.293   .     A
C577   O642    1.296   .     A
C578   C580    1.411   .     A
C578   H618    1.081   .     S
C578   C607    1.407   .     A
C579   C599    1.411   .     A
C579   C608    1.411   .     A
C580   C603    1.411   .     A
C580   C147    1.516   1_556 S
C581   O646    1.287   .     A
C581   C583    1.433   .     S
C581   O644    1.284   .     A
C582   O645    1.285   .     A
C582   C584    1.433   .     S
C582   O647    1.287   .     A
C584   C439    1.335   1_655 S
C584   H478    1.087   1_655 S
C585   H630    1.084   .     S
C585   C596    1.399   .     A
C585   C587    1.396   .     A
C586   C589    1.395   .     A
C586   H631    1.084   .     S
C586   C597    1.400   .     A
C587   C590    1.415   .     A
C587   O648    1.383   .     S
C588   O641    1.291   .     A
C588   C591    1.455   .     S
C588   O643    1.291   .     A
C589   O640    1.383   .     S
C589   C591    1.409   .     A
C590   C592    1.405   .     A
C591   C593    1.401   .     A
C592   H632    1.083   .     S
C592   C594    1.389   .     A
C593   C595    1.389   .     A
C593   H633    1.084   .     S
C594   C596    1.399   .     A
C594   H634    1.083   .     S
C595   H635    1.083   .     S
C595   C597    1.401   .     A
C596   C813    1.462   1_545 S
C597   C812    1.462   .     S
C598   H619    1.116   .     S
C598   C600    1.521   .     S
C598   O648    1.412   .     S
C598   H620    1.113   .     S
C599   C604    1.407   .     A
C599   H636    1.081   .     S
C600   H621    1.111   .     S
C600   H624    1.110   .     S
C600   H623    1.110   .     S
C601   H625    1.114   .     S
C601   H626    1.116   .     S
C601   C602    1.521   .     S
C601   O640    1.414   .     S
C602   H629    1.108   .     S
C602   H627    1.111   .     S
C602   H484    1.111   1_655 S
C603   H612    1.081   .     S
C603   C605    1.407   .     A
C604   N637    1.364   .     A
C604   H613    1.079   .     S
C605   H614    1.081   .     S
C605   N638    1.364   .     A
C606   C608    1.407   .     A
C606   H615    1.081   .     S
C606   N637    1.364   .     A
C607   H616    1.081   .     S
C607   N638    1.363   .     A
C608   H617    1.081   .     S
Cu609  O639    1.956   .     S
Cu609  Cu610   2.674   .     S
Cu609  O643    1.954   .     S
Cu609  O647    1.958   .     S
Cu609  O644    1.955   .     S
Cu609  N638    2.009   .     S
Cu610  O646    1.958   .     S
Cu610  O645    1.955   .     S
Cu610  O642    1.954   .     S
Cu610  O641    1.956   .     S
Cu610  N637    2.009   .     S
H611   C439    1.087   1_655 S
C649   C662    1.469   .     S
C649   O711    1.293   .     A
C649   O714    1.296   .     A
C650   C652    1.411   .     A
C650   H690    1.081   .     S
C650   C679    1.407   .     A
C651   C671    1.411   .     A
C651   C680    1.411   .     A
C652   C675    1.411   .     A
C652   C219    1.516   1_556 S
C653   O718    1.287   .     A
C653   C655    1.433   .     S
C653   O716    1.284   .     A
C654   O717    1.285   .     A
C654   C656    1.433   .     S
C654   O719    1.287   .     A
C655   C800    1.335   1_455 S
C655   H827    1.087   1_455 S
C656   C727    1.335   .     S
C656   H766    1.087   .     S
C657   H702    1.084   .     S
C657   C668    1.399   .     A
C657   C659    1.396   .     A
C658   C661    1.395   .     A
C658   H703    1.084   .     S
C658   C669    1.400   .     A
C659   C662    1.415   .     A
C659   O720    1.383   .     S
C660   O713    1.291   .     A
C660   C663    1.455   .     S
C660   O715    1.291   .     A
C661   O712    1.383   .     S
C661   C663    1.409   .     A
C662   C664    1.405   .     A
C663   C665    1.401   .     A
C664   H704    1.083   .     S
C664   C666    1.389   .     A
C665   C667    1.389   .     A
C665   H705    1.084   .     S
C666   C668    1.399   .     A
C666   H706    1.083   .     S
C667   H707    1.083   .     S
C667   C669    1.401   .     A
C669   C452    1.462   1_565 S
C670   H691    1.116   .     S
C670   C672    1.521   .     S
C670   O720    1.412   .     S
C670   H692    1.113   .     S
C671   C676    1.407   .     A
C671   H708    1.081   .     S
C672   H693    1.111   .     S
C672   H696    1.110   .     S
C672   H695    1.110   .     S
C673   H697    1.114   .     S
C673   H698    1.116   .     S
C673   C674    1.521   .     S
C673   O712    1.414   .     S
C674   H701    1.108   .     S
C674   H699    1.111   .     S
C674   H772    1.111   .     S
C675   H684    1.081   .     S
C675   C677    1.407   .     A
C676   N709    1.364   .     A
C676   H685    1.079   .     S
C677   H686    1.081   .     S
C677   N710    1.364   .     A
C678   C680    1.407   .     A
C678   H687    1.081   .     S
C678   N709    1.364   .     A
C679   H688    1.081   .     S
C679   N710    1.363   .     A
C680   H689    1.081   .     S
Cu681  O711    1.956   .     S
Cu681  Cu682   2.674   .     S
Cu681  O715    1.954   .     S
Cu681  O719    1.958   .     S
Cu681  O716    1.955   .     S
Cu681  N710    2.009   .     S
Cu682  O718    1.958   .     S
Cu682  O717    1.955   .     S
Cu682  O714    1.954   .     S
Cu682  O713    1.956   .     S
Cu682  N709    2.009   .     S
H683   C727    1.087   .     S
H694   C800    1.087   1_455 S
H700   C818    1.111   1_455 S
C721   C734    1.469   .     S
C721   O783    1.293   .     A
C721   O786    1.296   .     A
C722   C724    1.411   .     A
C722   H762    1.081   .     S
C722   C751    1.407   .     A
C723   C743    1.411   .     A
C723   C752    1.411   .     A
C724   C747    1.411   .     A
C724   C291    1.516   1_556 S
C725   O790    1.287   .     A
C725   C727    1.433   .     S
C725   O788    1.284   .     A
C726   O789    1.285   .     A
C726   C728    1.433   .     S
C726   O791    1.287   .     A
C728   C799    1.335   .     S
C728   H838    1.087   .     S
C729   H774    1.084   .     S
C729   C740    1.399   .     A
C729   C731    1.396   .     A
C730   C733    1.395   .     A
C730   H775    1.084   .     S
C730   C741    1.400   .     A
C731   C734    1.415   .     A
C731   O792    1.383   .     S
C732   O785    1.291   .     A
C732   C735    1.455   .     S
C732   O787    1.291   .     A
C733   O784    1.383   .     S
C733   C735    1.409   .     A
C734   C736    1.405   .     A
C735   C737    1.401   .     A
C736   H776    1.083   .     S
C736   C738    1.389   .     A
C737   C739    1.389   .     A
C737   H777    1.084   .     S
C738   C740    1.399   .     A
C738   H778    1.083   .     S
C739   H779    1.083   .     S
C739   C741    1.401   .     A
C741   C524    1.462   1_565 S
C742   H763    1.116   .     S
C742   C744    1.521   .     S
C742   O792    1.412   .     S
C742   H764    1.113   .     S
C743   C748    1.407   .     A
C743   H780    1.081   .     S
C744   H765    1.111   .     S
C744   H768    1.110   .     S
C744   H767    1.110   .     S
C745   H769    1.114   .     S
C745   H770    1.116   .     S
C745   C746    1.521   .     S
C745   O784    1.414   .     S
C746   H773    1.108   .     S
C746   H771    1.111   .     S
C746   H844    1.111   .     S
C747   H756    1.081   .     S
C747   C749    1.407   .     A
C748   N781    1.364   .     A
C748   H757    1.079   .     S
C749   H758    1.081   .     S
C749   N782    1.364   .     A
C750   C752    1.407   .     A
C750   H759    1.081   .     S
C750   N781    1.364   .     A
C751   H760    1.081   .     S
C751   N782    1.363   .     A
C752   H761    1.081   .     S
Cu753  O783    1.956   .     S
Cu753  Cu754   2.674   .     S
Cu753  O787    1.954   .     S
Cu753  O791    1.958   .     S
Cu753  O788    1.955   .     S
Cu753  N782    2.009   .     S
Cu754  O790    1.958   .     S
Cu754  O789    1.955   .     S
Cu754  O786    1.954   .     S
Cu754  O785    1.956   .     S
Cu754  N781    2.009   .     S
H755   C799    1.087   .     S
C793   C806    1.469   .     S
C793   O855    1.293   .     A
C793   O858    1.296   .     A
C794   C796    1.411   .     A
C794   H834    1.081   .     S
C794   C823    1.407   .     A
C795   C815    1.411   .     A
C795   C824    1.411   .     A
C796   C819    1.411   .     A
C796   C363    1.516   1_556 S
C797   O862    1.287   .     A
C797   C799    1.433   .     S
C797   O860    1.284   .     A
C798   O861    1.285   .     A
C798   C800    1.433   .     S
C798   O863    1.287   .     A
C800   C655    1.335   1_655 S
C800   H694    1.087   1_655 S
C801   H846    1.084   .     S
C801   C812    1.399   .     A
C801   C803    1.396   .     A
C802   C805    1.395   .     A
C802   H847    1.084   .     S
C802   C813    1.400   .     A
C803   C806    1.415   .     A
C803   O864    1.383   .     S
C804   O857    1.291   .     A
C804   C807    1.455   .     S
C804   O859    1.291   .     A
C805   O856    1.383   .     S
C805   C807    1.409   .     A
C806   C808    1.405   .     A
C807   C809    1.401   .     A
C808   H848    1.083   .     S
C808   C810    1.389   .     A
C809   C811    1.389   .     A
C809   H849    1.084   .     S
C810   C812    1.399   .     A
C810   H850    1.083   .     S
C811   H851    1.083   .     S
C811   C813    1.401   .     A
C813   C596    1.462   1_565 S
C814   H835    1.116   .     S
C814   C816    1.521   .     S
C814   O864    1.412   .     S
C814   H836    1.113   .     S
C815   C820    1.407   .     A
C815   H852    1.081   .     S
C816   H837    1.111   .     S
C816   H840    1.110   .     S
C816   H839    1.110   .     S
C817   H841    1.114   .     S
C817   H842    1.116   .     S
C817   C818    1.521   .     S
C817   O856    1.414   .     S
C818   H845    1.108   .     S
C818   H843    1.111   .     S
C818   H700    1.111   1_655 S
C819   H828    1.081   .     S
C819   C821    1.407   .     A
C820   N853    1.364   .     A
C820   H829    1.079   .     S
C821   H830    1.081   .     S
C821   N854    1.364   .     A
C822   C824    1.407   .     A
C822   H831    1.081   .     S
C822   N853    1.364   .     A
C823   H832    1.081   .     S
C823   N854    1.363   .     A
C824   H833    1.081   .     S
Cu825  O855    1.956   .     S
Cu825  Cu826   2.674   .     S
Cu825  O859    1.954   .     S
Cu825  O863    1.958   .     S
Cu825  O860    1.955   .     S
Cu825  N854    2.009   .     S
Cu826  O862    1.958   .     S
Cu826  O861    1.955   .     S
Cu826  O858    1.954   .     S
Cu826  O857    1.956   .     S
Cu826  N853    2.009   .     S
H827   C655    1.087   1_655 S
