data_str_m2_o2_o10_pcu_sym.53
_audit_creation_date              2020-01-03
_audit_creation_method            'Materials Studio'
_symmetry_space_group_name_H-M    'P1'
_symmetry_Int_Tables_number       1
_symmetry_cell_setting            triclinic
loop_
_symmetry_equiv_pos_as_xyz
  x,y,z
_cell_length_a                    26.3822
_cell_length_b                    30.2282
_cell_length_c                    27.7212
_cell_angle_alpha                 89.9683
_cell_angle_beta                  97.6513
_cell_angle_gamma                 90.2812
loop_
_atom_site_label
_atom_site_type_symbol
_atom_site_fract_x
_atom_site_fract_y
_atom_site_fract_z
_atom_site_U_iso_or_equiv
_atom_site_adp_type
_atom_site_occupancy
C1     C     0.16638   0.16492   0.24999   0.00000  Uiso   1.00
C2     C     0.18337   0.28672   0.44838   0.00000  Uiso   1.00
C3     C     0.16708   0.24991   0.02737   0.00000  Uiso   1.00
C4     C     0.16667   0.24956   0.47271   0.00000  Uiso   1.00
C5     C     0.06815   0.25143   0.23786   0.00000  Uiso   1.00
C6     C     0.26525   0.25136   0.26238   0.00000  Uiso   1.00
C7     C     0.01356   0.25784   0.23177   0.00000  Uiso   1.00
C8     C     0.32032   0.25164   0.26990   0.00000  Uiso   1.00
C9     C     0.14321   0.04776   0.28755   0.00000  Uiso   1.00
C10    C     0.13912   0.45181   0.20827   0.00000  Uiso   1.00
C11    C     0.14628   0.09391   0.28806   0.00000  Uiso   1.00
C12    C     0.16642   0.33504   0.24996   0.00000  Uiso   1.00
C13    C     0.14232   0.40567   0.20823   0.00000  Uiso   1.00
C14    C     0.16491   0.11664   0.24994   0.00000  Uiso   1.00
C15    C     0.16494   0.38321   0.24973   0.00000  Uiso   1.00
C16    C     0.18170   0.09301   0.21168   0.00000  Uiso   1.00
C17    C     0.18562   0.40695   0.29109   0.00000  Uiso   1.00
C18    C     0.18064   0.04707   0.21189   0.00000  Uiso   1.00
C19    C     0.18460   0.45287   0.29068   0.00000  Uiso   1.00
C20    C     0.16153   0.02415   0.24965   0.00000  Uiso   1.00
C21    C     0.16152   0.47560   0.24945   0.00000  Uiso   1.00
C22    C     0.33061   0.31704   0.18183   0.00000  Uiso   1.00
C23    C     0.20888   0.26719   0.05924   0.00000  Uiso   1.00
C24    C     0.01628   0.27929   0.34497   0.00000  Uiso   1.00
C25    C     0.07085   0.02746   0.31790   0.00000  Uiso   1.00
C26    C     0.06288   0.46982   0.16487   0.00000  Uiso   1.00
C27    C     0.29002   0.25236   0.04613   0.00000  Uiso   1.00
C28    C     0.17484   0.14460   0.47302   0.00000  Uiso   1.00
C29    C     0.15010   0.21218   0.44399   0.00000  Uiso   1.00
C30    C     0.20674   0.26811   0.10985   0.00000  Uiso   1.00
C31    C     0.14918   0.21381   0.39298   0.00000  Uiso   1.00
C32    C     0.12645   0.23231   0.09942   0.00000  Uiso   1.00
C33    C     0.18384   0.28602   0.39775   0.00000  Uiso   1.00
C34    C     0.12554   0.23261   0.04858   0.00000  Uiso   1.00
Cu35   Cu    0.16667   0.24999   0.29821   0.00000  Uiso   1.00
Cu36   Cu    0.16667   0.25000   0.20178   0.00000  Uiso   1.00
H37    H     0.13326   0.11187   0.31789   0.00000  Uiso   1.00
H38    H     0.19780   0.31472   0.38025   0.00000  Uiso   1.00
H39    H     0.09213   0.21965   0.02603   0.00000  Uiso   1.00
H40    H     0.19569   0.31651   0.46828   0.00000  Uiso   1.00
H41    H     0.03853   0.32625   0.18578   0.00000  Uiso   1.00
H42    H     0.31100   0.33550   0.20868   0.00000  Uiso   1.00
H43    H     0.31357   0.32754   0.14489   0.00000  Uiso   1.00
H44    H     0.31200   0.29108   0.35356   0.00000  Uiso   1.00
H45    H     0.03613   0.30629   0.32740   0.00000  Uiso   1.00
H46    H     0.04005   0.27131   0.37995   0.00000  Uiso   1.00
H47    H     0.05497   0.01240   0.28243   0.00000  Uiso   1.00
H48    H     0.12627   0.38746   0.17608   0.00000  Uiso   1.00
H49    H     0.05700   0.06199   0.32033   0.00000  Uiso   1.00
H50    H     0.05601   0.00804   0.34701   0.00000  Uiso   1.00
H51    H     0.04920   0.48308   0.19827   0.00000  Uiso   1.00
H52    H     0.05009   0.43493   0.15858   0.00000  Uiso   1.00
H53    H     0.04479   0.48965   0.13361   0.00000  Uiso   1.00
H54    H     0.27740   0.22172   0.02558   0.00000  Uiso   1.00
H55    H     0.30287   0.24447   0.08504   0.00000  Uiso   1.00
H56    H     0.32352   0.26580   0.03054   0.00000  Uiso   1.00
H57    H     0.20747   0.15909   0.49769   0.00000  Uiso   1.00
H58    H     0.18752   0.13413   0.43806   0.00000  Uiso   1.00
H59    H     0.19659   0.11003   0.18212   0.00000  Uiso   1.00
H60    H     0.16200   0.11452   0.49097   0.00000  Uiso   1.00
H61    H     0.20358   0.39001   0.32332   0.00000  Uiso   1.00
H62    H     0.19530   0.02932   0.18279   0.00000  Uiso   1.00
H63    H     0.20233   0.47076   0.32241   0.00000  Uiso   1.00
H64    H     0.23752   0.28324   0.13357   0.00000  Uiso   1.00
H65    H     0.13479   0.18555   0.37144   0.00000  Uiso   1.00
H66    H     0.09447   0.21815   0.11478   0.00000  Uiso   1.00
N67    N     0.16667   0.25001   0.12934   0.00000  Uiso   1.00
N68    N     0.16667   0.24999   0.37065   0.00000  Uiso   1.00
O69    O     0.16667   0.18572   0.29071   0.00000  Uiso   1.00
O70    O     0.01087   0.24065   0.31605   0.00000  Uiso   1.00
O71    O     0.12471   0.02566   0.32530   0.00000  Uiso   1.00
O72    O     0.11643   0.47382   0.16729   0.00000  Uiso   1.00
O73    O     0.25117   0.28454   0.04129   0.00000  Uiso   1.00
O74    O     0.13355   0.17430   0.46512   0.00000  Uiso   1.00
O75    O     0.16666   0.31427   0.20928   0.00000  Uiso   1.00
O76    O     0.16667   0.18573   0.20928   0.00000  Uiso   1.00
O77    O     0.16666   0.31427   0.29072   0.00000  Uiso   1.00
O78    O     0.09161   0.24999   0.28132   0.00000  Uiso   1.00
O79    O     0.24172   0.25000   0.21868   0.00000  Uiso   1.00
O80    O     0.09161   0.25000   0.19988   0.00000  Uiso   1.00
O81    O     0.24172   0.25000   0.30011   0.00000  Uiso   1.00
O82    O     0.32335   0.27096   0.18635   0.00000  Uiso   1.00
C83    C     0.49971   0.16492   0.24999   0.00000  Uiso   1.00
C84    C     0.51670   0.28672   0.44838   0.00000  Uiso   1.00
C85    C     0.50041   0.24991   0.02737   0.00000  Uiso   1.00
C86    C     0.50001   0.24956   0.47271   0.00000  Uiso   1.00
C87    C     0.40149   0.25143   0.23786   0.00000  Uiso   1.00
C88    C     0.59858   0.25136   0.26238   0.00000  Uiso   1.00
C89    C     0.34690   0.25784   0.23177   0.00000  Uiso   1.00
C90    C     0.65366   0.25164   0.26990   0.00000  Uiso   1.00
C91    C     0.47654   0.04776   0.28755   0.00000  Uiso   1.00
C92    C     0.47245   0.45181   0.20827   0.00000  Uiso   1.00
C93    C     0.47961   0.09391   0.28806   0.00000  Uiso   1.00
C94    C     0.49976   0.33504   0.24996   0.00000  Uiso   1.00
C95    C     0.47566   0.40567   0.20823   0.00000  Uiso   1.00
C96    C     0.49824   0.11664   0.24994   0.00000  Uiso   1.00
C97    C     0.49827   0.38321   0.24973   0.00000  Uiso   1.00
C98    C     0.51504   0.09301   0.21168   0.00000  Uiso   1.00
C99    C     0.51896   0.40695   0.29109   0.00000  Uiso   1.00
C100   C     0.51398   0.04707   0.21189   0.00000  Uiso   1.00
C101   C     0.51793   0.45287   0.29068   0.00000  Uiso   1.00
C102   C     0.49486   0.02415   0.24965   0.00000  Uiso   1.00
C103   C     0.49485   0.47560   0.24945   0.00000  Uiso   1.00
C104   C     0.66395   0.31704   0.18183   0.00000  Uiso   1.00
C105   C     0.54221   0.26719   0.05924   0.00000  Uiso   1.00
C106   C     0.34961   0.27929   0.34497   0.00000  Uiso   1.00
C107   C     0.40418   0.02746   0.31790   0.00000  Uiso   1.00
C108   C     0.39622   0.46982   0.16487   0.00000  Uiso   1.00
C109   C     0.62336   0.25236   0.04613   0.00000  Uiso   1.00
C110   C     0.50817   0.14460   0.47302   0.00000  Uiso   1.00
C111   C     0.48343   0.21218   0.44399   0.00000  Uiso   1.00
C112   C     0.54007   0.26811   0.10985   0.00000  Uiso   1.00
C113   C     0.48251   0.21381   0.39298   0.00000  Uiso   1.00
C114   C     0.45978   0.23231   0.09942   0.00000  Uiso   1.00
C115   C     0.51717   0.28602   0.39775   0.00000  Uiso   1.00
C116   C     0.45887   0.23261   0.04858   0.00000  Uiso   1.00
Cu117  Cu    0.50000   0.24999   0.29821   0.00000  Uiso   1.00
Cu118  Cu    0.50000   0.25000   0.20178   0.00000  Uiso   1.00
H119   H     0.46659   0.11187   0.31789   0.00000  Uiso   1.00
H120   H     0.53113   0.31472   0.38025   0.00000  Uiso   1.00
H121   H     0.42546   0.21965   0.02603   0.00000  Uiso   1.00
H122   H     0.52903   0.31651   0.46828   0.00000  Uiso   1.00
H123   H     0.37187   0.32625   0.18578   0.00000  Uiso   1.00
H124   H     0.64434   0.33550   0.20868   0.00000  Uiso   1.00
H125   H     0.64690   0.32754   0.14489   0.00000  Uiso   1.00
H126   H     0.64534   0.29108   0.35356   0.00000  Uiso   1.00
H127   H     0.36947   0.30629   0.32740   0.00000  Uiso   1.00
H128   H     0.37339   0.27131   0.37995   0.00000  Uiso   1.00
H129   H     0.38831   0.01240   0.28243   0.00000  Uiso   1.00
H130   H     0.45961   0.38746   0.17608   0.00000  Uiso   1.00
H131   H     0.39033   0.06199   0.32033   0.00000  Uiso   1.00
H132   H     0.38934   0.00804   0.34701   0.00000  Uiso   1.00
H133   H     0.38253   0.48308   0.19827   0.00000  Uiso   1.00
H134   H     0.38342   0.43493   0.15858   0.00000  Uiso   1.00
H135   H     0.37812   0.48965   0.13361   0.00000  Uiso   1.00
H136   H     0.61073   0.22172   0.02558   0.00000  Uiso   1.00
H137   H     0.63621   0.24447   0.08504   0.00000  Uiso   1.00
H138   H     0.65685   0.26580   0.03054   0.00000  Uiso   1.00
H139   H     0.54080   0.15909   0.49769   0.00000  Uiso   1.00
H140   H     0.52086   0.13413   0.43806   0.00000  Uiso   1.00
H141   H     0.52992   0.11003   0.18212   0.00000  Uiso   1.00
H142   H     0.49533   0.11452   0.49097   0.00000  Uiso   1.00
H143   H     0.53691   0.39001   0.32332   0.00000  Uiso   1.00
H144   H     0.52863   0.02932   0.18279   0.00000  Uiso   1.00
H145   H     0.53567   0.47076   0.32241   0.00000  Uiso   1.00
H146   H     0.57085   0.28324   0.13357   0.00000  Uiso   1.00
H147   H     0.46813   0.18555   0.37144   0.00000  Uiso   1.00
H148   H     0.42780   0.21815   0.11478   0.00000  Uiso   1.00
N149   N     0.50000   0.25001   0.12934   0.00000  Uiso   1.00
N150   N     0.50000   0.24999   0.37065   0.00000  Uiso   1.00
O151   O     0.50000   0.18572   0.29071   0.00000  Uiso   1.00
O152   O     0.34421   0.24065   0.31605   0.00000  Uiso   1.00
O153   O     0.45804   0.02566   0.32530   0.00000  Uiso   1.00
O154   O     0.44977   0.47382   0.16729   0.00000  Uiso   1.00
O155   O     0.58451   0.28454   0.04129   0.00000  Uiso   1.00
O156   O     0.46688   0.17430   0.46512   0.00000  Uiso   1.00
O157   O     0.50000   0.31427   0.20928   0.00000  Uiso   1.00
O158   O     0.50000   0.18573   0.20928   0.00000  Uiso   1.00
O159   O     0.50000   0.31427   0.29072   0.00000  Uiso   1.00
O160   O     0.42495   0.24999   0.28132   0.00000  Uiso   1.00
O161   O     0.57505   0.25000   0.21868   0.00000  Uiso   1.00
O162   O     0.42495   0.25000   0.19988   0.00000  Uiso   1.00
O163   O     0.57505   0.25000   0.30011   0.00000  Uiso   1.00
O164   O     0.65669   0.27096   0.18635   0.00000  Uiso   1.00
C165   C     0.83304   0.16492   0.24999   0.00000  Uiso   1.00
C166   C     0.85004   0.28672   0.44838   0.00000  Uiso   1.00
C167   C     0.83374   0.24991   0.02737   0.00000  Uiso   1.00
C168   C     0.83334   0.24956   0.47271   0.00000  Uiso   1.00
C169   C     0.73482   0.25143   0.23786   0.00000  Uiso   1.00
C170   C     0.93191   0.25136   0.26238   0.00000  Uiso   1.00
C171   C     0.68023   0.25784   0.23177   0.00000  Uiso   1.00
C172   C     0.98699   0.25164   0.26990   0.00000  Uiso   1.00
C173   C     0.80988   0.04776   0.28755   0.00000  Uiso   1.00
C174   C     0.80579   0.45181   0.20827   0.00000  Uiso   1.00
C175   C     0.81294   0.09391   0.28806   0.00000  Uiso   1.00
C176   C     0.83309   0.33504   0.24996   0.00000  Uiso   1.00
C177   C     0.80899   0.40567   0.20823   0.00000  Uiso   1.00
C178   C     0.83157   0.11664   0.24994   0.00000  Uiso   1.00
C179   C     0.83160   0.38321   0.24973   0.00000  Uiso   1.00
C180   C     0.84837   0.09301   0.21168   0.00000  Uiso   1.00
C181   C     0.85229   0.40695   0.29109   0.00000  Uiso   1.00
C182   C     0.84731   0.04707   0.21189   0.00000  Uiso   1.00
C183   C     0.85127   0.45287   0.29068   0.00000  Uiso   1.00
C184   C     0.82820   0.02415   0.24965   0.00000  Uiso   1.00
C185   C     0.82818   0.47560   0.24945   0.00000  Uiso   1.00
C186   C     0.99728   0.31704   0.18183   0.00000  Uiso   1.00
C187   C     0.87554   0.26719   0.05924   0.00000  Uiso   1.00
C188   C     0.68294   0.27929   0.34497   0.00000  Uiso   1.00
C189   C     0.73752   0.02746   0.31790   0.00000  Uiso   1.00
C190   C     0.72955   0.46982   0.16487   0.00000  Uiso   1.00
C191   C     0.95669   0.25236   0.04613   0.00000  Uiso   1.00
C192   C     0.84151   0.14460   0.47302   0.00000  Uiso   1.00
C193   C     0.81676   0.21218   0.44399   0.00000  Uiso   1.00
C194   C     0.87340   0.26811   0.10985   0.00000  Uiso   1.00
C195   C     0.81584   0.21381   0.39298   0.00000  Uiso   1.00
C196   C     0.79312   0.23231   0.09942   0.00000  Uiso   1.00
C197   C     0.85051   0.28602   0.39775   0.00000  Uiso   1.00
C198   C     0.79220   0.23261   0.04858   0.00000  Uiso   1.00
Cu199  Cu    0.83333   0.24999   0.29821   0.00000  Uiso   1.00
Cu200  Cu    0.83333   0.25000   0.20178   0.00000  Uiso   1.00
H201   H     0.79993   0.11187   0.31789   0.00000  Uiso   1.00
H202   H     0.86446   0.31472   0.38025   0.00000  Uiso   1.00
H203   H     0.75879   0.21965   0.02603   0.00000  Uiso   1.00
H204   H     0.86236   0.31651   0.46828   0.00000  Uiso   1.00
H205   H     0.70520   0.32625   0.18578   0.00000  Uiso   1.00
H206   H     0.97767   0.33550   0.20868   0.00000  Uiso   1.00
H207   H     0.98024   0.32754   0.14489   0.00000  Uiso   1.00
H208   H     0.97867   0.29108   0.35356   0.00000  Uiso   1.00
H209   H     0.70280   0.30629   0.32740   0.00000  Uiso   1.00
H210   H     0.70672   0.27131   0.37995   0.00000  Uiso   1.00
H211   H     0.72164   0.01240   0.28243   0.00000  Uiso   1.00
H212   H     0.79294   0.38746   0.17608   0.00000  Uiso   1.00
H213   H     0.72367   0.06199   0.32033   0.00000  Uiso   1.00
H214   H     0.72267   0.00804   0.34701   0.00000  Uiso   1.00
H215   H     0.71587   0.48308   0.19827   0.00000  Uiso   1.00
H216   H     0.71675   0.43493   0.15858   0.00000  Uiso   1.00
H217   H     0.71146   0.48965   0.13361   0.00000  Uiso   1.00
H218   H     0.94406   0.22172   0.02558   0.00000  Uiso   1.00
H219   H     0.96954   0.24447   0.08504   0.00000  Uiso   1.00
H220   H     0.99018   0.26580   0.03054   0.00000  Uiso   1.00
H221   H     0.87413   0.15909   0.49769   0.00000  Uiso   1.00
H222   H     0.85419   0.13413   0.43806   0.00000  Uiso   1.00
H223   H     0.86325   0.11003   0.18212   0.00000  Uiso   1.00
H224   H     0.82866   0.11452   0.49097   0.00000  Uiso   1.00
H225   H     0.87024   0.39001   0.32332   0.00000  Uiso   1.00
H226   H     0.86197   0.02932   0.18279   0.00000  Uiso   1.00
H227   H     0.86900   0.47076   0.32241   0.00000  Uiso   1.00
H228   H     0.90418   0.28324   0.13357   0.00000  Uiso   1.00
H229   H     0.80146   0.18555   0.37144   0.00000  Uiso   1.00
H230   H     0.76113   0.21815   0.11478   0.00000  Uiso   1.00
N231   N     0.83333   0.25001   0.12934   0.00000  Uiso   1.00
N232   N     0.83333   0.24999   0.37065   0.00000  Uiso   1.00
O233   O     0.83334   0.18572   0.29071   0.00000  Uiso   1.00
O234   O     0.67754   0.24065   0.31605   0.00000  Uiso   1.00
O235   O     0.79137   0.02566   0.32530   0.00000  Uiso   1.00
O236   O     0.78310   0.47382   0.16729   0.00000  Uiso   1.00
O237   O     0.91784   0.28454   0.04129   0.00000  Uiso   1.00
O238   O     0.80022   0.17430   0.46512   0.00000  Uiso   1.00
O239   O     0.83333   0.31427   0.20928   0.00000  Uiso   1.00
O240   O     0.83334   0.18573   0.20928   0.00000  Uiso   1.00
O241   O     0.83333   0.31427   0.29072   0.00000  Uiso   1.00
O242   O     0.75828   0.24999   0.28132   0.00000  Uiso   1.00
O243   O     0.90839   0.25000   0.21868   0.00000  Uiso   1.00
O244   O     0.75828   0.25000   0.19988   0.00000  Uiso   1.00
O245   O     0.90839   0.25000   0.30011   0.00000  Uiso   1.00
O246   O     0.99002   0.27096   0.18635   0.00000  Uiso   1.00
C247   C     0.16638   0.66492   0.24999   0.00000  Uiso   1.00
C248   C     0.18337   0.78672   0.44838   0.00000  Uiso   1.00
C249   C     0.16708   0.74991   0.02737   0.00000  Uiso   1.00
C250   C     0.16667   0.74956   0.47271   0.00000  Uiso   1.00
C251   C     0.06815   0.75143   0.23786   0.00000  Uiso   1.00
C252   C     0.26525   0.75136   0.26238   0.00000  Uiso   1.00
C253   C     0.01356   0.75784   0.23177   0.00000  Uiso   1.00
C254   C     0.32032   0.75164   0.26990   0.00000  Uiso   1.00
C255   C     0.14321   0.54776   0.28755   0.00000  Uiso   1.00
C256   C     0.13912   0.95181   0.20827   0.00000  Uiso   1.00
C257   C     0.14628   0.59391   0.28806   0.00000  Uiso   1.00
C258   C     0.16642   0.83504   0.24996   0.00000  Uiso   1.00
C259   C     0.14232   0.90567   0.20823   0.00000  Uiso   1.00
C260   C     0.16491   0.61664   0.24994   0.00000  Uiso   1.00
C261   C     0.16494   0.88321   0.24973   0.00000  Uiso   1.00
C262   C     0.18170   0.59301   0.21168   0.00000  Uiso   1.00
C263   C     0.18562   0.90695   0.29109   0.00000  Uiso   1.00
C264   C     0.18064   0.54707   0.21189   0.00000  Uiso   1.00
C265   C     0.18460   0.95287   0.29068   0.00000  Uiso   1.00
C266   C     0.16153   0.52415   0.24965   0.00000  Uiso   1.00
C267   C     0.16152   0.97560   0.24945   0.00000  Uiso   1.00
C268   C     0.33061   0.81704   0.18183   0.00000  Uiso   1.00
C269   C     0.20888   0.76719   0.05924   0.00000  Uiso   1.00
C270   C     0.01628   0.77929   0.34497   0.00000  Uiso   1.00
C271   C     0.07085   0.52746   0.31790   0.00000  Uiso   1.00
C272   C     0.06288   0.96982   0.16487   0.00000  Uiso   1.00
C273   C     0.29002   0.75236   0.04613   0.00000  Uiso   1.00
C274   C     0.17484   0.64460   0.47302   0.00000  Uiso   1.00
C275   C     0.15010   0.71218   0.44399   0.00000  Uiso   1.00
C276   C     0.20674   0.76811   0.10985   0.00000  Uiso   1.00
C277   C     0.14918   0.71381   0.39298   0.00000  Uiso   1.00
C278   C     0.12645   0.73231   0.09942   0.00000  Uiso   1.00
C279   C     0.18384   0.78602   0.39775   0.00000  Uiso   1.00
C280   C     0.12554   0.73261   0.04858   0.00000  Uiso   1.00
Cu281  Cu    0.16667   0.74999   0.29821   0.00000  Uiso   1.00
Cu282  Cu    0.16667   0.75000   0.20178   0.00000  Uiso   1.00
H283   H     0.13326   0.61187   0.31789   0.00000  Uiso   1.00
H284   H     0.19780   0.81472   0.38025   0.00000  Uiso   1.00
H285   H     0.09213   0.71965   0.02603   0.00000  Uiso   1.00
H286   H     0.19569   0.81651   0.46828   0.00000  Uiso   1.00
H287   H     0.03853   0.82625   0.18578   0.00000  Uiso   1.00
H288   H     0.31100   0.83550   0.20868   0.00000  Uiso   1.00
H289   H     0.31357   0.82754   0.14489   0.00000  Uiso   1.00
H290   H     0.31200   0.79108   0.35356   0.00000  Uiso   1.00
H291   H     0.03613   0.80629   0.32740   0.00000  Uiso   1.00
H292   H     0.04005   0.77131   0.37995   0.00000  Uiso   1.00
H293   H     0.05497   0.51240   0.28243   0.00000  Uiso   1.00
H294   H     0.12627   0.88746   0.17608   0.00000  Uiso   1.00
H295   H     0.05700   0.56199   0.32033   0.00000  Uiso   1.00
H296   H     0.05601   0.50804   0.34701   0.00000  Uiso   1.00
H297   H     0.04920   0.98308   0.19827   0.00000  Uiso   1.00
H298   H     0.05009   0.93493   0.15858   0.00000  Uiso   1.00
H299   H     0.04479   0.98965   0.13361   0.00000  Uiso   1.00
H300   H     0.27740   0.72172   0.02558   0.00000  Uiso   1.00
H301   H     0.30287   0.74447   0.08504   0.00000  Uiso   1.00
H302   H     0.32352   0.76580   0.03054   0.00000  Uiso   1.00
H303   H     0.20747   0.65909   0.49769   0.00000  Uiso   1.00
H304   H     0.18752   0.63413   0.43806   0.00000  Uiso   1.00
H305   H     0.19659   0.61003   0.18212   0.00000  Uiso   1.00
H306   H     0.16200   0.61452   0.49097   0.00000  Uiso   1.00
H307   H     0.20358   0.89001   0.32332   0.00000  Uiso   1.00
H308   H     0.19530   0.52932   0.18279   0.00000  Uiso   1.00
H309   H     0.20233   0.97076   0.32241   0.00000  Uiso   1.00
H310   H     0.23752   0.78324   0.13357   0.00000  Uiso   1.00
H311   H     0.13479   0.68555   0.37144   0.00000  Uiso   1.00
H312   H     0.09447   0.71815   0.11478   0.00000  Uiso   1.00
N313   N     0.16667   0.75001   0.12934   0.00000  Uiso   1.00
N314   N     0.16667   0.74999   0.37065   0.00000  Uiso   1.00
O315   O     0.16667   0.68572   0.29071   0.00000  Uiso   1.00
O316   O     0.01087   0.74065   0.31605   0.00000  Uiso   1.00
O317   O     0.12471   0.52566   0.32530   0.00000  Uiso   1.00
O318   O     0.11643   0.97382   0.16729   0.00000  Uiso   1.00
O319   O     0.25117   0.78454   0.04129   0.00000  Uiso   1.00
O320   O     0.13355   0.67430   0.46512   0.00000  Uiso   1.00
O321   O     0.16666   0.81427   0.20928   0.00000  Uiso   1.00
O322   O     0.16667   0.68573   0.20928   0.00000  Uiso   1.00
O323   O     0.16666   0.81427   0.29072   0.00000  Uiso   1.00
O324   O     0.09161   0.74999   0.28132   0.00000  Uiso   1.00
O325   O     0.24172   0.75000   0.21868   0.00000  Uiso   1.00
O326   O     0.09161   0.75000   0.19988   0.00000  Uiso   1.00
O327   O     0.24172   0.75000   0.30011   0.00000  Uiso   1.00
O328   O     0.32335   0.77096   0.18635   0.00000  Uiso   1.00
C329   C     0.49971   0.66492   0.24999   0.00000  Uiso   1.00
C330   C     0.51670   0.78672   0.44838   0.00000  Uiso   1.00
C331   C     0.50041   0.74991   0.02737   0.00000  Uiso   1.00
C332   C     0.50001   0.74956   0.47271   0.00000  Uiso   1.00
C333   C     0.40149   0.75143   0.23786   0.00000  Uiso   1.00
C334   C     0.59858   0.75136   0.26238   0.00000  Uiso   1.00
C335   C     0.34690   0.75784   0.23177   0.00000  Uiso   1.00
C336   C     0.65366   0.75164   0.26990   0.00000  Uiso   1.00
C337   C     0.47654   0.54776   0.28755   0.00000  Uiso   1.00
C338   C     0.47245   0.95181   0.20827   0.00000  Uiso   1.00
C339   C     0.47961   0.59391   0.28806   0.00000  Uiso   1.00
C340   C     0.49976   0.83504   0.24996   0.00000  Uiso   1.00
C341   C     0.47566   0.90567   0.20823   0.00000  Uiso   1.00
C342   C     0.49824   0.61664   0.24994   0.00000  Uiso   1.00
C343   C     0.49827   0.88321   0.24973   0.00000  Uiso   1.00
C344   C     0.51504   0.59301   0.21168   0.00000  Uiso   1.00
C345   C     0.51896   0.90695   0.29109   0.00000  Uiso   1.00
C346   C     0.51398   0.54707   0.21189   0.00000  Uiso   1.00
C347   C     0.51793   0.95287   0.29068   0.00000  Uiso   1.00
C348   C     0.49486   0.52415   0.24965   0.00000  Uiso   1.00
C349   C     0.49485   0.97560   0.24945   0.00000  Uiso   1.00
C350   C     0.66395   0.81704   0.18183   0.00000  Uiso   1.00
C351   C     0.54221   0.76719   0.05924   0.00000  Uiso   1.00
C352   C     0.34961   0.77929   0.34497   0.00000  Uiso   1.00
C353   C     0.40418   0.52746   0.31790   0.00000  Uiso   1.00
C354   C     0.39622   0.96982   0.16487   0.00000  Uiso   1.00
C355   C     0.62336   0.75236   0.04613   0.00000  Uiso   1.00
C356   C     0.50817   0.64460   0.47302   0.00000  Uiso   1.00
C357   C     0.48343   0.71218   0.44399   0.00000  Uiso   1.00
C358   C     0.54007   0.76811   0.10985   0.00000  Uiso   1.00
C359   C     0.48251   0.71381   0.39298   0.00000  Uiso   1.00
C360   C     0.45978   0.73231   0.09942   0.00000  Uiso   1.00
C361   C     0.51717   0.78602   0.39775   0.00000  Uiso   1.00
C362   C     0.45887   0.73261   0.04858   0.00000  Uiso   1.00
Cu363  Cu    0.50000   0.74999   0.29821   0.00000  Uiso   1.00
Cu364  Cu    0.50000   0.75000   0.20178   0.00000  Uiso   1.00
H365   H     0.46659   0.61187   0.31789   0.00000  Uiso   1.00
H366   H     0.53113   0.81472   0.38025   0.00000  Uiso   1.00
H367   H     0.42546   0.71965   0.02603   0.00000  Uiso   1.00
H368   H     0.52903   0.81651   0.46828   0.00000  Uiso   1.00
H369   H     0.37187   0.82625   0.18578   0.00000  Uiso   1.00
H370   H     0.64434   0.83550   0.20868   0.00000  Uiso   1.00
H371   H     0.64690   0.82754   0.14489   0.00000  Uiso   1.00
H372   H     0.64534   0.79108   0.35356   0.00000  Uiso   1.00
H373   H     0.36947   0.80629   0.32740   0.00000  Uiso   1.00
H374   H     0.37339   0.77131   0.37995   0.00000  Uiso   1.00
H375   H     0.38831   0.51240   0.28243   0.00000  Uiso   1.00
H376   H     0.45961   0.88746   0.17608   0.00000  Uiso   1.00
H377   H     0.39033   0.56199   0.32033   0.00000  Uiso   1.00
H378   H     0.38934   0.50804   0.34701   0.00000  Uiso   1.00
H379   H     0.38253   0.98308   0.19827   0.00000  Uiso   1.00
H380   H     0.38342   0.93493   0.15858   0.00000  Uiso   1.00
H381   H     0.37812   0.98965   0.13361   0.00000  Uiso   1.00
H382   H     0.61073   0.72172   0.02558   0.00000  Uiso   1.00
H383   H     0.63621   0.74447   0.08504   0.00000  Uiso   1.00
H384   H     0.65685   0.76580   0.03054   0.00000  Uiso   1.00
H385   H     0.54080   0.65909   0.49769   0.00000  Uiso   1.00
H386   H     0.52086   0.63413   0.43806   0.00000  Uiso   1.00
H387   H     0.52992   0.61003   0.18212   0.00000  Uiso   1.00
H388   H     0.49533   0.61452   0.49097   0.00000  Uiso   1.00
H389   H     0.53691   0.89001   0.32332   0.00000  Uiso   1.00
H390   H     0.52863   0.52932   0.18279   0.00000  Uiso   1.00
H391   H     0.53567   0.97076   0.32241   0.00000  Uiso   1.00
H392   H     0.57085   0.78324   0.13357   0.00000  Uiso   1.00
H393   H     0.46813   0.68555   0.37144   0.00000  Uiso   1.00
H394   H     0.42780   0.71815   0.11478   0.00000  Uiso   1.00
N395   N     0.50000   0.75001   0.12934   0.00000  Uiso   1.00
N396   N     0.50000   0.74999   0.37065   0.00000  Uiso   1.00
O397   O     0.50000   0.68572   0.29071   0.00000  Uiso   1.00
O398   O     0.34421   0.74065   0.31605   0.00000  Uiso   1.00
O399   O     0.45804   0.52566   0.32530   0.00000  Uiso   1.00
O400   O     0.44977   0.97382   0.16729   0.00000  Uiso   1.00
O401   O     0.58451   0.78454   0.04129   0.00000  Uiso   1.00
O402   O     0.46688   0.67430   0.46512   0.00000  Uiso   1.00
O403   O     0.50000   0.81427   0.20928   0.00000  Uiso   1.00
O404   O     0.50000   0.68573   0.20928   0.00000  Uiso   1.00
O405   O     0.50000   0.81427   0.29072   0.00000  Uiso   1.00
O406   O     0.42495   0.74999   0.28132   0.00000  Uiso   1.00
O407   O     0.57505   0.75000   0.21868   0.00000  Uiso   1.00
O408   O     0.42495   0.75000   0.19988   0.00000  Uiso   1.00
O409   O     0.57505   0.75000   0.30011   0.00000  Uiso   1.00
O410   O     0.65669   0.77096   0.18635   0.00000  Uiso   1.00
C411   C     0.83304   0.66492   0.24999   0.00000  Uiso   1.00
C412   C     0.85004   0.78672   0.44838   0.00000  Uiso   1.00
C413   C     0.83374   0.74991   0.02737   0.00000  Uiso   1.00
C414   C     0.83334   0.74956   0.47271   0.00000  Uiso   1.00
C415   C     0.73482   0.75143   0.23786   0.00000  Uiso   1.00
C416   C     0.93191   0.75136   0.26238   0.00000  Uiso   1.00
C417   C     0.68023   0.75784   0.23177   0.00000  Uiso   1.00
C418   C     0.98699   0.75164   0.26990   0.00000  Uiso   1.00
C419   C     0.80988   0.54776   0.28755   0.00000  Uiso   1.00
C420   C     0.80579   0.95181   0.20827   0.00000  Uiso   1.00
C421   C     0.81294   0.59391   0.28806   0.00000  Uiso   1.00
C422   C     0.83309   0.83504   0.24996   0.00000  Uiso   1.00
C423   C     0.80899   0.90567   0.20823   0.00000  Uiso   1.00
C424   C     0.83157   0.61664   0.24994   0.00000  Uiso   1.00
C425   C     0.83160   0.88321   0.24973   0.00000  Uiso   1.00
C426   C     0.84837   0.59301   0.21168   0.00000  Uiso   1.00
C427   C     0.85229   0.90695   0.29109   0.00000  Uiso   1.00
C428   C     0.84731   0.54707   0.21189   0.00000  Uiso   1.00
C429   C     0.85127   0.95287   0.29068   0.00000  Uiso   1.00
C430   C     0.82820   0.52415   0.24965   0.00000  Uiso   1.00
C431   C     0.82818   0.97560   0.24945   0.00000  Uiso   1.00
C432   C     0.99728   0.81704   0.18183   0.00000  Uiso   1.00
C433   C     0.87554   0.76719   0.05924   0.00000  Uiso   1.00
C434   C     0.68294   0.77929   0.34497   0.00000  Uiso   1.00
C435   C     0.73752   0.52746   0.31790   0.00000  Uiso   1.00
C436   C     0.72955   0.96982   0.16487   0.00000  Uiso   1.00
C437   C     0.95669   0.75236   0.04613   0.00000  Uiso   1.00
C438   C     0.84151   0.64460   0.47302   0.00000  Uiso   1.00
C439   C     0.81676   0.71218   0.44399   0.00000  Uiso   1.00
C440   C     0.87340   0.76811   0.10985   0.00000  Uiso   1.00
C441   C     0.81584   0.71381   0.39298   0.00000  Uiso   1.00
C442   C     0.79312   0.73231   0.09942   0.00000  Uiso   1.00
C443   C     0.85051   0.78602   0.39775   0.00000  Uiso   1.00
C444   C     0.79220   0.73261   0.04858   0.00000  Uiso   1.00
Cu445  Cu    0.83333   0.74999   0.29821   0.00000  Uiso   1.00
Cu446  Cu    0.83333   0.75000   0.20178   0.00000  Uiso   1.00
H447   H     0.79993   0.61187   0.31789   0.00000  Uiso   1.00
H448   H     0.86446   0.81472   0.38025   0.00000  Uiso   1.00
H449   H     0.75879   0.71965   0.02603   0.00000  Uiso   1.00
H450   H     0.86236   0.81651   0.46828   0.00000  Uiso   1.00
H451   H     0.70520   0.82625   0.18578   0.00000  Uiso   1.00
H452   H     0.97767   0.83550   0.20868   0.00000  Uiso   1.00
H453   H     0.98024   0.82754   0.14489   0.00000  Uiso   1.00
H454   H     0.97867   0.79108   0.35356   0.00000  Uiso   1.00
H455   H     0.70280   0.80629   0.32740   0.00000  Uiso   1.00
H456   H     0.70672   0.77131   0.37995   0.00000  Uiso   1.00
H457   H     0.72164   0.51240   0.28243   0.00000  Uiso   1.00
H458   H     0.79294   0.88746   0.17608   0.00000  Uiso   1.00
H459   H     0.72367   0.56199   0.32033   0.00000  Uiso   1.00
H460   H     0.72267   0.50804   0.34701   0.00000  Uiso   1.00
H461   H     0.71587   0.98308   0.19827   0.00000  Uiso   1.00
H462   H     0.71675   0.93493   0.15858   0.00000  Uiso   1.00
H463   H     0.71146   0.98965   0.13361   0.00000  Uiso   1.00
H464   H     0.94406   0.72172   0.02558   0.00000  Uiso   1.00
H465   H     0.96954   0.74447   0.08504   0.00000  Uiso   1.00
H466   H     0.99018   0.76580   0.03054   0.00000  Uiso   1.00
H467   H     0.87413   0.65909   0.49769   0.00000  Uiso   1.00
H468   H     0.85419   0.63413   0.43806   0.00000  Uiso   1.00
H469   H     0.86325   0.61003   0.18212   0.00000  Uiso   1.00
H470   H     0.82866   0.61452   0.49097   0.00000  Uiso   1.00
H471   H     0.87024   0.89001   0.32332   0.00000  Uiso   1.00
H472   H     0.86197   0.52932   0.18279   0.00000  Uiso   1.00
H473   H     0.86900   0.97076   0.32241   0.00000  Uiso   1.00
H474   H     0.90418   0.78324   0.13357   0.00000  Uiso   1.00
H475   H     0.80146   0.68555   0.37144   0.00000  Uiso   1.00
H476   H     0.76113   0.71815   0.11478   0.00000  Uiso   1.00
N477   N     0.83333   0.75001   0.12934   0.00000  Uiso   1.00
N478   N     0.83333   0.74999   0.37065   0.00000  Uiso   1.00
O479   O     0.83334   0.68572   0.29071   0.00000  Uiso   1.00
O480   O     0.67754   0.74065   0.31605   0.00000  Uiso   1.00
O481   O     0.79137   0.52566   0.32530   0.00000  Uiso   1.00
O482   O     0.78310   0.97382   0.16729   0.00000  Uiso   1.00
O483   O     0.91784   0.78454   0.04129   0.00000  Uiso   1.00
O484   O     0.80022   0.67430   0.46512   0.00000  Uiso   1.00
O485   O     0.83333   0.81427   0.20928   0.00000  Uiso   1.00
O486   O     0.83334   0.68573   0.20928   0.00000  Uiso   1.00
O487   O     0.83333   0.81427   0.29072   0.00000  Uiso   1.00
O488   O     0.75828   0.74999   0.28132   0.00000  Uiso   1.00
O489   O     0.90839   0.75000   0.21868   0.00000  Uiso   1.00
O490   O     0.75828   0.75000   0.19988   0.00000  Uiso   1.00
O491   O     0.90839   0.75000   0.30011   0.00000  Uiso   1.00
O492   O     0.99002   0.77096   0.18635   0.00000  Uiso   1.00
C493   C     0.16638   0.16492   0.74999   0.00000  Uiso   1.00
C494   C     0.18337   0.28672   0.94838   0.00000  Uiso   1.00
C495   C     0.16708   0.24991   0.52737   0.00000  Uiso   1.00
C496   C     0.16667   0.24956   0.97271   0.00000  Uiso   1.00
C497   C     0.06815   0.25143   0.73786   0.00000  Uiso   1.00
C498   C     0.26525   0.25136   0.76238   0.00000  Uiso   1.00
C499   C     0.01356   0.25784   0.73177   0.00000  Uiso   1.00
C500   C     0.32032   0.25164   0.76990   0.00000  Uiso   1.00
C501   C     0.14321   0.04776   0.78755   0.00000  Uiso   1.00
C502   C     0.13912   0.45181   0.70827   0.00000  Uiso   1.00
C503   C     0.14628   0.09391   0.78806   0.00000  Uiso   1.00
C504   C     0.16642   0.33504   0.74996   0.00000  Uiso   1.00
C505   C     0.14232   0.40567   0.70823   0.00000  Uiso   1.00
C506   C     0.16491   0.11664   0.74994   0.00000  Uiso   1.00
C507   C     0.16494   0.38321   0.74973   0.00000  Uiso   1.00
C508   C     0.18170   0.09301   0.71168   0.00000  Uiso   1.00
C509   C     0.18562   0.40695   0.79109   0.00000  Uiso   1.00
C510   C     0.18064   0.04707   0.71189   0.00000  Uiso   1.00
C511   C     0.18460   0.45287   0.79068   0.00000  Uiso   1.00
C512   C     0.16153   0.02415   0.74965   0.00000  Uiso   1.00
C513   C     0.16152   0.47560   0.74945   0.00000  Uiso   1.00
C514   C     0.33061   0.31704   0.68183   0.00000  Uiso   1.00
C515   C     0.20888   0.26719   0.55924   0.00000  Uiso   1.00
C516   C     0.01628   0.27929   0.84497   0.00000  Uiso   1.00
C517   C     0.07085   0.02746   0.81790   0.00000  Uiso   1.00
C518   C     0.06288   0.46982   0.66487   0.00000  Uiso   1.00
C519   C     0.29002   0.25236   0.54613   0.00000  Uiso   1.00
C520   C     0.17484   0.14460   0.97302   0.00000  Uiso   1.00
C521   C     0.15010   0.21218   0.94399   0.00000  Uiso   1.00
C522   C     0.20674   0.26811   0.60985   0.00000  Uiso   1.00
C523   C     0.14918   0.21381   0.89298   0.00000  Uiso   1.00
C524   C     0.12645   0.23231   0.59942   0.00000  Uiso   1.00
C525   C     0.18384   0.28602   0.89775   0.00000  Uiso   1.00
C526   C     0.12554   0.23261   0.54858   0.00000  Uiso   1.00
Cu527  Cu    0.16667   0.24999   0.79821   0.00000  Uiso   1.00
Cu528  Cu    0.16667   0.25000   0.70178   0.00000  Uiso   1.00
H529   H     0.13326   0.11187   0.81789   0.00000  Uiso   1.00
H530   H     0.19780   0.31472   0.88025   0.00000  Uiso   1.00
H531   H     0.09213   0.21965   0.52603   0.00000  Uiso   1.00
H532   H     0.19569   0.31651   0.96828   0.00000  Uiso   1.00
H533   H     0.03853   0.32625   0.68578   0.00000  Uiso   1.00
H534   H     0.31100   0.33550   0.70868   0.00000  Uiso   1.00
H535   H     0.31357   0.32754   0.64489   0.00000  Uiso   1.00
H536   H     0.31200   0.29108   0.85356   0.00000  Uiso   1.00
H537   H     0.03613   0.30629   0.82740   0.00000  Uiso   1.00
H538   H     0.04005   0.27131   0.87995   0.00000  Uiso   1.00
H539   H     0.05497   0.01240   0.78243   0.00000  Uiso   1.00
H540   H     0.12627   0.38746   0.67608   0.00000  Uiso   1.00
H541   H     0.05700   0.06199   0.82033   0.00000  Uiso   1.00
H542   H     0.05601   0.00804   0.84701   0.00000  Uiso   1.00
H543   H     0.04920   0.48308   0.69827   0.00000  Uiso   1.00
H544   H     0.05009   0.43493   0.65858   0.00000  Uiso   1.00
H545   H     0.04479   0.48965   0.63361   0.00000  Uiso   1.00
H546   H     0.27740   0.22172   0.52558   0.00000  Uiso   1.00
H547   H     0.30287   0.24447   0.58504   0.00000  Uiso   1.00
H548   H     0.32352   0.26580   0.53054   0.00000  Uiso   1.00
H549   H     0.20747   0.15909   0.99769   0.00000  Uiso   1.00
H550   H     0.18752   0.13413   0.93806   0.00000  Uiso   1.00
H551   H     0.19659   0.11003   0.68212   0.00000  Uiso   1.00
H552   H     0.16200   0.11452   0.99097   0.00000  Uiso   1.00
H553   H     0.20358   0.39001   0.82332   0.00000  Uiso   1.00
H554   H     0.19530   0.02932   0.68279   0.00000  Uiso   1.00
H555   H     0.20233   0.47076   0.82241   0.00000  Uiso   1.00
H556   H     0.23752   0.28324   0.63357   0.00000  Uiso   1.00
H557   H     0.13479   0.18555   0.87144   0.00000  Uiso   1.00
H558   H     0.09447   0.21815   0.61478   0.00000  Uiso   1.00
N559   N     0.16667   0.25001   0.62934   0.00000  Uiso   1.00
N560   N     0.16667   0.24999   0.87065   0.00000  Uiso   1.00
O561   O     0.16667   0.18572   0.79071   0.00000  Uiso   1.00
O562   O     0.01087   0.24065   0.81605   0.00000  Uiso   1.00
O563   O     0.12471   0.02566   0.82530   0.00000  Uiso   1.00
O564   O     0.11643   0.47382   0.66729   0.00000  Uiso   1.00
O565   O     0.25117   0.28454   0.54129   0.00000  Uiso   1.00
O566   O     0.13355   0.17430   0.96512   0.00000  Uiso   1.00
O567   O     0.16666   0.31427   0.70928   0.00000  Uiso   1.00
O568   O     0.16667   0.18573   0.70928   0.00000  Uiso   1.00
O569   O     0.16666   0.31427   0.79072   0.00000  Uiso   1.00
O570   O     0.09161   0.24999   0.78132   0.00000  Uiso   1.00
O571   O     0.24172   0.25000   0.71868   0.00000  Uiso   1.00
O572   O     0.09161   0.25000   0.69988   0.00000  Uiso   1.00
O573   O     0.24172   0.25000   0.80011   0.00000  Uiso   1.00
O574   O     0.32335   0.27096   0.68635   0.00000  Uiso   1.00
C575   C     0.49971   0.16492   0.74999   0.00000  Uiso   1.00
C576   C     0.51670   0.28672   0.94838   0.00000  Uiso   1.00
C577   C     0.50041   0.24991   0.52737   0.00000  Uiso   1.00
C578   C     0.50001   0.24956   0.97271   0.00000  Uiso   1.00
C579   C     0.40149   0.25143   0.73786   0.00000  Uiso   1.00
C580   C     0.59858   0.25136   0.76238   0.00000  Uiso   1.00
C581   C     0.34690   0.25784   0.73177   0.00000  Uiso   1.00
C582   C     0.65366   0.25164   0.76990   0.00000  Uiso   1.00
C583   C     0.47654   0.04776   0.78755   0.00000  Uiso   1.00
C584   C     0.47245   0.45181   0.70827   0.00000  Uiso   1.00
C585   C     0.47961   0.09391   0.78806   0.00000  Uiso   1.00
C586   C     0.49976   0.33504   0.74996   0.00000  Uiso   1.00
C587   C     0.47566   0.40567   0.70823   0.00000  Uiso   1.00
C588   C     0.49824   0.11664   0.74994   0.00000  Uiso   1.00
C589   C     0.49827   0.38321   0.74973   0.00000  Uiso   1.00
C590   C     0.51504   0.09301   0.71168   0.00000  Uiso   1.00
C591   C     0.51896   0.40695   0.79109   0.00000  Uiso   1.00
C592   C     0.51398   0.04707   0.71189   0.00000  Uiso   1.00
C593   C     0.51793   0.45287   0.79068   0.00000  Uiso   1.00
C594   C     0.49486   0.02415   0.74965   0.00000  Uiso   1.00
C595   C     0.49485   0.47560   0.74945   0.00000  Uiso   1.00
C596   C     0.66395   0.31704   0.68183   0.00000  Uiso   1.00
C597   C     0.54221   0.26719   0.55924   0.00000  Uiso   1.00
C598   C     0.34961   0.27929   0.84497   0.00000  Uiso   1.00
C599   C     0.40418   0.02746   0.81790   0.00000  Uiso   1.00
C600   C     0.39622   0.46982   0.66487   0.00000  Uiso   1.00
C601   C     0.62336   0.25236   0.54613   0.00000  Uiso   1.00
C602   C     0.50817   0.14460   0.97302   0.00000  Uiso   1.00
C603   C     0.48343   0.21218   0.94399   0.00000  Uiso   1.00
C604   C     0.54007   0.26811   0.60985   0.00000  Uiso   1.00
C605   C     0.48251   0.21381   0.89298   0.00000  Uiso   1.00
C606   C     0.45978   0.23231   0.59942   0.00000  Uiso   1.00
C607   C     0.51717   0.28602   0.89775   0.00000  Uiso   1.00
C608   C     0.45887   0.23261   0.54858   0.00000  Uiso   1.00
Cu609  Cu    0.50000   0.24999   0.79821   0.00000  Uiso   1.00
Cu610  Cu    0.50000   0.25000   0.70178   0.00000  Uiso   1.00
H611   H     0.46659   0.11187   0.81789   0.00000  Uiso   1.00
H612   H     0.53113   0.31472   0.88025   0.00000  Uiso   1.00
H613   H     0.42546   0.21965   0.52603   0.00000  Uiso   1.00
H614   H     0.52903   0.31651   0.96828   0.00000  Uiso   1.00
H615   H     0.37187   0.32625   0.68578   0.00000  Uiso   1.00
H616   H     0.64434   0.33550   0.70868   0.00000  Uiso   1.00
H617   H     0.64690   0.32754   0.64489   0.00000  Uiso   1.00
H618   H     0.64534   0.29108   0.85356   0.00000  Uiso   1.00
H619   H     0.36947   0.30629   0.82740   0.00000  Uiso   1.00
H620   H     0.37339   0.27131   0.87995   0.00000  Uiso   1.00
H621   H     0.38831   0.01240   0.78243   0.00000  Uiso   1.00
H622   H     0.45961   0.38746   0.67608   0.00000  Uiso   1.00
H623   H     0.39033   0.06199   0.82033   0.00000  Uiso   1.00
H624   H     0.38934   0.00804   0.84701   0.00000  Uiso   1.00
H625   H     0.38253   0.48308   0.69827   0.00000  Uiso   1.00
H626   H     0.38342   0.43493   0.65858   0.00000  Uiso   1.00
H627   H     0.37812   0.48965   0.63361   0.00000  Uiso   1.00
H628   H     0.61073   0.22172   0.52558   0.00000  Uiso   1.00
H629   H     0.63621   0.24447   0.58504   0.00000  Uiso   1.00
H630   H     0.65685   0.26580   0.53054   0.00000  Uiso   1.00
H631   H     0.54080   0.15909   0.99769   0.00000  Uiso   1.00
H632   H     0.52086   0.13413   0.93806   0.00000  Uiso   1.00
H633   H     0.52992   0.11003   0.68212   0.00000  Uiso   1.00
H634   H     0.49533   0.11452   0.99097   0.00000  Uiso   1.00
H635   H     0.53691   0.39001   0.82332   0.00000  Uiso   1.00
H636   H     0.52863   0.02932   0.68279   0.00000  Uiso   1.00
H637   H     0.53567   0.47076   0.82241   0.00000  Uiso   1.00
H638   H     0.57085   0.28324   0.63357   0.00000  Uiso   1.00
H639   H     0.46813   0.18555   0.87144   0.00000  Uiso   1.00
H640   H     0.42780   0.21815   0.61478   0.00000  Uiso   1.00
N641   N     0.50000   0.25001   0.62934   0.00000  Uiso   1.00
N642   N     0.50000   0.24999   0.87065   0.00000  Uiso   1.00
O643   O     0.50000   0.18572   0.79071   0.00000  Uiso   1.00
O644   O     0.34421   0.24065   0.81605   0.00000  Uiso   1.00
O645   O     0.45804   0.02566   0.82530   0.00000  Uiso   1.00
O646   O     0.44977   0.47382   0.66729   0.00000  Uiso   1.00
O647   O     0.58451   0.28454   0.54129   0.00000  Uiso   1.00
O648   O     0.46688   0.17430   0.96512   0.00000  Uiso   1.00
O649   O     0.50000   0.31427   0.70928   0.00000  Uiso   1.00
O650   O     0.50000   0.18573   0.70928   0.00000  Uiso   1.00
O651   O     0.50000   0.31427   0.79072   0.00000  Uiso   1.00
O652   O     0.42495   0.24999   0.78132   0.00000  Uiso   1.00
O653   O     0.57505   0.25000   0.71868   0.00000  Uiso   1.00
O654   O     0.42495   0.25000   0.69988   0.00000  Uiso   1.00
O655   O     0.57505   0.25000   0.80011   0.00000  Uiso   1.00
O656   O     0.65669   0.27096   0.68635   0.00000  Uiso   1.00
C657   C     0.83304   0.16492   0.74999   0.00000  Uiso   1.00
C658   C     0.85004   0.28672   0.94838   0.00000  Uiso   1.00
C659   C     0.83374   0.24991   0.52737   0.00000  Uiso   1.00
C660   C     0.83334   0.24956   0.97271   0.00000  Uiso   1.00
C661   C     0.73482   0.25143   0.73786   0.00000  Uiso   1.00
C662   C     0.93191   0.25136   0.76238   0.00000  Uiso   1.00
C663   C     0.68023   0.25784   0.73177   0.00000  Uiso   1.00
C664   C     0.98699   0.25164   0.76990   0.00000  Uiso   1.00
C665   C     0.80988   0.04776   0.78755   0.00000  Uiso   1.00
C666   C     0.80579   0.45181   0.70827   0.00000  Uiso   1.00
C667   C     0.81294   0.09391   0.78806   0.00000  Uiso   1.00
C668   C     0.83309   0.33504   0.74996   0.00000  Uiso   1.00
C669   C     0.80899   0.40567   0.70823   0.00000  Uiso   1.00
C670   C     0.83157   0.11664   0.74994   0.00000  Uiso   1.00
C671   C     0.83160   0.38321   0.74973   0.00000  Uiso   1.00
C672   C     0.84837   0.09301   0.71168   0.00000  Uiso   1.00
C673   C     0.85229   0.40695   0.79109   0.00000  Uiso   1.00
C674   C     0.84731   0.04707   0.71189   0.00000  Uiso   1.00
C675   C     0.85127   0.45287   0.79068   0.00000  Uiso   1.00
C676   C     0.82820   0.02415   0.74965   0.00000  Uiso   1.00
C677   C     0.82818   0.47560   0.74945   0.00000  Uiso   1.00
C678   C     0.99728   0.31704   0.68183   0.00000  Uiso   1.00
C679   C     0.87554   0.26719   0.55924   0.00000  Uiso   1.00
C680   C     0.68294   0.27929   0.84497   0.00000  Uiso   1.00
C681   C     0.73752   0.02746   0.81790   0.00000  Uiso   1.00
C682   C     0.72955   0.46982   0.66487   0.00000  Uiso   1.00
C683   C     0.95669   0.25236   0.54613   0.00000  Uiso   1.00
C684   C     0.84151   0.14460   0.97302   0.00000  Uiso   1.00
C685   C     0.81676   0.21218   0.94399   0.00000  Uiso   1.00
C686   C     0.87340   0.26811   0.60985   0.00000  Uiso   1.00
C687   C     0.81584   0.21381   0.89298   0.00000  Uiso   1.00
C688   C     0.79312   0.23231   0.59942   0.00000  Uiso   1.00
C689   C     0.85051   0.28602   0.89775   0.00000  Uiso   1.00
C690   C     0.79220   0.23261   0.54858   0.00000  Uiso   1.00
Cu691  Cu    0.83333   0.24999   0.79821   0.00000  Uiso   1.00
Cu692  Cu    0.83333   0.25000   0.70178   0.00000  Uiso   1.00
H693   H     0.79993   0.11187   0.81789   0.00000  Uiso   1.00
H694   H     0.86446   0.31472   0.88025   0.00000  Uiso   1.00
H695   H     0.75879   0.21965   0.52603   0.00000  Uiso   1.00
H696   H     0.86236   0.31651   0.96828   0.00000  Uiso   1.00
H697   H     0.70520   0.32625   0.68578   0.00000  Uiso   1.00
H698   H     0.97767   0.33550   0.70868   0.00000  Uiso   1.00
H699   H     0.98024   0.32754   0.64489   0.00000  Uiso   1.00
H700   H     0.97867   0.29108   0.85356   0.00000  Uiso   1.00
H701   H     0.70280   0.30629   0.82740   0.00000  Uiso   1.00
H702   H     0.70672   0.27131   0.87995   0.00000  Uiso   1.00
H703   H     0.72164   0.01240   0.78243   0.00000  Uiso   1.00
H704   H     0.79294   0.38746   0.67608   0.00000  Uiso   1.00
H705   H     0.72367   0.06199   0.82033   0.00000  Uiso   1.00
H706   H     0.72267   0.00804   0.84701   0.00000  Uiso   1.00
H707   H     0.71587   0.48308   0.69827   0.00000  Uiso   1.00
H708   H     0.71675   0.43493   0.65858   0.00000  Uiso   1.00
H709   H     0.71146   0.48965   0.63361   0.00000  Uiso   1.00
H710   H     0.94406   0.22172   0.52558   0.00000  Uiso   1.00
H711   H     0.96954   0.24447   0.58504   0.00000  Uiso   1.00
H712   H     0.99018   0.26580   0.53054   0.00000  Uiso   1.00
H713   H     0.87413   0.15909   0.99769   0.00000  Uiso   1.00
H714   H     0.85419   0.13413   0.93806   0.00000  Uiso   1.00
H715   H     0.86325   0.11003   0.68212   0.00000  Uiso   1.00
H716   H     0.82866   0.11452   0.99097   0.00000  Uiso   1.00
H717   H     0.87024   0.39001   0.82332   0.00000  Uiso   1.00
H718   H     0.86197   0.02932   0.68279   0.00000  Uiso   1.00
H719   H     0.86900   0.47076   0.82241   0.00000  Uiso   1.00
H720   H     0.90418   0.28324   0.63357   0.00000  Uiso   1.00
H721   H     0.80146   0.18555   0.87144   0.00000  Uiso   1.00
H722   H     0.76113   0.21815   0.61478   0.00000  Uiso   1.00
N723   N     0.83333   0.25001   0.62934   0.00000  Uiso   1.00
N724   N     0.83333   0.24999   0.87065   0.00000  Uiso   1.00
O725   O     0.83334   0.18572   0.79071   0.00000  Uiso   1.00
O726   O     0.67754   0.24065   0.81605   0.00000  Uiso   1.00
O727   O     0.79137   0.02566   0.82530   0.00000  Uiso   1.00
O728   O     0.78310   0.47382   0.66729   0.00000  Uiso   1.00
O729   O     0.91784   0.28454   0.54129   0.00000  Uiso   1.00
O730   O     0.80022   0.17430   0.96512   0.00000  Uiso   1.00
O731   O     0.83333   0.31427   0.70928   0.00000  Uiso   1.00
O732   O     0.83334   0.18573   0.70928   0.00000  Uiso   1.00
O733   O     0.83333   0.31427   0.79072   0.00000  Uiso   1.00
O734   O     0.75828   0.24999   0.78132   0.00000  Uiso   1.00
O735   O     0.90839   0.25000   0.71868   0.00000  Uiso   1.00
O736   O     0.75828   0.25000   0.69988   0.00000  Uiso   1.00
O737   O     0.90839   0.25000   0.80011   0.00000  Uiso   1.00
O738   O     0.99002   0.27096   0.68635   0.00000  Uiso   1.00
C739   C     0.16638   0.66492   0.74999   0.00000  Uiso   1.00
C740   C     0.18337   0.78672   0.94838   0.00000  Uiso   1.00
C741   C     0.16708   0.74991   0.52737   0.00000  Uiso   1.00
C742   C     0.16667   0.74956   0.97271   0.00000  Uiso   1.00
C743   C     0.06815   0.75143   0.73786   0.00000  Uiso   1.00
C744   C     0.26525   0.75136   0.76238   0.00000  Uiso   1.00
C745   C     0.01356   0.75784   0.73177   0.00000  Uiso   1.00
C746   C     0.32032   0.75164   0.76990   0.00000  Uiso   1.00
C747   C     0.14321   0.54776   0.78755   0.00000  Uiso   1.00
C748   C     0.13912   0.95181   0.70827   0.00000  Uiso   1.00
C749   C     0.14628   0.59391   0.78806   0.00000  Uiso   1.00
C750   C     0.16642   0.83504   0.74996   0.00000  Uiso   1.00
C751   C     0.14232   0.90567   0.70823   0.00000  Uiso   1.00
C752   C     0.16491   0.61664   0.74994   0.00000  Uiso   1.00
C753   C     0.16494   0.88321   0.74973   0.00000  Uiso   1.00
C754   C     0.18170   0.59301   0.71168   0.00000  Uiso   1.00
C755   C     0.18562   0.90695   0.79109   0.00000  Uiso   1.00
C756   C     0.18064   0.54707   0.71189   0.00000  Uiso   1.00
C757   C     0.18460   0.95287   0.79068   0.00000  Uiso   1.00
C758   C     0.16153   0.52415   0.74965   0.00000  Uiso   1.00
C759   C     0.16152   0.97560   0.74945   0.00000  Uiso   1.00
C760   C     0.33061   0.81704   0.68183   0.00000  Uiso   1.00
C761   C     0.20888   0.76719   0.55924   0.00000  Uiso   1.00
C762   C     0.01628   0.77929   0.84497   0.00000  Uiso   1.00
C763   C     0.07085   0.52746   0.81790   0.00000  Uiso   1.00
C764   C     0.06288   0.96982   0.66487   0.00000  Uiso   1.00
C765   C     0.29002   0.75236   0.54613   0.00000  Uiso   1.00
C766   C     0.17484   0.64460   0.97302   0.00000  Uiso   1.00
C767   C     0.15010   0.71218   0.94399   0.00000  Uiso   1.00
C768   C     0.20674   0.76811   0.60985   0.00000  Uiso   1.00
C769   C     0.14918   0.71381   0.89298   0.00000  Uiso   1.00
C770   C     0.12645   0.73231   0.59942   0.00000  Uiso   1.00
C771   C     0.18384   0.78602   0.89775   0.00000  Uiso   1.00
C772   C     0.12554   0.73261   0.54858   0.00000  Uiso   1.00
Cu773  Cu    0.16667   0.74999   0.79821   0.00000  Uiso   1.00
Cu774  Cu    0.16667   0.75000   0.70178   0.00000  Uiso   1.00
H775   H     0.13326   0.61187   0.81789   0.00000  Uiso   1.00
H776   H     0.19780   0.81472   0.88025   0.00000  Uiso   1.00
H777   H     0.09213   0.71965   0.52603   0.00000  Uiso   1.00
H778   H     0.19569   0.81651   0.96828   0.00000  Uiso   1.00
H779   H     0.03853   0.82625   0.68578   0.00000  Uiso   1.00
H780   H     0.31100   0.83550   0.70868   0.00000  Uiso   1.00
H781   H     0.31357   0.82754   0.64489   0.00000  Uiso   1.00
H782   H     0.31200   0.79108   0.85356   0.00000  Uiso   1.00
H783   H     0.03613   0.80629   0.82740   0.00000  Uiso   1.00
H784   H     0.04005   0.77131   0.87995   0.00000  Uiso   1.00
H785   H     0.05497   0.51240   0.78243   0.00000  Uiso   1.00
H786   H     0.12627   0.88746   0.67608   0.00000  Uiso   1.00
H787   H     0.05700   0.56199   0.82033   0.00000  Uiso   1.00
H788   H     0.05601   0.50804   0.84701   0.00000  Uiso   1.00
H789   H     0.04920   0.98308   0.69827   0.00000  Uiso   1.00
H790   H     0.05009   0.93493   0.65858   0.00000  Uiso   1.00
H791   H     0.04479   0.98965   0.63361   0.00000  Uiso   1.00
H792   H     0.27740   0.72172   0.52558   0.00000  Uiso   1.00
H793   H     0.30287   0.74447   0.58504   0.00000  Uiso   1.00
H794   H     0.32352   0.76580   0.53054   0.00000  Uiso   1.00
H795   H     0.20747   0.65909   0.99769   0.00000  Uiso   1.00
H796   H     0.18752   0.63413   0.93806   0.00000  Uiso   1.00
H797   H     0.19659   0.61003   0.68212   0.00000  Uiso   1.00
H798   H     0.16200   0.61452   0.99097   0.00000  Uiso   1.00
H799   H     0.20358   0.89001   0.82332   0.00000  Uiso   1.00
H800   H     0.19530   0.52932   0.68279   0.00000  Uiso   1.00
H801   H     0.20233   0.97076   0.82241   0.00000  Uiso   1.00
H802   H     0.23752   0.78324   0.63357   0.00000  Uiso   1.00
H803   H     0.13479   0.68555   0.87144   0.00000  Uiso   1.00
H804   H     0.09447   0.71815   0.61478   0.00000  Uiso   1.00
N805   N     0.16667   0.75001   0.62934   0.00000  Uiso   1.00
N806   N     0.16667   0.74999   0.87065   0.00000  Uiso   1.00
O807   O     0.16667   0.68572   0.79071   0.00000  Uiso   1.00
O808   O     0.01087   0.74065   0.81605   0.00000  Uiso   1.00
O809   O     0.12471   0.52566   0.82530   0.00000  Uiso   1.00
O810   O     0.11643   0.97382   0.66729   0.00000  Uiso   1.00
O811   O     0.25117   0.78454   0.54129   0.00000  Uiso   1.00
O812   O     0.13355   0.67430   0.96512   0.00000  Uiso   1.00
O813   O     0.16666   0.81427   0.70928   0.00000  Uiso   1.00
O814   O     0.16667   0.68573   0.70928   0.00000  Uiso   1.00
O815   O     0.16666   0.81427   0.79072   0.00000  Uiso   1.00
O816   O     0.09161   0.74999   0.78132   0.00000  Uiso   1.00
O817   O     0.24172   0.75000   0.71868   0.00000  Uiso   1.00
O818   O     0.09161   0.75000   0.69988   0.00000  Uiso   1.00
O819   O     0.24172   0.75000   0.80011   0.00000  Uiso   1.00
O820   O     0.32335   0.77096   0.68635   0.00000  Uiso   1.00
C821   C     0.49971   0.66492   0.74999   0.00000  Uiso   1.00
C822   C     0.51670   0.78672   0.94838   0.00000  Uiso   1.00
C823   C     0.50041   0.74991   0.52737   0.00000  Uiso   1.00
C824   C     0.50001   0.74956   0.97271   0.00000  Uiso   1.00
C825   C     0.40149   0.75143   0.73786   0.00000  Uiso   1.00
C826   C     0.59858   0.75136   0.76238   0.00000  Uiso   1.00
C827   C     0.34690   0.75784   0.73177   0.00000  Uiso   1.00
C828   C     0.65366   0.75164   0.76990   0.00000  Uiso   1.00
C829   C     0.47654   0.54776   0.78755   0.00000  Uiso   1.00
C830   C     0.47245   0.95181   0.70827   0.00000  Uiso   1.00
C831   C     0.47961   0.59391   0.78806   0.00000  Uiso   1.00
C832   C     0.49976   0.83504   0.74996   0.00000  Uiso   1.00
C833   C     0.47566   0.90567   0.70823   0.00000  Uiso   1.00
C834   C     0.49824   0.61664   0.74994   0.00000  Uiso   1.00
C835   C     0.49827   0.88321   0.74973   0.00000  Uiso   1.00
C836   C     0.51504   0.59301   0.71168   0.00000  Uiso   1.00
C837   C     0.51896   0.90695   0.79109   0.00000  Uiso   1.00
C838   C     0.51398   0.54707   0.71189   0.00000  Uiso   1.00
C839   C     0.51793   0.95287   0.79068   0.00000  Uiso   1.00
C840   C     0.49486   0.52415   0.74965   0.00000  Uiso   1.00
C841   C     0.49485   0.97560   0.74945   0.00000  Uiso   1.00
C842   C     0.66395   0.81704   0.68183   0.00000  Uiso   1.00
C843   C     0.54221   0.76719   0.55924   0.00000  Uiso   1.00
C844   C     0.34961   0.77929   0.84497   0.00000  Uiso   1.00
C845   C     0.40418   0.52746   0.81790   0.00000  Uiso   1.00
C846   C     0.39622   0.96982   0.66487   0.00000  Uiso   1.00
C847   C     0.62336   0.75236   0.54613   0.00000  Uiso   1.00
C848   C     0.50817   0.64460   0.97302   0.00000  Uiso   1.00
C849   C     0.48343   0.71218   0.94399   0.00000  Uiso   1.00
C850   C     0.54007   0.76811   0.60985   0.00000  Uiso   1.00
C851   C     0.48251   0.71381   0.89298   0.00000  Uiso   1.00
C852   C     0.45978   0.73231   0.59942   0.00000  Uiso   1.00
C853   C     0.51717   0.78602   0.89775   0.00000  Uiso   1.00
C854   C     0.45887   0.73261   0.54858   0.00000  Uiso   1.00
Cu855  Cu    0.50000   0.74999   0.79821   0.00000  Uiso   1.00
Cu856  Cu    0.50000   0.75000   0.70178   0.00000  Uiso   1.00
H857   H     0.46659   0.61187   0.81789   0.00000  Uiso   1.00
H858   H     0.53113   0.81472   0.88025   0.00000  Uiso   1.00
H859   H     0.42546   0.71965   0.52603   0.00000  Uiso   1.00
H860   H     0.52903   0.81651   0.96828   0.00000  Uiso   1.00
H861   H     0.37187   0.82625   0.68578   0.00000  Uiso   1.00
H862   H     0.64434   0.83550   0.70868   0.00000  Uiso   1.00
H863   H     0.64690   0.82754   0.64489   0.00000  Uiso   1.00
H864   H     0.64534   0.79108   0.85356   0.00000  Uiso   1.00
H865   H     0.36947   0.80629   0.82740   0.00000  Uiso   1.00
H866   H     0.37339   0.77131   0.87995   0.00000  Uiso   1.00
H867   H     0.38831   0.51240   0.78243   0.00000  Uiso   1.00
H868   H     0.45961   0.88746   0.67608   0.00000  Uiso   1.00
H869   H     0.39033   0.56199   0.82033   0.00000  Uiso   1.00
H870   H     0.38934   0.50804   0.84701   0.00000  Uiso   1.00
H871   H     0.38253   0.98308   0.69827   0.00000  Uiso   1.00
H872   H     0.38342   0.93493   0.65858   0.00000  Uiso   1.00
H873   H     0.37812   0.98965   0.63361   0.00000  Uiso   1.00
H874   H     0.61073   0.72172   0.52558   0.00000  Uiso   1.00
H875   H     0.63621   0.74447   0.58504   0.00000  Uiso   1.00
H876   H     0.65685   0.76580   0.53054   0.00000  Uiso   1.00
H877   H     0.54080   0.65909   0.99769   0.00000  Uiso   1.00
H878   H     0.52086   0.63413   0.93806   0.00000  Uiso   1.00
H879   H     0.52992   0.61003   0.68212   0.00000  Uiso   1.00
H880   H     0.49533   0.61452   0.99097   0.00000  Uiso   1.00
H881   H     0.53691   0.89001   0.82332   0.00000  Uiso   1.00
H882   H     0.52863   0.52932   0.68279   0.00000  Uiso   1.00
H883   H     0.53567   0.97076   0.82241   0.00000  Uiso   1.00
H884   H     0.57085   0.78324   0.63357   0.00000  Uiso   1.00
H885   H     0.46813   0.68555   0.87144   0.00000  Uiso   1.00
H886   H     0.42780   0.71815   0.61478   0.00000  Uiso   1.00
N887   N     0.50000   0.75001   0.62934   0.00000  Uiso   1.00
N888   N     0.50000   0.74999   0.87065   0.00000  Uiso   1.00
O889   O     0.50000   0.68572   0.79071   0.00000  Uiso   1.00
O890   O     0.34421   0.74065   0.81605   0.00000  Uiso   1.00
O891   O     0.45804   0.52566   0.82530   0.00000  Uiso   1.00
O892   O     0.44977   0.97382   0.66729   0.00000  Uiso   1.00
O893   O     0.58451   0.78454   0.54129   0.00000  Uiso   1.00
O894   O     0.46688   0.67430   0.96512   0.00000  Uiso   1.00
O895   O     0.50000   0.81427   0.70928   0.00000  Uiso   1.00
O896   O     0.50000   0.68573   0.70928   0.00000  Uiso   1.00
O897   O     0.50000   0.81427   0.79072   0.00000  Uiso   1.00
O898   O     0.42495   0.74999   0.78132   0.00000  Uiso   1.00
O899   O     0.57505   0.75000   0.71868   0.00000  Uiso   1.00
O900   O     0.42495   0.75000   0.69988   0.00000  Uiso   1.00
O901   O     0.57505   0.75000   0.80011   0.00000  Uiso   1.00
O902   O     0.65669   0.77096   0.68635   0.00000  Uiso   1.00
C903   C     0.83304   0.66492   0.74999   0.00000  Uiso   1.00
C904   C     0.85004   0.78672   0.94838   0.00000  Uiso   1.00
C905   C     0.83374   0.74991   0.52737   0.00000  Uiso   1.00
C906   C     0.83334   0.74956   0.97271   0.00000  Uiso   1.00
C907   C     0.73482   0.75143   0.73786   0.00000  Uiso   1.00
C908   C     0.93191   0.75136   0.76238   0.00000  Uiso   1.00
C909   C     0.68023   0.75784   0.73177   0.00000  Uiso   1.00
C910   C     0.98699   0.75164   0.76990   0.00000  Uiso   1.00
C911   C     0.80988   0.54776   0.78755   0.00000  Uiso   1.00
C912   C     0.80579   0.95181   0.70827   0.00000  Uiso   1.00
C913   C     0.81294   0.59391   0.78806   0.00000  Uiso   1.00
C914   C     0.83309   0.83504   0.74996   0.00000  Uiso   1.00
C915   C     0.80899   0.90567   0.70823   0.00000  Uiso   1.00
C916   C     0.83157   0.61664   0.74994   0.00000  Uiso   1.00
C917   C     0.83160   0.88321   0.74973   0.00000  Uiso   1.00
C918   C     0.84837   0.59301   0.71168   0.00000  Uiso   1.00
C919   C     0.85229   0.90695   0.79109   0.00000  Uiso   1.00
C920   C     0.84731   0.54707   0.71189   0.00000  Uiso   1.00
C921   C     0.85127   0.95287   0.79068   0.00000  Uiso   1.00
C922   C     0.82820   0.52415   0.74965   0.00000  Uiso   1.00
C923   C     0.82818   0.97560   0.74945   0.00000  Uiso   1.00
C924   C     0.99728   0.81704   0.68183   0.00000  Uiso   1.00
C925   C     0.87554   0.76719   0.55924   0.00000  Uiso   1.00
C926   C     0.68294   0.77929   0.84497   0.00000  Uiso   1.00
C927   C     0.73752   0.52746   0.81790   0.00000  Uiso   1.00
C928   C     0.72955   0.96982   0.66487   0.00000  Uiso   1.00
C929   C     0.95669   0.75236   0.54613   0.00000  Uiso   1.00
C930   C     0.84151   0.64460   0.97302   0.00000  Uiso   1.00
C931   C     0.81676   0.71218   0.94399   0.00000  Uiso   1.00
C932   C     0.87340   0.76811   0.60985   0.00000  Uiso   1.00
C933   C     0.81584   0.71381   0.89298   0.00000  Uiso   1.00
C934   C     0.79312   0.73231   0.59942   0.00000  Uiso   1.00
C935   C     0.85051   0.78602   0.89775   0.00000  Uiso   1.00
C936   C     0.79220   0.73261   0.54858   0.00000  Uiso   1.00
Cu937  Cu    0.83333   0.74999   0.79821   0.00000  Uiso   1.00
Cu938  Cu    0.83333   0.75000   0.70178   0.00000  Uiso   1.00
H939   H     0.79993   0.61187   0.81789   0.00000  Uiso   1.00
H940   H     0.86446   0.81472   0.88025   0.00000  Uiso   1.00
H941   H     0.75879   0.71965   0.52603   0.00000  Uiso   1.00
H942   H     0.86236   0.81651   0.96828   0.00000  Uiso   1.00
H943   H     0.70520   0.82625   0.68578   0.00000  Uiso   1.00
H944   H     0.97767   0.83550   0.70868   0.00000  Uiso   1.00
H945   H     0.98024   0.82754   0.64489   0.00000  Uiso   1.00
H946   H     0.97867   0.79108   0.85356   0.00000  Uiso   1.00
H947   H     0.70280   0.80629   0.82740   0.00000  Uiso   1.00
H948   H     0.70672   0.77131   0.87995   0.00000  Uiso   1.00
H949   H     0.72164   0.51240   0.78243   0.00000  Uiso   1.00
H950   H     0.79294   0.88746   0.67608   0.00000  Uiso   1.00
H951   H     0.72367   0.56199   0.82033   0.00000  Uiso   1.00
H952   H     0.72267   0.50804   0.84701   0.00000  Uiso   1.00
H953   H     0.71587   0.98308   0.69827   0.00000  Uiso   1.00
H954   H     0.71675   0.93493   0.65858   0.00000  Uiso   1.00
H955   H     0.71146   0.98965   0.63361   0.00000  Uiso   1.00
H956   H     0.94406   0.72172   0.52558   0.00000  Uiso   1.00
H957   H     0.96954   0.74447   0.58504   0.00000  Uiso   1.00
H958   H     0.99018   0.76580   0.53054   0.00000  Uiso   1.00
H959   H     0.87413   0.65909   0.99769   0.00000  Uiso   1.00
H960   H     0.85419   0.63413   0.93806   0.00000  Uiso   1.00
H961   H     0.86325   0.61003   0.68212   0.00000  Uiso   1.00
H962   H     0.82866   0.61452   0.99097   0.00000  Uiso   1.00
H963   H     0.87024   0.89001   0.82332   0.00000  Uiso   1.00
H964   H     0.86197   0.52932   0.68279   0.00000  Uiso   1.00
H965   H     0.86900   0.97076   0.82241   0.00000  Uiso   1.00
H966   H     0.90418   0.78324   0.63357   0.00000  Uiso   1.00
H967   H     0.80146   0.68555   0.87144   0.00000  Uiso   1.00
H968   H     0.76113   0.71815   0.61478   0.00000  Uiso   1.00
N969   N     0.83333   0.75001   0.62934   0.00000  Uiso   1.00
N970   N     0.83333   0.74999   0.87065   0.00000  Uiso   1.00
O971   O     0.83334   0.68572   0.79071   0.00000  Uiso   1.00
O972   O     0.67754   0.74065   0.81605   0.00000  Uiso   1.00
O973   O     0.79137   0.52566   0.82530   0.00000  Uiso   1.00
O974   O     0.78310   0.97382   0.66729   0.00000  Uiso   1.00
O975   O     0.91784   0.78454   0.54129   0.00000  Uiso   1.00
O976   O     0.80022   0.67430   0.96512   0.00000  Uiso   1.00
O977   O     0.83333   0.81427   0.70928   0.00000  Uiso   1.00
O978   O     0.83334   0.68573   0.70928   0.00000  Uiso   1.00
O979   O     0.83333   0.81427   0.79072   0.00000  Uiso   1.00
O980   O     0.75828   0.74999   0.78132   0.00000  Uiso   1.00
O981   O     0.90839   0.75000   0.71868   0.00000  Uiso   1.00
O982   O     0.75828   0.75000   0.69988   0.00000  Uiso   1.00
O983   O     0.90839   0.75000   0.80011   0.00000  Uiso   1.00
O984   O     0.99002   0.77096   0.68635   0.00000  Uiso   1.00
loop_
_geom_bond_atom_site_label_1
_geom_bond_atom_site_label_2
_geom_bond_distance
_geom_bond_site_symmetry_2
_ccdc_geom_bond_type
C1     O69     1.292   .     A
C1     O76     1.293   .     A
C1     C14     1.460   .     S
C2     C4      1.408   .     A
C2     C33     1.406   .     A
C2     H40     1.082   .     S
C3     C23     1.416   .     A
C3     C34     1.409   .     A
C3     C496    1.514   1_554 S
C4     C29     1.416   .     A
C4     C495    1.514   .     S
C5     C7      1.442   .     S
C5     O80     1.291   .     A
C5     O78     1.280   .     A
C6     O81     1.286   .     A
C6     C8      1.440   .     S
C6     O79     1.286   .     A
C7     C172    1.356   1_455 S
C7     O246    1.386   1_455 S
C8     C89     1.356   .     S
C8     O152    1.390   .     S
C9     C20     1.409   .     A
C9     C11     1.397   .     A
C9     O71     1.383   .     S
C10    C21     1.409   .     A
C10    C13     1.398   .     A
C10    O72     1.383   .     S
C11    C14     1.402   .     A
C11    H37     1.083   .     S
C12    C15     1.457   .     S
C12    O77     1.292   .     A
C12    O75     1.291   .     A
C13    C15     1.400   .     A
C13    H48     1.084   .     S
C14    C16     1.400   .     A
C15    C17     1.399   .     A
C16    H59     1.083   .     S
C16    C18     1.389   .     A
C17    H61     1.083   .     S
C17    C19     1.389   .     A
C18    H62     1.083   .     S
C18    C20     1.402   .     A
C19    C21     1.402   .     A
C19    H63     1.083   .     S
C20    C267    1.468   1_545 S
C21    C266    1.468   .     S
C22    O82     1.413   .     S
C22    H43     1.109   .     S
C22    H42     1.113   .     S
C22    H123    1.113   .     S
C23    O73     1.382   .     S
C23    C30     1.412   .     A
C24    O70     1.413   .     S
C24    H45     1.114   .     S
C24    H46     1.110   .     S
C24    H208    1.111   1_455 S
C25    H50     1.109   .     S
C25    O71     1.410   .     S
C25    H47     1.113   .     S
C25    H49     1.113   .     S
C26    O72     1.410   .     S
C26    H52     1.113   .     S
C26    H53     1.109   .     S
C26    H51     1.113   .     S
C27    H54     1.114   .     S
C27    H55     1.113   .     S
C27    H56     1.109   .     S
C27    O73     1.410   .     S
C28    O74     1.409   .     S
C28    H57     1.114   .     S
C28    H60     1.109   .     S
C28    H58     1.113   .     S
C29    O74     1.381   .     S
C29    C31     1.412   .     A
C30    H64     1.075   .     S
C30    N67     1.362   .     A
C31    H65     1.080   .     S
C31    N68     1.365   .     A
C32    C34     1.406   .     A
C32    N67     1.364   .     A
C32    H66     1.081   .     S
C33    H38     1.080   .     S
C33    N68     1.364   .     A
C34    H39     1.082   .     S
Cu35   Cu36    2.673   .     S
Cu35   O81     1.974   .     S
Cu35   O77     1.954   .     S
Cu35   O78     1.973   .     S
Cu35   N68     2.008   .     S
Cu35   O69     1.954   .     S
Cu36   O76     1.954   .     S
Cu36   N67     2.008   .     S
Cu36   O80     1.974   .     S
Cu36   O75     1.954   .     S
Cu36   O79     1.973   .     S
H41    C186    1.113   1_455 S
H44    C106    1.111   .     S
O70    C172    1.390   1_455 S
O82    C89     1.386   .     S
C83    O151    1.292   .     A
C83    O158    1.293   .     A
C83    C96     1.460   .     S
C84    C86     1.408   .     A
C84    C115    1.406   .     A
C84    H122    1.082   .     S
C85    C105    1.416   .     A
C85    C116    1.409   .     A
C85    C578    1.514   1_554 S
C86    C111    1.416   .     A
C86    C577    1.514   .     S
C87    C89     1.442   .     S
C87    O162    1.291   .     A
C87    O160    1.280   .     A
C88    O163    1.286   .     A
C88    C90     1.440   .     S
C88    O161    1.286   .     A
C90    C171    1.356   .     S
C90    O234    1.390   .     S
C91    C102    1.409   .     A
C91    C93     1.397   .     A
C91    O153    1.383   .     S
C92    C103    1.409   .     A
C92    C95     1.398   .     A
C92    O154    1.383   .     S
C93    C96     1.402   .     A
C93    H119    1.083   .     S
C94    C97     1.457   .     S
C94    O159    1.292   .     A
C94    O157    1.291   .     A
C95    C97     1.400   .     A
C95    H130    1.084   .     S
C96    C98     1.400   .     A
C97    C99     1.399   .     A
C98    H141    1.083   .     S
C98    C100    1.389   .     A
C99    H143    1.083   .     S
C99    C101    1.389   .     A
C100   H144    1.083   .     S
C100   C102    1.402   .     A
C101   C103    1.402   .     A
C101   H145    1.083   .     S
C102   C349    1.468   1_545 S
C103   C348    1.468   .     S
C104   O164    1.413   .     S
C104   H125    1.109   .     S
C104   H124    1.113   .     S
C104   H205    1.113   .     S
C105   O155    1.382   .     S
C105   C112    1.412   .     A
C106   O152    1.413   .     S
C106   H127    1.114   .     S
C106   H128    1.110   .     S
C107   H132    1.109   .     S
C107   O153    1.410   .     S
C107   H129    1.113   .     S
C107   H131    1.113   .     S
C108   O154    1.410   .     S
C108   H134    1.113   .     S
C108   H135    1.109   .     S
C108   H133    1.113   .     S
C109   H136    1.114   .     S
C109   H137    1.113   .     S
C109   H138    1.109   .     S
C109   O155    1.410   .     S
C110   O156    1.409   .     S
C110   H139    1.114   .     S
C110   H142    1.109   .     S
C110   H140    1.113   .     S
C111   O156    1.381   .     S
C111   C113    1.412   .     A
C112   H146    1.075   .     S
C112   N149    1.362   .     A
C113   H147    1.080   .     S
C113   N150    1.365   .     A
C114   C116    1.406   .     A
C114   N149    1.364   .     A
C114   H148    1.081   .     S
C115   H120    1.080   .     S
C115   N150    1.364   .     A
C116   H121    1.082   .     S
Cu117  Cu118   2.673   .     S
Cu117  O163    1.974   .     S
Cu117  O159    1.954   .     S
Cu117  O160    1.973   .     S
Cu117  N150    2.008   .     S
Cu117  O151    1.954   .     S
Cu118  O158    1.954   .     S
Cu118  N149    2.008   .     S
Cu118  O162    1.974   .     S
Cu118  O157    1.954   .     S
Cu118  O161    1.973   .     S
H126   C188    1.111   .     S
O164   C171    1.386   .     S
C165   O233    1.292   .     A
C165   O240    1.293   .     A
C165   C178    1.460   .     S
C166   C168    1.408   .     A
C166   C197    1.406   .     A
C166   H204    1.082   .     S
C167   C187    1.416   .     A
C167   C198    1.409   .     A
C167   C660    1.514   1_554 S
C168   C193    1.416   .     A
C168   C659    1.514   .     S
C169   C171    1.442   .     S
C169   O244    1.291   .     A
C169   O242    1.280   .     A
C170   O245    1.286   .     A
C170   C172    1.440   .     S
C170   O243    1.286   .     A
C172   C7      1.356   1_655 S
C172   O70     1.390   1_655 S
C173   C184    1.409   .     A
C173   C175    1.397   .     A
C173   O235    1.383   .     S
C174   C185    1.409   .     A
C174   C177    1.398   .     A
C174   O236    1.383   .     S
C175   C178    1.402   .     A
C175   H201    1.083   .     S
C176   C179    1.457   .     S
C176   O241    1.292   .     A
C176   O239    1.291   .     A
C177   C179    1.400   .     A
C177   H212    1.084   .     S
C178   C180    1.400   .     A
C179   C181    1.399   .     A
C180   H223    1.083   .     S
C180   C182    1.389   .     A
C181   H225    1.083   .     S
C181   C183    1.389   .     A
C182   H226    1.083   .     S
C182   C184    1.402   .     A
C183   C185    1.402   .     A
C183   H227    1.083   .     S
C184   C431    1.468   1_545 S
C185   C430    1.468   .     S
C186   O246    1.413   .     S
C186   H207    1.109   .     S
C186   H206    1.113   .     S
C186   H41     1.113   1_655 S
C187   O237    1.382   .     S
C187   C194    1.412   .     A
C188   O234    1.413   .     S
C188   H209    1.114   .     S
C188   H210    1.110   .     S
C189   H214    1.109   .     S
C189   O235    1.410   .     S
C189   H211    1.113   .     S
C189   H213    1.113   .     S
C190   O236    1.410   .     S
C190   H216    1.113   .     S
C190   H217    1.109   .     S
C190   H215    1.113   .     S
C191   H218    1.114   .     S
C191   H219    1.113   .     S
C191   H220    1.109   .     S
C191   O237    1.410   .     S
C192   O238    1.409   .     S
C192   H221    1.114   .     S
C192   H224    1.109   .     S
C192   H222    1.113   .     S
C193   O238    1.381   .     S
C193   C195    1.412   .     A
C194   H228    1.075   .     S
C194   N231    1.362   .     A
C195   H229    1.080   .     S
C195   N232    1.365   .     A
C196   C198    1.406   .     A
C196   N231    1.364   .     A
C196   H230    1.081   .     S
C197   H202    1.080   .     S
C197   N232    1.364   .     A
C198   H203    1.082   .     S
Cu199  Cu200   2.673   .     S
Cu199  O245    1.974   .     S
Cu199  O241    1.954   .     S
Cu199  O242    1.973   .     S
Cu199  N232    2.008   .     S
Cu199  O233    1.954   .     S
Cu200  O240    1.954   .     S
Cu200  N231    2.008   .     S
Cu200  O244    1.974   .     S
Cu200  O239    1.954   .     S
Cu200  O243    1.973   .     S
H208   C24     1.111   1_655 S
O246   C7      1.386   1_655 S
C247   O315    1.292   .     A
C247   O322    1.293   .     A
C247   C260    1.460   .     S
C248   C250    1.408   .     A
C248   C279    1.406   .     A
C248   H286    1.082   .     S
C249   C269    1.416   .     A
C249   C280    1.409   .     A
C249   C742    1.514   1_554 S
C250   C275    1.416   .     A
C250   C741    1.514   .     S
C251   C253    1.442   .     S
C251   O326    1.291   .     A
C251   O324    1.280   .     A
C252   O327    1.286   .     A
C252   C254    1.440   .     S
C252   O325    1.286   .     A
C253   C418    1.356   1_455 S
C253   O492    1.386   1_455 S
C254   C335    1.356   .     S
C254   O398    1.390   .     S
C255   C266    1.409   .     A
C255   C257    1.397   .     A
C255   O317    1.383   .     S
C256   C267    1.409   .     A
C256   C259    1.398   .     A
C256   O318    1.383   .     S
C257   C260    1.402   .     A
C257   H283    1.083   .     S
C258   C261    1.457   .     S
C258   O323    1.292   .     A
C258   O321    1.291   .     A
C259   C261    1.400   .     A
C259   H294    1.084   .     S
C260   C262    1.400   .     A
C261   C263    1.399   .     A
C262   H305    1.083   .     S
C262   C264    1.389   .     A
C263   H307    1.083   .     S
C263   C265    1.389   .     A
C264   H308    1.083   .     S
C264   C266    1.402   .     A
C265   C267    1.402   .     A
C265   H309    1.083   .     S
C267   C20     1.468   1_565 S
C268   O328    1.413   .     S
C268   H289    1.109   .     S
C268   H288    1.113   .     S
C268   H369    1.113   .     S
C269   O319    1.382   .     S
C269   C276    1.412   .     A
C270   O316    1.413   .     S
C270   H291    1.114   .     S
C270   H292    1.110   .     S
C270   H454    1.111   1_455 S
C271   H296    1.109   .     S
C271   O317    1.410   .     S
C271   H293    1.113   .     S
C271   H295    1.113   .     S
C272   O318    1.410   .     S
C272   H298    1.113   .     S
C272   H299    1.109   .     S
C272   H297    1.113   .     S
C273   H300    1.114   .     S
C273   H301    1.113   .     S
C273   H302    1.109   .     S
C273   O319    1.410   .     S
C274   O320    1.409   .     S
C274   H303    1.114   .     S
C274   H306    1.109   .     S
C274   H304    1.113   .     S
C275   O320    1.381   .     S
C275   C277    1.412   .     A
C276   H310    1.075   .     S
C276   N313    1.362   .     A
C277   H311    1.080   .     S
C277   N314    1.365   .     A
C278   C280    1.406   .     A
C278   N313    1.364   .     A
C278   H312    1.081   .     S
C279   H284    1.080   .     S
C279   N314    1.364   .     A
C280   H285    1.082   .     S
Cu281  Cu282   2.673   .     S
Cu281  O327    1.974   .     S
Cu281  O323    1.954   .     S
Cu281  O324    1.973   .     S
Cu281  N314    2.008   .     S
Cu281  O315    1.954   .     S
Cu282  O322    1.954   .     S
Cu282  N313    2.008   .     S
Cu282  O326    1.974   .     S
Cu282  O321    1.954   .     S
Cu282  O325    1.973   .     S
H287   C432    1.113   1_455 S
H290   C352    1.111   .     S
O316   C418    1.390   1_455 S
O328   C335    1.386   .     S
C329   O397    1.292   .     A
C329   O404    1.293   .     A
C329   C342    1.460   .     S
C330   C332    1.408   .     A
C330   C361    1.406   .     A
C330   H368    1.082   .     S
C331   C351    1.416   .     A
C331   C362    1.409   .     A
C331   C824    1.514   1_554 S
C332   C357    1.416   .     A
C332   C823    1.514   .     S
C333   C335    1.442   .     S
C333   O408    1.291   .     A
C333   O406    1.280   .     A
C334   O409    1.286   .     A
C334   C336    1.440   .     S
C334   O407    1.286   .     A
C336   C417    1.356   .     S
C336   O480    1.390   .     S
C337   C348    1.409   .     A
C337   C339    1.397   .     A
C337   O399    1.383   .     S
C338   C349    1.409   .     A
C338   C341    1.398   .     A
C338   O400    1.383   .     S
C339   C342    1.402   .     A
C339   H365    1.083   .     S
C340   C343    1.457   .     S
C340   O405    1.292   .     A
C340   O403    1.291   .     A
C341   C343    1.400   .     A
C341   H376    1.084   .     S
C342   C344    1.400   .     A
C343   C345    1.399   .     A
C344   H387    1.083   .     S
C344   C346    1.389   .     A
C345   H389    1.083   .     S
C345   C347    1.389   .     A
C346   H390    1.083   .     S
C346   C348    1.402   .     A
C347   C349    1.402   .     A
C347   H391    1.083   .     S
C349   C102    1.468   1_565 S
C350   O410    1.413   .     S
C350   H371    1.109   .     S
C350   H370    1.113   .     S
C350   H451    1.113   .     S
C351   O401    1.382   .     S
C351   C358    1.412   .     A
C352   O398    1.413   .     S
C352   H373    1.114   .     S
C352   H374    1.110   .     S
C353   H378    1.109   .     S
C353   O399    1.410   .     S
C353   H375    1.113   .     S
C353   H377    1.113   .     S
C354   O400    1.410   .     S
C354   H380    1.113   .     S
C354   H381    1.109   .     S
C354   H379    1.113   .     S
C355   H382    1.114   .     S
C355   H383    1.113   .     S
C355   H384    1.109   .     S
C355   O401    1.410   .     S
C356   O402    1.409   .     S
C356   H385    1.114   .     S
C356   H388    1.109   .     S
C356   H386    1.113   .     S
C357   O402    1.381   .     S
C357   C359    1.412   .     A
C358   H392    1.075   .     S
C358   N395    1.362   .     A
C359   H393    1.080   .     S
C359   N396    1.365   .     A
C360   C362    1.406   .     A
C360   N395    1.364   .     A
C360   H394    1.081   .     S
C361   H366    1.080   .     S
C361   N396    1.364   .     A
C362   H367    1.082   .     S
Cu363  Cu364   2.673   .     S
Cu363  O409    1.974   .     S
Cu363  O405    1.954   .     S
Cu363  O406    1.973   .     S
Cu363  N396    2.008   .     S
Cu363  O397    1.954   .     S
Cu364  O404    1.954   .     S
Cu364  N395    2.008   .     S
Cu364  O408    1.974   .     S
Cu364  O403    1.954   .     S
Cu364  O407    1.973   .     S
H372   C434    1.111   .     S
O410   C417    1.386   .     S
C411   O479    1.292   .     A
C411   O486    1.293   .     A
C411   C424    1.460   .     S
C412   C414    1.408   .     A
C412   C443    1.406   .     A
C412   H450    1.082   .     S
C413   C433    1.416   .     A
C413   C444    1.409   .     A
C413   C906    1.514   1_554 S
C414   C439    1.416   .     A
C414   C905    1.514   .     S
C415   C417    1.442   .     S
C415   O490    1.291   .     A
C415   O488    1.280   .     A
C416   O491    1.286   .     A
C416   C418    1.440   .     S
C416   O489    1.286   .     A
C418   C253    1.356   1_655 S
C418   O316    1.390   1_655 S
C419   C430    1.409   .     A
C419   C421    1.397   .     A
C419   O481    1.383   .     S
C420   C431    1.409   .     A
C420   C423    1.398   .     A
C420   O482    1.383   .     S
C421   C424    1.402   .     A
C421   H447    1.083   .     S
C422   C425    1.457   .     S
C422   O487    1.292   .     A
C422   O485    1.291   .     A
C423   C425    1.400   .     A
C423   H458    1.084   .     S
C424   C426    1.400   .     A
C425   C427    1.399   .     A
C426   H469    1.083   .     S
C426   C428    1.389   .     A
C427   H471    1.083   .     S
C427   C429    1.389   .     A
C428   H472    1.083   .     S
C428   C430    1.402   .     A
C429   C431    1.402   .     A
C429   H473    1.083   .     S
C431   C184    1.468   1_565 S
C432   O492    1.413   .     S
C432   H453    1.109   .     S
C432   H452    1.113   .     S
C432   H287    1.113   1_655 S
C433   O483    1.382   .     S
C433   C440    1.412   .     A
C434   O480    1.413   .     S
C434   H455    1.114   .     S
C434   H456    1.110   .     S
C435   H460    1.109   .     S
C435   O481    1.410   .     S
C435   H457    1.113   .     S
C435   H459    1.113   .     S
C436   O482    1.410   .     S
C436   H462    1.113   .     S
C436   H463    1.109   .     S
C436   H461    1.113   .     S
C437   H464    1.114   .     S
C437   H465    1.113   .     S
C437   H466    1.109   .     S
C437   O483    1.410   .     S
C438   O484    1.409   .     S
C438   H467    1.114   .     S
C438   H470    1.109   .     S
C438   H468    1.113   .     S
C439   O484    1.381   .     S
C439   C441    1.412   .     A
C440   H474    1.075   .     S
C440   N477    1.362   .     A
C441   H475    1.080   .     S
C441   N478    1.365   .     A
C442   C444    1.406   .     A
C442   N477    1.364   .     A
C442   H476    1.081   .     S
C443   H448    1.080   .     S
C443   N478    1.364   .     A
C444   H449    1.082   .     S
Cu445  Cu446   2.673   .     S
Cu445  O491    1.974   .     S
Cu445  O487    1.954   .     S
Cu445  O488    1.973   .     S
Cu445  N478    2.008   .     S
Cu445  O479    1.954   .     S
Cu446  O486    1.954   .     S
Cu446  N477    2.008   .     S
Cu446  O490    1.974   .     S
Cu446  O485    1.954   .     S
Cu446  O489    1.973   .     S
H454   C270    1.111   1_655 S
O492   C253    1.386   1_655 S
C493   O561    1.292   .     A
C493   O568    1.293   .     A
C493   C506    1.460   .     S
C494   C496    1.408   .     A
C494   C525    1.406   .     A
C494   H532    1.082   .     S
C495   C515    1.416   .     A
C495   C526    1.409   .     A
C496   C521    1.416   .     A
C496   C3      1.514   1_556 S
C497   C499    1.442   .     S
C497   O572    1.291   .     A
C497   O570    1.280   .     A
C498   O573    1.286   .     A
C498   C500    1.440   .     S
C498   O571    1.286   .     A
C499   C664    1.356   1_455 S
C499   O738    1.386   1_455 S
C500   C581    1.356   .     S
C500   O644    1.390   .     S
C501   C512    1.409   .     A
C501   C503    1.397   .     A
C501   O563    1.383   .     S
C502   C513    1.409   .     A
C502   C505    1.398   .     A
C502   O564    1.383   .     S
C503   C506    1.402   .     A
C503   H529    1.083   .     S
C504   C507    1.457   .     S
C504   O569    1.292   .     A
C504   O567    1.291   .     A
C505   C507    1.400   .     A
C505   H540    1.084   .     S
C506   C508    1.400   .     A
C507   C509    1.399   .     A
C508   H551    1.083   .     S
C508   C510    1.389   .     A
C509   H553    1.083   .     S
C509   C511    1.389   .     A
C510   H554    1.083   .     S
C510   C512    1.402   .     A
C511   C513    1.402   .     A
C511   H555    1.083   .     S
C512   C759    1.468   1_545 S
C513   C758    1.468   .     S
C514   O574    1.413   .     S
C514   H535    1.109   .     S
C514   H534    1.113   .     S
C514   H615    1.113   .     S
C515   O565    1.382   .     S
C515   C522    1.412   .     A
C516   O562    1.413   .     S
C516   H537    1.114   .     S
C516   H538    1.110   .     S
C516   H700    1.111   1_455 S
C517   H542    1.109   .     S
C517   O563    1.410   .     S
C517   H539    1.113   .     S
C517   H541    1.113   .     S
C518   O564    1.410   .     S
C518   H544    1.113   .     S
C518   H545    1.109   .     S
C518   H543    1.113   .     S
C519   H546    1.114   .     S
C519   H547    1.113   .     S
C519   H548    1.109   .     S
C519   O565    1.410   .     S
C520   O566    1.409   .     S
C520   H549    1.114   .     S
C520   H552    1.109   .     S
C520   H550    1.113   .     S
C521   O566    1.381   .     S
C521   C523    1.412   .     A
C522   H556    1.075   .     S
C522   N559    1.362   .     A
C523   H557    1.080   .     S
C523   N560    1.365   .     A
C524   C526    1.406   .     A
C524   N559    1.364   .     A
C524   H558    1.081   .     S
C525   H530    1.080   .     S
C525   N560    1.364   .     A
C526   H531    1.082   .     S
Cu527  Cu528   2.673   .     S
Cu527  O573    1.974   .     S
Cu527  O569    1.954   .     S
Cu527  O570    1.973   .     S
Cu527  N560    2.008   .     S
Cu527  O561    1.954   .     S
Cu528  O568    1.954   .     S
Cu528  N559    2.008   .     S
Cu528  O572    1.974   .     S
Cu528  O567    1.954   .     S
Cu528  O571    1.973   .     S
H533   C678    1.113   1_455 S
H536   C598    1.111   .     S
O562   C664    1.390   1_455 S
O574   C581    1.386   .     S
C575   O643    1.292   .     A
C575   O650    1.293   .     A
C575   C588    1.460   .     S
C576   C578    1.408   .     A
C576   C607    1.406   .     A
C576   H614    1.082   .     S
C577   C597    1.416   .     A
C577   C608    1.409   .     A
C578   C603    1.416   .     A
C578   C85     1.514   1_556 S
C579   C581    1.442   .     S
C579   O654    1.291   .     A
C579   O652    1.280   .     A
C580   O655    1.286   .     A
C580   C582    1.440   .     S
C580   O653    1.286   .     A
C582   C663    1.356   .     S
C582   O726    1.390   .     S
C583   C594    1.409   .     A
C583   C585    1.397   .     A
C583   O645    1.383   .     S
C584   C595    1.409   .     A
C584   C587    1.398   .     A
C584   O646    1.383   .     S
C585   C588    1.402   .     A
C585   H611    1.083   .     S
C586   C589    1.457   .     S
C586   O651    1.292   .     A
C586   O649    1.291   .     A
C587   C589    1.400   .     A
C587   H622    1.084   .     S
C588   C590    1.400   .     A
C589   C591    1.399   .     A
C590   H633    1.083   .     S
C590   C592    1.389   .     A
C591   H635    1.083   .     S
C591   C593    1.389   .     A
C592   H636    1.083   .     S
C592   C594    1.402   .     A
C593   C595    1.402   .     A
C593   H637    1.083   .     S
C594   C841    1.468   1_545 S
C595   C840    1.468   .     S
C596   O656    1.413   .     S
C596   H617    1.109   .     S
C596   H616    1.113   .     S
C596   H697    1.113   .     S
C597   O647    1.382   .     S
C597   C604    1.412   .     A
C598   O644    1.413   .     S
C598   H619    1.114   .     S
C598   H620    1.110   .     S
C599   H624    1.109   .     S
C599   O645    1.410   .     S
C599   H621    1.113   .     S
C599   H623    1.113   .     S
C600   O646    1.410   .     S
C600   H626    1.113   .     S
C600   H627    1.109   .     S
C600   H625    1.113   .     S
C601   H628    1.114   .     S
C601   H629    1.113   .     S
C601   H630    1.109   .     S
C601   O647    1.410   .     S
C602   O648    1.409   .     S
C602   H631    1.114   .     S
C602   H634    1.109   .     S
C602   H632    1.113   .     S
C603   O648    1.381   .     S
C603   C605    1.412   .     A
C604   H638    1.075   .     S
C604   N641    1.362   .     A
C605   H639    1.080   .     S
C605   N642    1.365   .     A
C606   C608    1.406   .     A
C606   N641    1.364   .     A
C606   H640    1.081   .     S
C607   H612    1.080   .     S
C607   N642    1.364   .     A
C608   H613    1.082   .     S
Cu609  Cu610   2.673   .     S
Cu609  O655    1.974   .     S
Cu609  O651    1.954   .     S
Cu609  O652    1.973   .     S
Cu609  N642    2.008   .     S
Cu609  O643    1.954   .     S
Cu610  O650    1.954   .     S
Cu610  N641    2.008   .     S
Cu610  O654    1.974   .     S
Cu610  O649    1.954   .     S
Cu610  O653    1.973   .     S
H618   C680    1.111   .     S
O656   C663    1.386   .     S
C657   O725    1.292   .     A
C657   O732    1.293   .     A
C657   C670    1.460   .     S
C658   C660    1.408   .     A
C658   C689    1.406   .     A
C658   H696    1.082   .     S
C659   C679    1.416   .     A
C659   C690    1.409   .     A
C660   C685    1.416   .     A
C660   C167    1.514   1_556 S
C661   C663    1.442   .     S
C661   O736    1.291   .     A
C661   O734    1.280   .     A
C662   O737    1.286   .     A
C662   C664    1.440   .     S
C662   O735    1.286   .     A
C664   C499    1.356   1_655 S
C664   O562    1.390   1_655 S
C665   C676    1.409   .     A
C665   C667    1.397   .     A
C665   O727    1.383   .     S
C666   C677    1.409   .     A
C666   C669    1.398   .     A
C666   O728    1.383   .     S
C667   C670    1.402   .     A
C667   H693    1.083   .     S
C668   C671    1.457   .     S
C668   O733    1.292   .     A
C668   O731    1.291   .     A
C669   C671    1.400   .     A
C669   H704    1.084   .     S
C670   C672    1.400   .     A
C671   C673    1.399   .     A
C672   H715    1.083   .     S
C672   C674    1.389   .     A
C673   H717    1.083   .     S
C673   C675    1.389   .     A
C674   H718    1.083   .     S
C674   C676    1.402   .     A
C675   C677    1.402   .     A
C675   H719    1.083   .     S
C676   C923    1.468   1_545 S
C677   C922    1.468   .     S
C678   O738    1.413   .     S
C678   H699    1.109   .     S
C678   H698    1.113   .     S
C678   H533    1.113   1_655 S
C679   O729    1.382   .     S
C679   C686    1.412   .     A
C680   O726    1.413   .     S
C680   H701    1.114   .     S
C680   H702    1.110   .     S
C681   H706    1.109   .     S
C681   O727    1.410   .     S
C681   H703    1.113   .     S
C681   H705    1.113   .     S
C682   O728    1.410   .     S
C682   H708    1.113   .     S
C682   H709    1.109   .     S
C682   H707    1.113   .     S
C683   H710    1.114   .     S
C683   H711    1.113   .     S
C683   H712    1.109   .     S
C683   O729    1.410   .     S
C684   O730    1.409   .     S
C684   H713    1.114   .     S
C684   H716    1.109   .     S
C684   H714    1.113   .     S
C685   O730    1.381   .     S
C685   C687    1.412   .     A
C686   H720    1.075   .     S
C686   N723    1.362   .     A
C687   H721    1.080   .     S
C687   N724    1.365   .     A
C688   C690    1.406   .     A
C688   N723    1.364   .     A
C688   H722    1.081   .     S
C689   H694    1.080   .     S
C689   N724    1.364   .     A
C690   H695    1.082   .     S
Cu691  Cu692   2.673   .     S
Cu691  O737    1.974   .     S
Cu691  O733    1.954   .     S
Cu691  O734    1.973   .     S
Cu691  N724    2.008   .     S
Cu691  O725    1.954   .     S
Cu692  O732    1.954   .     S
Cu692  N723    2.008   .     S
Cu692  O736    1.974   .     S
Cu692  O731    1.954   .     S
Cu692  O735    1.973   .     S
H700   C516    1.111   1_655 S
O738   C499    1.386   1_655 S
C739   O807    1.292   .     A
C739   O814    1.293   .     A
C739   C752    1.460   .     S
C740   C742    1.408   .     A
C740   C771    1.406   .     A
C740   H778    1.082   .     S
C741   C761    1.416   .     A
C741   C772    1.409   .     A
C742   C767    1.416   .     A
C742   C249    1.514   1_556 S
C743   C745    1.442   .     S
C743   O818    1.291   .     A
C743   O816    1.280   .     A
C744   O819    1.286   .     A
C744   C746    1.440   .     S
C744   O817    1.286   .     A
C745   C910    1.356   1_455 S
C745   O984    1.386   1_455 S
C746   C827    1.356   .     S
C746   O890    1.390   .     S
C747   C758    1.409   .     A
C747   C749    1.397   .     A
C747   O809    1.383   .     S
C748   C759    1.409   .     A
C748   C751    1.398   .     A
C748   O810    1.383   .     S
C749   C752    1.402   .     A
C749   H775    1.083   .     S
C750   C753    1.457   .     S
C750   O815    1.292   .     A
C750   O813    1.291   .     A
C751   C753    1.400   .     A
C751   H786    1.084   .     S
C752   C754    1.400   .     A
C753   C755    1.399   .     A
C754   H797    1.083   .     S
C754   C756    1.389   .     A
C755   H799    1.083   .     S
C755   C757    1.389   .     A
C756   H800    1.083   .     S
C756   C758    1.402   .     A
C757   C759    1.402   .     A
C757   H801    1.083   .     S
C759   C512    1.468   1_565 S
C760   O820    1.413   .     S
C760   H781    1.109   .     S
C760   H780    1.113   .     S
C760   H861    1.113   .     S
C761   O811    1.382   .     S
C761   C768    1.412   .     A
C762   O808    1.413   .     S
C762   H783    1.114   .     S
C762   H784    1.110   .     S
C762   H946    1.111   1_455 S
C763   H788    1.109   .     S
C763   O809    1.410   .     S
C763   H785    1.113   .     S
C763   H787    1.113   .     S
C764   O810    1.410   .     S
C764   H790    1.113   .     S
C764   H791    1.109   .     S
C764   H789    1.113   .     S
C765   H792    1.114   .     S
C765   H793    1.113   .     S
C765   H794    1.109   .     S
C765   O811    1.410   .     S
C766   O812    1.409   .     S
C766   H795    1.114   .     S
C766   H798    1.109   .     S
C766   H796    1.113   .     S
C767   O812    1.381   .     S
C767   C769    1.412   .     A
C768   H802    1.075   .     S
C768   N805    1.362   .     A
C769   H803    1.080   .     S
C769   N806    1.365   .     A
C770   C772    1.406   .     A
C770   N805    1.364   .     A
C770   H804    1.081   .     S
C771   H776    1.080   .     S
C771   N806    1.364   .     A
C772   H777    1.082   .     S
Cu773  Cu774   2.673   .     S
Cu773  O819    1.974   .     S
Cu773  O815    1.954   .     S
Cu773  O816    1.973   .     S
Cu773  N806    2.008   .     S
Cu773  O807    1.954   .     S
Cu774  O814    1.954   .     S
Cu774  N805    2.008   .     S
Cu774  O818    1.974   .     S
Cu774  O813    1.954   .     S
Cu774  O817    1.973   .     S
H779   C924    1.113   1_455 S
H782   C844    1.111   .     S
O808   C910    1.390   1_455 S
O820   C827    1.386   .     S
C821   O889    1.292   .     A
C821   O896    1.293   .     A
C821   C834    1.460   .     S
C822   C824    1.408   .     A
C822   C853    1.406   .     A
C822   H860    1.082   .     S
C823   C843    1.416   .     A
C823   C854    1.409   .     A
C824   C849    1.416   .     A
C824   C331    1.514   1_556 S
C825   C827    1.442   .     S
C825   O900    1.291   .     A
C825   O898    1.280   .     A
C826   O901    1.286   .     A
C826   C828    1.440   .     S
C826   O899    1.286   .     A
C828   C909    1.356   .     S
C828   O972    1.390   .     S
C829   C840    1.409   .     A
C829   C831    1.397   .     A
C829   O891    1.383   .     S
C830   C841    1.409   .     A
C830   C833    1.398   .     A
C830   O892    1.383   .     S
C831   C834    1.402   .     A
C831   H857    1.083   .     S
C832   C835    1.457   .     S
C832   O897    1.292   .     A
C832   O895    1.291   .     A
C833   C835    1.400   .     A
C833   H868    1.084   .     S
C834   C836    1.400   .     A
C835   C837    1.399   .     A
C836   H879    1.083   .     S
C836   C838    1.389   .     A
C837   H881    1.083   .     S
C837   C839    1.389   .     A
C838   H882    1.083   .     S
C838   C840    1.402   .     A
C839   C841    1.402   .     A
C839   H883    1.083   .     S
C841   C594    1.468   1_565 S
C842   O902    1.413   .     S
C842   H863    1.109   .     S
C842   H862    1.113   .     S
C842   H943    1.113   .     S
C843   O893    1.382   .     S
C843   C850    1.412   .     A
C844   O890    1.413   .     S
C844   H865    1.114   .     S
C844   H866    1.110   .     S
C845   H870    1.109   .     S
C845   O891    1.410   .     S
C845   H867    1.113   .     S
C845   H869    1.113   .     S
C846   O892    1.410   .     S
C846   H872    1.113   .     S
C846   H873    1.109   .     S
C846   H871    1.113   .     S
C847   H874    1.114   .     S
C847   H875    1.113   .     S
C847   H876    1.109   .     S
C847   O893    1.410   .     S
C848   O894    1.409   .     S
C848   H877    1.114   .     S
C848   H880    1.109   .     S
C848   H878    1.113   .     S
C849   O894    1.381   .     S
C849   C851    1.412   .     A
C850   H884    1.075   .     S
C850   N887    1.362   .     A
C851   H885    1.080   .     S
C851   N888    1.365   .     A
C852   C854    1.406   .     A
C852   N887    1.364   .     A
C852   H886    1.081   .     S
C853   H858    1.080   .     S
C853   N888    1.364   .     A
C854   H859    1.082   .     S
Cu855  Cu856   2.673   .     S
Cu855  O901    1.974   .     S
Cu855  O897    1.954   .     S
Cu855  O898    1.973   .     S
Cu855  N888    2.008   .     S
Cu855  O889    1.954   .     S
Cu856  O896    1.954   .     S
Cu856  N887    2.008   .     S
Cu856  O900    1.974   .     S
Cu856  O895    1.954   .     S
Cu856  O899    1.973   .     S
H864   C926    1.111   .     S
O902   C909    1.386   .     S
C903   O971    1.292   .     A
C903   O978    1.293   .     A
C903   C916    1.460   .     S
C904   C906    1.408   .     A
C904   C935    1.406   .     A
C904   H942    1.082   .     S
C905   C925    1.416   .     A
C905   C936    1.409   .     A
C906   C931    1.416   .     A
C906   C413    1.514   1_556 S
C907   C909    1.442   .     S
C907   O982    1.291   .     A
C907   O980    1.280   .     A
C908   O983    1.286   .     A
C908   C910    1.440   .     S
C908   O981    1.286   .     A
C910   C745    1.356   1_655 S
C910   O808    1.390   1_655 S
C911   C922    1.409   .     A
C911   C913    1.397   .     A
C911   O973    1.383   .     S
C912   C923    1.409   .     A
C912   C915    1.398   .     A
C912   O974    1.383   .     S
C913   C916    1.402   .     A
C913   H939    1.083   .     S
C914   C917    1.457   .     S
C914   O979    1.292   .     A
C914   O977    1.291   .     A
C915   C917    1.400   .     A
C915   H950    1.084   .     S
C916   C918    1.400   .     A
C917   C919    1.399   .     A
C918   H961    1.083   .     S
C918   C920    1.389   .     A
C919   H963    1.083   .     S
C919   C921    1.389   .     A
C920   H964    1.083   .     S
C920   C922    1.402   .     A
C921   C923    1.402   .     A
C921   H965    1.083   .     S
C923   C676    1.468   1_565 S
C924   O984    1.413   .     S
C924   H945    1.109   .     S
C924   H944    1.113   .     S
C924   H779    1.113   1_655 S
C925   O975    1.382   .     S
C925   C932    1.412   .     A
C926   O972    1.413   .     S
C926   H947    1.114   .     S
C926   H948    1.110   .     S
C927   H952    1.109   .     S
C927   O973    1.410   .     S
C927   H949    1.113   .     S
C927   H951    1.113   .     S
C928   O974    1.410   .     S
C928   H954    1.113   .     S
C928   H955    1.109   .     S
C928   H953    1.113   .     S
C929   H956    1.114   .     S
C929   H957    1.113   .     S
C929   H958    1.109   .     S
C929   O975    1.410   .     S
C930   O976    1.409   .     S
C930   H959    1.114   .     S
C930   H962    1.109   .     S
C930   H960    1.113   .     S
C931   O976    1.381   .     S
C931   C933    1.412   .     A
C932   H966    1.075   .     S
C932   N969    1.362   .     A
C933   H967    1.080   .     S
C933   N970    1.365   .     A
C934   C936    1.406   .     A
C934   N969    1.364   .     A
C934   H968    1.081   .     S
C935   H940    1.080   .     S
C935   N970    1.364   .     A
C936   H941    1.082   .     S
Cu937  Cu938   2.673   .     S
Cu937  O983    1.974   .     S
Cu937  O979    1.954   .     S
Cu937  O980    1.973   .     S
Cu937  N970    2.008   .     S
Cu937  O971    1.954   .     S
Cu938  O978    1.954   .     S
Cu938  N969    2.008   .     S
Cu938  O982    1.974   .     S
Cu938  O977    1.954   .     S
Cu938  O981    1.973   .     S
H946   C762    1.111   1_655 S
O984   C745    1.386   1_655 S
