data_str_m2_o1_o2_pcu_sym.79
_audit_creation_date              2020-01-03
_audit_creation_method            'Materials Studio'
_symmetry_space_group_name_H-M    'P1'
_symmetry_Int_Tables_number       1
_symmetry_cell_setting            triclinic
loop_
_symmetry_equiv_pos_as_xyz
  x,y,z
_cell_length_a                    32.5114
_cell_length_b                    28.5889
_cell_length_c                    30.2747
_cell_angle_alpha                 89.9948
_cell_angle_beta                  90.4631
_cell_angle_gamma                 90.1259
loop_
_atom_site_label
_atom_site_type_symbol
_atom_site_fract_x
_atom_site_fract_y
_atom_site_fract_z
_atom_site_U_iso_or_equiv
_atom_site_adp_type
_atom_site_occupancy
C1     C     0.08739   0.16663   0.24996   0.00000  Uiso   1.00
C2     C     0.31229   0.20450   0.26847   0.00000  Uiso   1.00
C3     C     0.31179   0.12889   0.23152   0.00000  Uiso   1.00
C4     C     0.02155   0.20444   0.26849   0.00000  Uiso   1.00
C5     C     0.17904   0.20672   0.04773   0.00000  Uiso   1.00
C6     C     0.17918   0.12675   0.45251   0.00000  Uiso   1.00
C7     C     0.15415   0.20664   0.45225   0.00000  Uiso   1.00
C8     C     0.15409   0.12667   0.04750   0.00000  Uiso   1.00
C9     C     0.17874   0.20682   0.09364   0.00000  Uiso   1.00
C10    C     0.17894   0.12663   0.40659   0.00000  Uiso   1.00
C11    C     0.15448   0.20674   0.40634   0.00000  Uiso   1.00
C12    C     0.24594   0.16670   0.25004   0.00000  Uiso   1.00
C13    C     0.15436   0.12656   0.09342   0.00000  Uiso   1.00
C14    C     0.16657   0.16668   0.11673   0.00000  Uiso   1.00
C15    C     0.16672   0.16668   0.38327   0.00000  Uiso   1.00
C16    C     0.16659   0.16670   0.02428   0.00000  Uiso   1.00
C17    C     0.16664   0.16669   0.47571   0.00000  Uiso   1.00
C18    C     0.29055   0.16673   0.24999   0.00000  Uiso   1.00
C19    C     0.04279   0.16660   0.25001   0.00000  Uiso   1.00
C20    C     0.16661   0.16667   0.16497   0.00000  Uiso   1.00
C21    C     0.16671   0.16667   0.33503   0.00000  Uiso   1.00
C22    C     0.14190   0.02470   0.22155   0.00000  Uiso   1.00
C23    C     0.19142   0.30863   0.27846   0.00000  Uiso   1.00
C24    C     0.19149   0.02484   0.27840   0.00000  Uiso   1.00
C25    C     0.14185   0.30849   0.22159   0.00000  Uiso   1.00
C26    C     0.02104   0.12883   0.23153   0.00000  Uiso   1.00
Cu27   Cu    0.16667   0.21355   0.25000   0.00000  Uiso   1.00
Cu28   Cu    0.16667   0.11978   0.25000   0.00000  Uiso   1.00
F29    F     0.11711   0.04783   0.19280   0.00000  Uiso   1.00
F30    F     0.21616   0.28550   0.30726   0.00000  Uiso   1.00
F31    F     0.21660   0.04812   0.30684   0.00000  Uiso   1.00
F32    F     0.11679   0.28521   0.19311   0.00000  Uiso   1.00
F33    F     0.04086   0.09241   0.21241   0.00000  Uiso   1.00
F34    F     0.29248   0.24093   0.28758   0.00000  Uiso   1.00
F35    F     0.29144   0.09249   0.21241   0.00000  Uiso   1.00
F36    F     0.04190   0.24083   0.28761   0.00000  Uiso   1.00
H37    H     0.18949   0.23776   0.03062   0.00000  Uiso   1.00
H38    H     0.18965   0.09579   0.46983   0.00000  Uiso   1.00
H39    H     0.14365   0.23760   0.46935   0.00000  Uiso   1.00
H40    H     0.14365   0.09564   0.03020   0.00000  Uiso   1.00
H41    H     0.18859   0.23806   0.11103   0.00000  Uiso   1.00
H42    H     0.18885   0.09546   0.38939   0.00000  Uiso   1.00
H43    H     0.14460   0.23791   0.38893   0.00000  Uiso   1.00
H44    H     0.14450   0.09533   0.11064   0.00000  Uiso   1.00
N45    N     0.16667   0.28402   0.25000   0.00000  Uiso   1.00
N46    N     0.16667   0.04931   0.25000   0.00000  Uiso   1.00
O47    O     0.10655   0.20625   0.24999   0.00000  Uiso   1.00
O48    O     0.22679   0.12709   0.25000   0.00000  Uiso   1.00
O49    O     0.22679   0.20625   0.25000   0.00000  Uiso   1.00
O50    O     0.10655   0.12709   0.24999   0.00000  Uiso   1.00
O51    O     0.16666   0.20626   0.18573   0.00000  Uiso   1.00
O52    O     0.16667   0.12707   0.31427   0.00000  Uiso   1.00
O53    O     0.16667   0.20626   0.31427   0.00000  Uiso   1.00
O54    O     0.16666   0.12707   0.18573   0.00000  Uiso   1.00
C55    C     0.42073   0.16663   0.24996   0.00000  Uiso   1.00
C56    C     0.64563   0.20450   0.26847   0.00000  Uiso   1.00
C57    C     0.64512   0.12889   0.23152   0.00000  Uiso   1.00
C58    C     0.35488   0.20444   0.26849   0.00000  Uiso   1.00
C59    C     0.51237   0.20672   0.04773   0.00000  Uiso   1.00
C60    C     0.51252   0.12675   0.45251   0.00000  Uiso   1.00
C61    C     0.48749   0.20664   0.45225   0.00000  Uiso   1.00
C62    C     0.48743   0.12667   0.04750   0.00000  Uiso   1.00
C63    C     0.51208   0.20682   0.09364   0.00000  Uiso   1.00
C64    C     0.51228   0.12663   0.40659   0.00000  Uiso   1.00
C65    C     0.48781   0.20674   0.40634   0.00000  Uiso   1.00
C66    C     0.57927   0.16670   0.25004   0.00000  Uiso   1.00
C67    C     0.48770   0.12656   0.09342   0.00000  Uiso   1.00
C68    C     0.49990   0.16668   0.11673   0.00000  Uiso   1.00
C69    C     0.50005   0.16668   0.38327   0.00000  Uiso   1.00
C70    C     0.49992   0.16670   0.02428   0.00000  Uiso   1.00
C71    C     0.49997   0.16669   0.47571   0.00000  Uiso   1.00
C72    C     0.62388   0.16673   0.24999   0.00000  Uiso   1.00
C73    C     0.37612   0.16660   0.25001   0.00000  Uiso   1.00
C74    C     0.49995   0.16667   0.16497   0.00000  Uiso   1.00
C75    C     0.50004   0.16667   0.33503   0.00000  Uiso   1.00
C76    C     0.47523   0.02470   0.22155   0.00000  Uiso   1.00
C77    C     0.52476   0.30863   0.27846   0.00000  Uiso   1.00
C78    C     0.52483   0.02484   0.27840   0.00000  Uiso   1.00
C79    C     0.47519   0.30849   0.22159   0.00000  Uiso   1.00
C80    C     0.35437   0.12883   0.23153   0.00000  Uiso   1.00
Cu81   Cu    0.50000   0.21355   0.25000   0.00000  Uiso   1.00
Cu82   Cu    0.50000   0.11978   0.25000   0.00000  Uiso   1.00
F83    F     0.45045   0.04783   0.19280   0.00000  Uiso   1.00
F84    F     0.54950   0.28550   0.30726   0.00000  Uiso   1.00
F85    F     0.54993   0.04812   0.30684   0.00000  Uiso   1.00
F86    F     0.45013   0.28521   0.19311   0.00000  Uiso   1.00
F87    F     0.37419   0.09241   0.21241   0.00000  Uiso   1.00
F88    F     0.62581   0.24093   0.28758   0.00000  Uiso   1.00
F89    F     0.62477   0.09249   0.21241   0.00000  Uiso   1.00
F90    F     0.37523   0.24083   0.28761   0.00000  Uiso   1.00
H91    H     0.52283   0.23776   0.03062   0.00000  Uiso   1.00
H92    H     0.52299   0.09579   0.46983   0.00000  Uiso   1.00
H93    H     0.47699   0.23760   0.46935   0.00000  Uiso   1.00
H94    H     0.47698   0.09564   0.03020   0.00000  Uiso   1.00
H95    H     0.52193   0.23806   0.11103   0.00000  Uiso   1.00
H96    H     0.52219   0.09546   0.38939   0.00000  Uiso   1.00
H97    H     0.47793   0.23791   0.38893   0.00000  Uiso   1.00
H98    H     0.47783   0.09533   0.11064   0.00000  Uiso   1.00
N99    N     0.50000   0.28402   0.25000   0.00000  Uiso   1.00
N100   N     0.50000   0.04931   0.25000   0.00000  Uiso   1.00
O101   O     0.43988   0.20625   0.24999   0.00000  Uiso   1.00
O102   O     0.56012   0.12709   0.25000   0.00000  Uiso   1.00
O103   O     0.56012   0.20625   0.25000   0.00000  Uiso   1.00
O104   O     0.43988   0.12709   0.24999   0.00000  Uiso   1.00
O105   O     0.50000   0.20626   0.18573   0.00000  Uiso   1.00
O106   O     0.50000   0.12707   0.31427   0.00000  Uiso   1.00
O107   O     0.50000   0.20626   0.31427   0.00000  Uiso   1.00
O108   O     0.50000   0.12707   0.18573   0.00000  Uiso   1.00
C109   C     0.75406   0.16663   0.24996   0.00000  Uiso   1.00
C110   C     0.97896   0.20450   0.26847   0.00000  Uiso   1.00
C111   C     0.97845   0.12889   0.23152   0.00000  Uiso   1.00
C112   C     0.68821   0.20444   0.26849   0.00000  Uiso   1.00
C113   C     0.84570   0.20672   0.04773   0.00000  Uiso   1.00
C114   C     0.84585   0.12675   0.45251   0.00000  Uiso   1.00
C115   C     0.82082   0.20664   0.45225   0.00000  Uiso   1.00
C116   C     0.82076   0.12667   0.04750   0.00000  Uiso   1.00
C117   C     0.84541   0.20682   0.09364   0.00000  Uiso   1.00
C118   C     0.84561   0.12663   0.40659   0.00000  Uiso   1.00
C119   C     0.82114   0.20674   0.40634   0.00000  Uiso   1.00
C120   C     0.91261   0.16670   0.25004   0.00000  Uiso   1.00
C121   C     0.82103   0.12656   0.09342   0.00000  Uiso   1.00
C122   C     0.83323   0.16668   0.11673   0.00000  Uiso   1.00
C123   C     0.83338   0.16668   0.38327   0.00000  Uiso   1.00
C124   C     0.83325   0.16670   0.02428   0.00000  Uiso   1.00
C125   C     0.83330   0.16669   0.47571   0.00000  Uiso   1.00
C126   C     0.95721   0.16673   0.24999   0.00000  Uiso   1.00
C127   C     0.70945   0.16660   0.25001   0.00000  Uiso   1.00
C128   C     0.83328   0.16667   0.16497   0.00000  Uiso   1.00
C129   C     0.83338   0.16667   0.33503   0.00000  Uiso   1.00
C130   C     0.80857   0.02470   0.22155   0.00000  Uiso   1.00
C131   C     0.85809   0.30863   0.27846   0.00000  Uiso   1.00
C132   C     0.85816   0.02484   0.27840   0.00000  Uiso   1.00
C133   C     0.80852   0.30849   0.22159   0.00000  Uiso   1.00
C134   C     0.68771   0.12883   0.23153   0.00000  Uiso   1.00
Cu135  Cu    0.83333   0.21355   0.25000   0.00000  Uiso   1.00
Cu136  Cu    0.83333   0.11978   0.25000   0.00000  Uiso   1.00
F137   F     0.78378   0.04783   0.19280   0.00000  Uiso   1.00
F138   F     0.88283   0.28550   0.30726   0.00000  Uiso   1.00
F139   F     0.88326   0.04812   0.30684   0.00000  Uiso   1.00
F140   F     0.78346   0.28521   0.19311   0.00000  Uiso   1.00
F141   F     0.70753   0.09241   0.21241   0.00000  Uiso   1.00
F142   F     0.95914   0.24093   0.28758   0.00000  Uiso   1.00
F143   F     0.95810   0.09249   0.21241   0.00000  Uiso   1.00
F144   F     0.70857   0.24083   0.28761   0.00000  Uiso   1.00
H145   H     0.85616   0.23776   0.03062   0.00000  Uiso   1.00
H146   H     0.85632   0.09579   0.46983   0.00000  Uiso   1.00
H147   H     0.81032   0.23760   0.46935   0.00000  Uiso   1.00
H148   H     0.81032   0.09564   0.03020   0.00000  Uiso   1.00
H149   H     0.85526   0.23806   0.11103   0.00000  Uiso   1.00
H150   H     0.85552   0.09546   0.38939   0.00000  Uiso   1.00
H151   H     0.81127   0.23791   0.38893   0.00000  Uiso   1.00
H152   H     0.81116   0.09533   0.11064   0.00000  Uiso   1.00
N153   N     0.83333   0.28402   0.25000   0.00000  Uiso   1.00
N154   N     0.83333   0.04931   0.25000   0.00000  Uiso   1.00
O155   O     0.77321   0.20625   0.24999   0.00000  Uiso   1.00
O156   O     0.89345   0.12709   0.25000   0.00000  Uiso   1.00
O157   O     0.89345   0.20625   0.25000   0.00000  Uiso   1.00
O158   O     0.77321   0.12709   0.24999   0.00000  Uiso   1.00
O159   O     0.83333   0.20626   0.18573   0.00000  Uiso   1.00
O160   O     0.83334   0.12707   0.31427   0.00000  Uiso   1.00
O161   O     0.83334   0.20626   0.31427   0.00000  Uiso   1.00
O162   O     0.83333   0.12707   0.18573   0.00000  Uiso   1.00
C163   C     0.08739   0.49996   0.24996   0.00000  Uiso   1.00
C164   C     0.31229   0.53784   0.26847   0.00000  Uiso   1.00
C165   C     0.31179   0.46222   0.23152   0.00000  Uiso   1.00
C166   C     0.02155   0.53778   0.26849   0.00000  Uiso   1.00
C167   C     0.17904   0.54006   0.04773   0.00000  Uiso   1.00
C168   C     0.17918   0.46008   0.45251   0.00000  Uiso   1.00
C169   C     0.15415   0.53997   0.45225   0.00000  Uiso   1.00
C170   C     0.15409   0.46001   0.04750   0.00000  Uiso   1.00
C171   C     0.17874   0.54016   0.09364   0.00000  Uiso   1.00
C172   C     0.17894   0.45997   0.40659   0.00000  Uiso   1.00
C173   C     0.15448   0.54007   0.40634   0.00000  Uiso   1.00
C174   C     0.24594   0.50004   0.25004   0.00000  Uiso   1.00
C175   C     0.15436   0.45989   0.09342   0.00000  Uiso   1.00
C176   C     0.16657   0.50002   0.11673   0.00000  Uiso   1.00
C177   C     0.16672   0.50001   0.38327   0.00000  Uiso   1.00
C178   C     0.16659   0.50003   0.02428   0.00000  Uiso   1.00
C179   C     0.16664   0.50002   0.47571   0.00000  Uiso   1.00
C180   C     0.29055   0.50006   0.24999   0.00000  Uiso   1.00
C181   C     0.04279   0.49994   0.25001   0.00000  Uiso   1.00
C182   C     0.16661   0.50000   0.16497   0.00000  Uiso   1.00
C183   C     0.16671   0.50000   0.33503   0.00000  Uiso   1.00
C184   C     0.14190   0.35804   0.22155   0.00000  Uiso   1.00
C185   C     0.19142   0.64196   0.27846   0.00000  Uiso   1.00
C186   C     0.19149   0.35818   0.27840   0.00000  Uiso   1.00
C187   C     0.14185   0.64182   0.22159   0.00000  Uiso   1.00
C188   C     0.02104   0.46217   0.23153   0.00000  Uiso   1.00
Cu189  Cu    0.16667   0.54689   0.25000   0.00000  Uiso   1.00
Cu190  Cu    0.16667   0.45311   0.25000   0.00000  Uiso   1.00
F191   F     0.11711   0.38116   0.19280   0.00000  Uiso   1.00
F192   F     0.21616   0.61883   0.30726   0.00000  Uiso   1.00
F193   F     0.21660   0.38145   0.30684   0.00000  Uiso   1.00
F194   F     0.11679   0.61854   0.19311   0.00000  Uiso   1.00
F195   F     0.04086   0.42574   0.21241   0.00000  Uiso   1.00
F196   F     0.29248   0.57426   0.28758   0.00000  Uiso   1.00
F197   F     0.29144   0.42583   0.21241   0.00000  Uiso   1.00
F198   F     0.04190   0.57417   0.28761   0.00000  Uiso   1.00
H199   H     0.18949   0.57109   0.03062   0.00000  Uiso   1.00
H200   H     0.18965   0.42912   0.46983   0.00000  Uiso   1.00
H201   H     0.14365   0.57094   0.46935   0.00000  Uiso   1.00
H202   H     0.14365   0.42898   0.03020   0.00000  Uiso   1.00
H203   H     0.18859   0.57139   0.11103   0.00000  Uiso   1.00
H204   H     0.18885   0.42880   0.38939   0.00000  Uiso   1.00
H205   H     0.14460   0.57124   0.38893   0.00000  Uiso   1.00
H206   H     0.14450   0.42866   0.11064   0.00000  Uiso   1.00
N207   N     0.16667   0.61736   0.25000   0.00000  Uiso   1.00
N208   N     0.16667   0.38264   0.25000   0.00000  Uiso   1.00
O209   O     0.10655   0.53958   0.24999   0.00000  Uiso   1.00
O210   O     0.22679   0.46042   0.25000   0.00000  Uiso   1.00
O211   O     0.22679   0.53958   0.25000   0.00000  Uiso   1.00
O212   O     0.10655   0.46042   0.24999   0.00000  Uiso   1.00
O213   O     0.16666   0.53959   0.18573   0.00000  Uiso   1.00
O214   O     0.16667   0.46041   0.31427   0.00000  Uiso   1.00
O215   O     0.16667   0.53959   0.31427   0.00000  Uiso   1.00
O216   O     0.16666   0.46041   0.18573   0.00000  Uiso   1.00
C217   C     0.42073   0.49996   0.24996   0.00000  Uiso   1.00
C218   C     0.64563   0.53784   0.26847   0.00000  Uiso   1.00
C219   C     0.64512   0.46222   0.23152   0.00000  Uiso   1.00
C220   C     0.35488   0.53778   0.26849   0.00000  Uiso   1.00
C221   C     0.51237   0.54006   0.04773   0.00000  Uiso   1.00
C222   C     0.51252   0.46008   0.45251   0.00000  Uiso   1.00
C223   C     0.48749   0.53997   0.45225   0.00000  Uiso   1.00
C224   C     0.48743   0.46001   0.04750   0.00000  Uiso   1.00
C225   C     0.51208   0.54016   0.09364   0.00000  Uiso   1.00
C226   C     0.51228   0.45997   0.40659   0.00000  Uiso   1.00
C227   C     0.48781   0.54007   0.40634   0.00000  Uiso   1.00
C228   C     0.57927   0.50004   0.25004   0.00000  Uiso   1.00
C229   C     0.48770   0.45989   0.09342   0.00000  Uiso   1.00
C230   C     0.49990   0.50002   0.11673   0.00000  Uiso   1.00
C231   C     0.50005   0.50001   0.38327   0.00000  Uiso   1.00
C232   C     0.49992   0.50003   0.02428   0.00000  Uiso   1.00
C233   C     0.49997   0.50002   0.47571   0.00000  Uiso   1.00
C234   C     0.62388   0.50006   0.24999   0.00000  Uiso   1.00
C235   C     0.37612   0.49994   0.25001   0.00000  Uiso   1.00
C236   C     0.49995   0.50000   0.16497   0.00000  Uiso   1.00
C237   C     0.50004   0.50000   0.33503   0.00000  Uiso   1.00
C238   C     0.47523   0.35804   0.22155   0.00000  Uiso   1.00
C239   C     0.52476   0.64196   0.27846   0.00000  Uiso   1.00
C240   C     0.52483   0.35818   0.27840   0.00000  Uiso   1.00
C241   C     0.47519   0.64182   0.22159   0.00000  Uiso   1.00
C242   C     0.35437   0.46217   0.23153   0.00000  Uiso   1.00
Cu243  Cu    0.50000   0.54689   0.25000   0.00000  Uiso   1.00
Cu244  Cu    0.50000   0.45311   0.25000   0.00000  Uiso   1.00
F245   F     0.45045   0.38116   0.19280   0.00000  Uiso   1.00
F246   F     0.54950   0.61883   0.30726   0.00000  Uiso   1.00
F247   F     0.54993   0.38145   0.30684   0.00000  Uiso   1.00
F248   F     0.45013   0.61854   0.19311   0.00000  Uiso   1.00
F249   F     0.37419   0.42574   0.21241   0.00000  Uiso   1.00
F250   F     0.62581   0.57426   0.28758   0.00000  Uiso   1.00
F251   F     0.62477   0.42583   0.21241   0.00000  Uiso   1.00
F252   F     0.37523   0.57417   0.28761   0.00000  Uiso   1.00
H253   H     0.52283   0.57109   0.03062   0.00000  Uiso   1.00
H254   H     0.52299   0.42912   0.46983   0.00000  Uiso   1.00
H255   H     0.47699   0.57094   0.46935   0.00000  Uiso   1.00
H256   H     0.47698   0.42898   0.03020   0.00000  Uiso   1.00
H257   H     0.52193   0.57139   0.11103   0.00000  Uiso   1.00
H258   H     0.52219   0.42880   0.38939   0.00000  Uiso   1.00
H259   H     0.47793   0.57124   0.38893   0.00000  Uiso   1.00
H260   H     0.47783   0.42866   0.11064   0.00000  Uiso   1.00
N261   N     0.50000   0.61736   0.25000   0.00000  Uiso   1.00
N262   N     0.50000   0.38264   0.25000   0.00000  Uiso   1.00
O263   O     0.43988   0.53958   0.24999   0.00000  Uiso   1.00
O264   O     0.56012   0.46042   0.25000   0.00000  Uiso   1.00
O265   O     0.56012   0.53958   0.25000   0.00000  Uiso   1.00
O266   O     0.43988   0.46042   0.24999   0.00000  Uiso   1.00
O267   O     0.50000   0.53959   0.18573   0.00000  Uiso   1.00
O268   O     0.50000   0.46041   0.31427   0.00000  Uiso   1.00
O269   O     0.50000   0.53959   0.31427   0.00000  Uiso   1.00
O270   O     0.50000   0.46041   0.18573   0.00000  Uiso   1.00
C271   C     0.75406   0.49996   0.24996   0.00000  Uiso   1.00
C272   C     0.97896   0.53784   0.26847   0.00000  Uiso   1.00
C273   C     0.97845   0.46222   0.23152   0.00000  Uiso   1.00
C274   C     0.68821   0.53778   0.26849   0.00000  Uiso   1.00
C275   C     0.84570   0.54006   0.04773   0.00000  Uiso   1.00
C276   C     0.84585   0.46008   0.45251   0.00000  Uiso   1.00
C277   C     0.82082   0.53997   0.45225   0.00000  Uiso   1.00
C278   C     0.82076   0.46001   0.04750   0.00000  Uiso   1.00
C279   C     0.84541   0.54016   0.09364   0.00000  Uiso   1.00
C280   C     0.84561   0.45997   0.40659   0.00000  Uiso   1.00
C281   C     0.82114   0.54007   0.40634   0.00000  Uiso   1.00
C282   C     0.91261   0.50004   0.25004   0.00000  Uiso   1.00
C283   C     0.82103   0.45989   0.09342   0.00000  Uiso   1.00
C284   C     0.83323   0.50002   0.11673   0.00000  Uiso   1.00
C285   C     0.83338   0.50001   0.38327   0.00000  Uiso   1.00
C286   C     0.83325   0.50003   0.02428   0.00000  Uiso   1.00
C287   C     0.83330   0.50002   0.47571   0.00000  Uiso   1.00
C288   C     0.95721   0.50006   0.24999   0.00000  Uiso   1.00
C289   C     0.70945   0.49994   0.25001   0.00000  Uiso   1.00
C290   C     0.83328   0.50000   0.16497   0.00000  Uiso   1.00
C291   C     0.83338   0.50000   0.33503   0.00000  Uiso   1.00
C292   C     0.80857   0.35804   0.22155   0.00000  Uiso   1.00
C293   C     0.85809   0.64196   0.27846   0.00000  Uiso   1.00
C294   C     0.85816   0.35818   0.27840   0.00000  Uiso   1.00
C295   C     0.80852   0.64182   0.22159   0.00000  Uiso   1.00
C296   C     0.68771   0.46217   0.23153   0.00000  Uiso   1.00
Cu297  Cu    0.83333   0.54689   0.25000   0.00000  Uiso   1.00
Cu298  Cu    0.83333   0.45311   0.25000   0.00000  Uiso   1.00
F299   F     0.78378   0.38116   0.19280   0.00000  Uiso   1.00
F300   F     0.88283   0.61883   0.30726   0.00000  Uiso   1.00
F301   F     0.88326   0.38145   0.30684   0.00000  Uiso   1.00
F302   F     0.78346   0.61854   0.19311   0.00000  Uiso   1.00
F303   F     0.70753   0.42574   0.21241   0.00000  Uiso   1.00
F304   F     0.95914   0.57426   0.28758   0.00000  Uiso   1.00
F305   F     0.95810   0.42583   0.21241   0.00000  Uiso   1.00
F306   F     0.70857   0.57417   0.28761   0.00000  Uiso   1.00
H307   H     0.85616   0.57109   0.03062   0.00000  Uiso   1.00
H308   H     0.85632   0.42912   0.46983   0.00000  Uiso   1.00
H309   H     0.81032   0.57094   0.46935   0.00000  Uiso   1.00
H310   H     0.81032   0.42898   0.03020   0.00000  Uiso   1.00
H311   H     0.85526   0.57139   0.11103   0.00000  Uiso   1.00
H312   H     0.85552   0.42880   0.38939   0.00000  Uiso   1.00
H313   H     0.81127   0.57124   0.38893   0.00000  Uiso   1.00
H314   H     0.81116   0.42866   0.11064   0.00000  Uiso   1.00
N315   N     0.83333   0.61736   0.25000   0.00000  Uiso   1.00
N316   N     0.83333   0.38264   0.25000   0.00000  Uiso   1.00
O317   O     0.77321   0.53958   0.24999   0.00000  Uiso   1.00
O318   O     0.89345   0.46042   0.25000   0.00000  Uiso   1.00
O319   O     0.89345   0.53958   0.25000   0.00000  Uiso   1.00
O320   O     0.77321   0.46042   0.24999   0.00000  Uiso   1.00
O321   O     0.83333   0.53959   0.18573   0.00000  Uiso   1.00
O322   O     0.83334   0.46041   0.31427   0.00000  Uiso   1.00
O323   O     0.83334   0.53959   0.31427   0.00000  Uiso   1.00
O324   O     0.83333   0.46041   0.18573   0.00000  Uiso   1.00
C325   C     0.08739   0.83330   0.24996   0.00000  Uiso   1.00
C326   C     0.31229   0.87117   0.26847   0.00000  Uiso   1.00
C327   C     0.31179   0.79555   0.23152   0.00000  Uiso   1.00
C328   C     0.02155   0.87111   0.26849   0.00000  Uiso   1.00
C329   C     0.17904   0.87339   0.04773   0.00000  Uiso   1.00
C330   C     0.17918   0.79341   0.45251   0.00000  Uiso   1.00
C331   C     0.15415   0.87330   0.45225   0.00000  Uiso   1.00
C332   C     0.15409   0.79334   0.04750   0.00000  Uiso   1.00
C333   C     0.17874   0.87349   0.09364   0.00000  Uiso   1.00
C334   C     0.17894   0.79330   0.40659   0.00000  Uiso   1.00
C335   C     0.15448   0.87341   0.40634   0.00000  Uiso   1.00
C336   C     0.24594   0.83337   0.25004   0.00000  Uiso   1.00
C337   C     0.15436   0.79323   0.09342   0.00000  Uiso   1.00
C338   C     0.16657   0.83335   0.11673   0.00000  Uiso   1.00
C339   C     0.16672   0.83335   0.38327   0.00000  Uiso   1.00
C340   C     0.16659   0.83336   0.02428   0.00000  Uiso   1.00
C341   C     0.16664   0.83336   0.47571   0.00000  Uiso   1.00
C342   C     0.29055   0.83340   0.24999   0.00000  Uiso   1.00
C343   C     0.04279   0.83327   0.25001   0.00000  Uiso   1.00
C344   C     0.16661   0.83334   0.16497   0.00000  Uiso   1.00
C345   C     0.16671   0.83333   0.33503   0.00000  Uiso   1.00
C346   C     0.14190   0.69137   0.22155   0.00000  Uiso   1.00
C347   C     0.19142   0.97529   0.27846   0.00000  Uiso   1.00
C348   C     0.19149   0.69151   0.27840   0.00000  Uiso   1.00
C349   C     0.14185   0.97515   0.22159   0.00000  Uiso   1.00
C350   C     0.02104   0.79550   0.23153   0.00000  Uiso   1.00
Cu351  Cu    0.16667   0.88022   0.25000   0.00000  Uiso   1.00
Cu352  Cu    0.16667   0.78645   0.25000   0.00000  Uiso   1.00
F353   F     0.11711   0.71449   0.19280   0.00000  Uiso   1.00
F354   F     0.21616   0.95217   0.30726   0.00000  Uiso   1.00
F355   F     0.21660   0.71479   0.30684   0.00000  Uiso   1.00
F356   F     0.11679   0.95187   0.19311   0.00000  Uiso   1.00
F357   F     0.04086   0.75908   0.21241   0.00000  Uiso   1.00
F358   F     0.29248   0.90760   0.28758   0.00000  Uiso   1.00
F359   F     0.29144   0.75916   0.21241   0.00000  Uiso   1.00
F360   F     0.04190   0.90750   0.28761   0.00000  Uiso   1.00
H361   H     0.18949   0.90442   0.03062   0.00000  Uiso   1.00
H362   H     0.18965   0.76245   0.46983   0.00000  Uiso   1.00
H363   H     0.14365   0.90427   0.46935   0.00000  Uiso   1.00
H364   H     0.14365   0.76231   0.03020   0.00000  Uiso   1.00
H365   H     0.18859   0.90473   0.11103   0.00000  Uiso   1.00
H366   H     0.18885   0.76213   0.38939   0.00000  Uiso   1.00
H367   H     0.14460   0.90458   0.38893   0.00000  Uiso   1.00
H368   H     0.14450   0.76199   0.11064   0.00000  Uiso   1.00
N369   N     0.16667   0.95069   0.25000   0.00000  Uiso   1.00
N370   N     0.16667   0.71598   0.25000   0.00000  Uiso   1.00
O371   O     0.10655   0.87291   0.24999   0.00000  Uiso   1.00
O372   O     0.22679   0.79375   0.25000   0.00000  Uiso   1.00
O373   O     0.22679   0.87291   0.25000   0.00000  Uiso   1.00
O374   O     0.10655   0.79375   0.24999   0.00000  Uiso   1.00
O375   O     0.16666   0.87293   0.18573   0.00000  Uiso   1.00
O376   O     0.16667   0.79374   0.31427   0.00000  Uiso   1.00
O377   O     0.16667   0.87293   0.31427   0.00000  Uiso   1.00
O378   O     0.16666   0.79374   0.18573   0.00000  Uiso   1.00
C379   C     0.42073   0.83330   0.24996   0.00000  Uiso   1.00
C380   C     0.64563   0.87117   0.26847   0.00000  Uiso   1.00
C381   C     0.64512   0.79555   0.23152   0.00000  Uiso   1.00
C382   C     0.35488   0.87111   0.26849   0.00000  Uiso   1.00
C383   C     0.51237   0.87339   0.04773   0.00000  Uiso   1.00
C384   C     0.51252   0.79341   0.45251   0.00000  Uiso   1.00
C385   C     0.48749   0.87330   0.45225   0.00000  Uiso   1.00
C386   C     0.48743   0.79334   0.04750   0.00000  Uiso   1.00
C387   C     0.51208   0.87349   0.09364   0.00000  Uiso   1.00
C388   C     0.51228   0.79330   0.40659   0.00000  Uiso   1.00
C389   C     0.48781   0.87341   0.40634   0.00000  Uiso   1.00
C390   C     0.57927   0.83337   0.25004   0.00000  Uiso   1.00
C391   C     0.48770   0.79323   0.09342   0.00000  Uiso   1.00
C392   C     0.49990   0.83335   0.11673   0.00000  Uiso   1.00
C393   C     0.50005   0.83335   0.38327   0.00000  Uiso   1.00
C394   C     0.49992   0.83336   0.02428   0.00000  Uiso   1.00
C395   C     0.49997   0.83336   0.47571   0.00000  Uiso   1.00
C396   C     0.62388   0.83340   0.24999   0.00000  Uiso   1.00
C397   C     0.37612   0.83327   0.25001   0.00000  Uiso   1.00
C398   C     0.49995   0.83334   0.16497   0.00000  Uiso   1.00
C399   C     0.50004   0.83333   0.33503   0.00000  Uiso   1.00
C400   C     0.47523   0.69137   0.22155   0.00000  Uiso   1.00
C401   C     0.52476   0.97529   0.27846   0.00000  Uiso   1.00
C402   C     0.52483   0.69151   0.27840   0.00000  Uiso   1.00
C403   C     0.47519   0.97515   0.22159   0.00000  Uiso   1.00
C404   C     0.35437   0.79550   0.23153   0.00000  Uiso   1.00
Cu405  Cu    0.50000   0.88022   0.25000   0.00000  Uiso   1.00
Cu406  Cu    0.50000   0.78645   0.25000   0.00000  Uiso   1.00
F407   F     0.45045   0.71449   0.19280   0.00000  Uiso   1.00
F408   F     0.54950   0.95217   0.30726   0.00000  Uiso   1.00
F409   F     0.54993   0.71479   0.30684   0.00000  Uiso   1.00
F410   F     0.45013   0.95187   0.19311   0.00000  Uiso   1.00
F411   F     0.37419   0.75908   0.21241   0.00000  Uiso   1.00
F412   F     0.62581   0.90760   0.28758   0.00000  Uiso   1.00
F413   F     0.62477   0.75916   0.21241   0.00000  Uiso   1.00
F414   F     0.37523   0.90750   0.28761   0.00000  Uiso   1.00
H415   H     0.52283   0.90442   0.03062   0.00000  Uiso   1.00
H416   H     0.52299   0.76245   0.46983   0.00000  Uiso   1.00
H417   H     0.47699   0.90427   0.46935   0.00000  Uiso   1.00
H418   H     0.47698   0.76231   0.03020   0.00000  Uiso   1.00
H419   H     0.52193   0.90473   0.11103   0.00000  Uiso   1.00
H420   H     0.52219   0.76213   0.38939   0.00000  Uiso   1.00
H421   H     0.47793   0.90458   0.38893   0.00000  Uiso   1.00
H422   H     0.47783   0.76199   0.11064   0.00000  Uiso   1.00
N423   N     0.50000   0.95069   0.25000   0.00000  Uiso   1.00
N424   N     0.50000   0.71598   0.25000   0.00000  Uiso   1.00
O425   O     0.43988   0.87291   0.24999   0.00000  Uiso   1.00
O426   O     0.56012   0.79375   0.25000   0.00000  Uiso   1.00
O427   O     0.56012   0.87291   0.25000   0.00000  Uiso   1.00
O428   O     0.43988   0.79375   0.24999   0.00000  Uiso   1.00
O429   O     0.50000   0.87293   0.18573   0.00000  Uiso   1.00
O430   O     0.50000   0.79374   0.31427   0.00000  Uiso   1.00
O431   O     0.50000   0.87293   0.31427   0.00000  Uiso   1.00
O432   O     0.50000   0.79374   0.18573   0.00000  Uiso   1.00
C433   C     0.75406   0.83330   0.24996   0.00000  Uiso   1.00
C434   C     0.97896   0.87117   0.26847   0.00000  Uiso   1.00
C435   C     0.97845   0.79555   0.23152   0.00000  Uiso   1.00
C436   C     0.68821   0.87111   0.26849   0.00000  Uiso   1.00
C437   C     0.84570   0.87339   0.04773   0.00000  Uiso   1.00
C438   C     0.84585   0.79341   0.45251   0.00000  Uiso   1.00
C439   C     0.82082   0.87330   0.45225   0.00000  Uiso   1.00
C440   C     0.82076   0.79334   0.04750   0.00000  Uiso   1.00
C441   C     0.84541   0.87349   0.09364   0.00000  Uiso   1.00
C442   C     0.84561   0.79330   0.40659   0.00000  Uiso   1.00
C443   C     0.82114   0.87341   0.40634   0.00000  Uiso   1.00
C444   C     0.91261   0.83337   0.25004   0.00000  Uiso   1.00
C445   C     0.82103   0.79323   0.09342   0.00000  Uiso   1.00
C446   C     0.83323   0.83335   0.11673   0.00000  Uiso   1.00
C447   C     0.83338   0.83335   0.38327   0.00000  Uiso   1.00
C448   C     0.83325   0.83336   0.02428   0.00000  Uiso   1.00
C449   C     0.83330   0.83336   0.47571   0.00000  Uiso   1.00
C450   C     0.95721   0.83340   0.24999   0.00000  Uiso   1.00
C451   C     0.70945   0.83327   0.25001   0.00000  Uiso   1.00
C452   C     0.83328   0.83334   0.16497   0.00000  Uiso   1.00
C453   C     0.83338   0.83333   0.33503   0.00000  Uiso   1.00
C454   C     0.80857   0.69137   0.22155   0.00000  Uiso   1.00
C455   C     0.85809   0.97529   0.27846   0.00000  Uiso   1.00
C456   C     0.85816   0.69151   0.27840   0.00000  Uiso   1.00
C457   C     0.80852   0.97515   0.22159   0.00000  Uiso   1.00
C458   C     0.68771   0.79550   0.23153   0.00000  Uiso   1.00
Cu459  Cu    0.83333   0.88022   0.25000   0.00000  Uiso   1.00
Cu460  Cu    0.83333   0.78645   0.25000   0.00000  Uiso   1.00
F461   F     0.78378   0.71449   0.19280   0.00000  Uiso   1.00
F462   F     0.88283   0.95217   0.30726   0.00000  Uiso   1.00
F463   F     0.88326   0.71479   0.30684   0.00000  Uiso   1.00
F464   F     0.78346   0.95187   0.19311   0.00000  Uiso   1.00
F465   F     0.70753   0.75908   0.21241   0.00000  Uiso   1.00
F466   F     0.95914   0.90760   0.28758   0.00000  Uiso   1.00
F467   F     0.95810   0.75916   0.21241   0.00000  Uiso   1.00
F468   F     0.70857   0.90750   0.28761   0.00000  Uiso   1.00
H469   H     0.85616   0.90442   0.03062   0.00000  Uiso   1.00
H470   H     0.85632   0.76245   0.46983   0.00000  Uiso   1.00
H471   H     0.81032   0.90427   0.46935   0.00000  Uiso   1.00
H472   H     0.81032   0.76231   0.03020   0.00000  Uiso   1.00
H473   H     0.85526   0.90473   0.11103   0.00000  Uiso   1.00
H474   H     0.85552   0.76213   0.38939   0.00000  Uiso   1.00
H475   H     0.81127   0.90458   0.38893   0.00000  Uiso   1.00
H476   H     0.81116   0.76199   0.11064   0.00000  Uiso   1.00
N477   N     0.83333   0.95069   0.25000   0.00000  Uiso   1.00
N478   N     0.83333   0.71598   0.25000   0.00000  Uiso   1.00
O479   O     0.77321   0.87291   0.24999   0.00000  Uiso   1.00
O480   O     0.89345   0.79375   0.25000   0.00000  Uiso   1.00
O481   O     0.89345   0.87291   0.25000   0.00000  Uiso   1.00
O482   O     0.77321   0.79375   0.24999   0.00000  Uiso   1.00
O483   O     0.83333   0.87293   0.18573   0.00000  Uiso   1.00
O484   O     0.83334   0.79374   0.31427   0.00000  Uiso   1.00
O485   O     0.83334   0.87293   0.31427   0.00000  Uiso   1.00
O486   O     0.83333   0.79374   0.18573   0.00000  Uiso   1.00
C487   C     0.08739   0.16663   0.74996   0.00000  Uiso   1.00
C488   C     0.31229   0.20450   0.76847   0.00000  Uiso   1.00
C489   C     0.31179   0.12889   0.73152   0.00000  Uiso   1.00
C490   C     0.02155   0.20444   0.76849   0.00000  Uiso   1.00
C491   C     0.17904   0.20672   0.54773   0.00000  Uiso   1.00
C492   C     0.17918   0.12675   0.95251   0.00000  Uiso   1.00
C493   C     0.15415   0.20664   0.95225   0.00000  Uiso   1.00
C494   C     0.15409   0.12667   0.54750   0.00000  Uiso   1.00
C495   C     0.17874   0.20682   0.59364   0.00000  Uiso   1.00
C496   C     0.17894   0.12663   0.90659   0.00000  Uiso   1.00
C497   C     0.15448   0.20674   0.90634   0.00000  Uiso   1.00
C498   C     0.24594   0.16670   0.75004   0.00000  Uiso   1.00
C499   C     0.15436   0.12656   0.59342   0.00000  Uiso   1.00
C500   C     0.16657   0.16668   0.61673   0.00000  Uiso   1.00
C501   C     0.16672   0.16668   0.88327   0.00000  Uiso   1.00
C502   C     0.16659   0.16670   0.52428   0.00000  Uiso   1.00
C503   C     0.16664   0.16669   0.97571   0.00000  Uiso   1.00
C504   C     0.29055   0.16673   0.74999   0.00000  Uiso   1.00
C505   C     0.04279   0.16660   0.75001   0.00000  Uiso   1.00
C506   C     0.16661   0.16667   0.66497   0.00000  Uiso   1.00
C507   C     0.16671   0.16667   0.83503   0.00000  Uiso   1.00
C508   C     0.14190   0.02470   0.72155   0.00000  Uiso   1.00
C509   C     0.19142   0.30863   0.77846   0.00000  Uiso   1.00
C510   C     0.19149   0.02484   0.77840   0.00000  Uiso   1.00
C511   C     0.14185   0.30849   0.72159   0.00000  Uiso   1.00
C512   C     0.02104   0.12883   0.73153   0.00000  Uiso   1.00
Cu513  Cu    0.16667   0.21355   0.75000   0.00000  Uiso   1.00
Cu514  Cu    0.16667   0.11978   0.75000   0.00000  Uiso   1.00
F515   F     0.11711   0.04783   0.69280   0.00000  Uiso   1.00
F516   F     0.21616   0.28550   0.80726   0.00000  Uiso   1.00
F517   F     0.21660   0.04812   0.80684   0.00000  Uiso   1.00
F518   F     0.11679   0.28521   0.69311   0.00000  Uiso   1.00
F519   F     0.04086   0.09241   0.71241   0.00000  Uiso   1.00
F520   F     0.29248   0.24093   0.78758   0.00000  Uiso   1.00
F521   F     0.29144   0.09249   0.71241   0.00000  Uiso   1.00
F522   F     0.04190   0.24083   0.78761   0.00000  Uiso   1.00
H523   H     0.18949   0.23776   0.53062   0.00000  Uiso   1.00
H524   H     0.18965   0.09579   0.96983   0.00000  Uiso   1.00
H525   H     0.14365   0.23760   0.96935   0.00000  Uiso   1.00
H526   H     0.14365   0.09564   0.53020   0.00000  Uiso   1.00
H527   H     0.18859   0.23806   0.61103   0.00000  Uiso   1.00
H528   H     0.18885   0.09546   0.88939   0.00000  Uiso   1.00
H529   H     0.14460   0.23791   0.88893   0.00000  Uiso   1.00
H530   H     0.14450   0.09533   0.61064   0.00000  Uiso   1.00
N531   N     0.16667   0.28402   0.75000   0.00000  Uiso   1.00
N532   N     0.16667   0.04931   0.75000   0.00000  Uiso   1.00
O533   O     0.10655   0.20625   0.74999   0.00000  Uiso   1.00
O534   O     0.22679   0.12709   0.75000   0.00000  Uiso   1.00
O535   O     0.22679   0.20625   0.75000   0.00000  Uiso   1.00
O536   O     0.10655   0.12709   0.74999   0.00000  Uiso   1.00
O537   O     0.16666   0.20626   0.68573   0.00000  Uiso   1.00
O538   O     0.16667   0.12707   0.81427   0.00000  Uiso   1.00
O539   O     0.16667   0.20626   0.81427   0.00000  Uiso   1.00
O540   O     0.16666   0.12707   0.68573   0.00000  Uiso   1.00
C541   C     0.42073   0.16663   0.74996   0.00000  Uiso   1.00
C542   C     0.64563   0.20450   0.76847   0.00000  Uiso   1.00
C543   C     0.64512   0.12889   0.73152   0.00000  Uiso   1.00
C544   C     0.35488   0.20444   0.76849   0.00000  Uiso   1.00
C545   C     0.51237   0.20672   0.54773   0.00000  Uiso   1.00
C546   C     0.51252   0.12675   0.95251   0.00000  Uiso   1.00
C547   C     0.48749   0.20664   0.95225   0.00000  Uiso   1.00
C548   C     0.48743   0.12667   0.54750   0.00000  Uiso   1.00
C549   C     0.51208   0.20682   0.59364   0.00000  Uiso   1.00
C550   C     0.51228   0.12663   0.90659   0.00000  Uiso   1.00
C551   C     0.48781   0.20674   0.90634   0.00000  Uiso   1.00
C552   C     0.57927   0.16670   0.75004   0.00000  Uiso   1.00
C553   C     0.48770   0.12656   0.59342   0.00000  Uiso   1.00
C554   C     0.49990   0.16668   0.61673   0.00000  Uiso   1.00
C555   C     0.50005   0.16668   0.88327   0.00000  Uiso   1.00
C556   C     0.49992   0.16670   0.52428   0.00000  Uiso   1.00
C557   C     0.49997   0.16669   0.97571   0.00000  Uiso   1.00
C558   C     0.62388   0.16673   0.74999   0.00000  Uiso   1.00
C559   C     0.37612   0.16660   0.75001   0.00000  Uiso   1.00
C560   C     0.49995   0.16667   0.66497   0.00000  Uiso   1.00
C561   C     0.50004   0.16667   0.83503   0.00000  Uiso   1.00
C562   C     0.47523   0.02470   0.72155   0.00000  Uiso   1.00
C563   C     0.52476   0.30863   0.77846   0.00000  Uiso   1.00
C564   C     0.52483   0.02484   0.77840   0.00000  Uiso   1.00
C565   C     0.47519   0.30849   0.72159   0.00000  Uiso   1.00
C566   C     0.35437   0.12883   0.73153   0.00000  Uiso   1.00
Cu567  Cu    0.50000   0.21355   0.75000   0.00000  Uiso   1.00
Cu568  Cu    0.50000   0.11978   0.75000   0.00000  Uiso   1.00
F569   F     0.45045   0.04783   0.69280   0.00000  Uiso   1.00
F570   F     0.54950   0.28550   0.80726   0.00000  Uiso   1.00
F571   F     0.54993   0.04812   0.80684   0.00000  Uiso   1.00
F572   F     0.45013   0.28521   0.69311   0.00000  Uiso   1.00
F573   F     0.37419   0.09241   0.71241   0.00000  Uiso   1.00
F574   F     0.62581   0.24093   0.78758   0.00000  Uiso   1.00
F575   F     0.62477   0.09249   0.71241   0.00000  Uiso   1.00
F576   F     0.37523   0.24083   0.78761   0.00000  Uiso   1.00
H577   H     0.52283   0.23776   0.53062   0.00000  Uiso   1.00
H578   H     0.52299   0.09579   0.96983   0.00000  Uiso   1.00
H579   H     0.47699   0.23760   0.96935   0.00000  Uiso   1.00
H580   H     0.47698   0.09564   0.53020   0.00000  Uiso   1.00
H581   H     0.52193   0.23806   0.61103   0.00000  Uiso   1.00
H582   H     0.52219   0.09546   0.88939   0.00000  Uiso   1.00
H583   H     0.47793   0.23791   0.88893   0.00000  Uiso   1.00
H584   H     0.47783   0.09533   0.61064   0.00000  Uiso   1.00
N585   N     0.50000   0.28402   0.75000   0.00000  Uiso   1.00
N586   N     0.50000   0.04931   0.75000   0.00000  Uiso   1.00
O587   O     0.43988   0.20625   0.74999   0.00000  Uiso   1.00
O588   O     0.56012   0.12709   0.75000   0.00000  Uiso   1.00
O589   O     0.56012   0.20625   0.75000   0.00000  Uiso   1.00
O590   O     0.43988   0.12709   0.74999   0.00000  Uiso   1.00
O591   O     0.50000   0.20626   0.68573   0.00000  Uiso   1.00
O592   O     0.50000   0.12707   0.81427   0.00000  Uiso   1.00
O593   O     0.50000   0.20626   0.81427   0.00000  Uiso   1.00
O594   O     0.50000   0.12707   0.68573   0.00000  Uiso   1.00
C595   C     0.75406   0.16663   0.74996   0.00000  Uiso   1.00
C596   C     0.97896   0.20450   0.76847   0.00000  Uiso   1.00
C597   C     0.97845   0.12889   0.73152   0.00000  Uiso   1.00
C598   C     0.68821   0.20444   0.76849   0.00000  Uiso   1.00
C599   C     0.84570   0.20672   0.54773   0.00000  Uiso   1.00
C600   C     0.84585   0.12675   0.95251   0.00000  Uiso   1.00
C601   C     0.82082   0.20664   0.95225   0.00000  Uiso   1.00
C602   C     0.82076   0.12667   0.54750   0.00000  Uiso   1.00
C603   C     0.84541   0.20682   0.59364   0.00000  Uiso   1.00
C604   C     0.84561   0.12663   0.90659   0.00000  Uiso   1.00
C605   C     0.82114   0.20674   0.90634   0.00000  Uiso   1.00
C606   C     0.91261   0.16670   0.75004   0.00000  Uiso   1.00
C607   C     0.82103   0.12656   0.59342   0.00000  Uiso   1.00
C608   C     0.83323   0.16668   0.61673   0.00000  Uiso   1.00
C609   C     0.83338   0.16668   0.88327   0.00000  Uiso   1.00
C610   C     0.83325   0.16670   0.52428   0.00000  Uiso   1.00
C611   C     0.83330   0.16669   0.97571   0.00000  Uiso   1.00
C612   C     0.95721   0.16673   0.74999   0.00000  Uiso   1.00
C613   C     0.70945   0.16660   0.75001   0.00000  Uiso   1.00
C614   C     0.83328   0.16667   0.66497   0.00000  Uiso   1.00
C615   C     0.83338   0.16667   0.83503   0.00000  Uiso   1.00
C616   C     0.80857   0.02470   0.72155   0.00000  Uiso   1.00
C617   C     0.85809   0.30863   0.77846   0.00000  Uiso   1.00
C618   C     0.85816   0.02484   0.77840   0.00000  Uiso   1.00
C619   C     0.80852   0.30849   0.72159   0.00000  Uiso   1.00
C620   C     0.68771   0.12883   0.73153   0.00000  Uiso   1.00
Cu621  Cu    0.83333   0.21355   0.75000   0.00000  Uiso   1.00
Cu622  Cu    0.83333   0.11978   0.75000   0.00000  Uiso   1.00
F623   F     0.78378   0.04783   0.69280   0.00000  Uiso   1.00
F624   F     0.88283   0.28550   0.80726   0.00000  Uiso   1.00
F625   F     0.88326   0.04812   0.80684   0.00000  Uiso   1.00
F626   F     0.78346   0.28521   0.69311   0.00000  Uiso   1.00
F627   F     0.70753   0.09241   0.71241   0.00000  Uiso   1.00
F628   F     0.95914   0.24093   0.78758   0.00000  Uiso   1.00
F629   F     0.95810   0.09249   0.71241   0.00000  Uiso   1.00
F630   F     0.70857   0.24083   0.78761   0.00000  Uiso   1.00
H631   H     0.85616   0.23776   0.53062   0.00000  Uiso   1.00
H632   H     0.85632   0.09579   0.96983   0.00000  Uiso   1.00
H633   H     0.81032   0.23760   0.96935   0.00000  Uiso   1.00
H634   H     0.81032   0.09564   0.53020   0.00000  Uiso   1.00
H635   H     0.85526   0.23806   0.61103   0.00000  Uiso   1.00
H636   H     0.85552   0.09546   0.88939   0.00000  Uiso   1.00
H637   H     0.81127   0.23791   0.88893   0.00000  Uiso   1.00
H638   H     0.81116   0.09533   0.61064   0.00000  Uiso   1.00
N639   N     0.83333   0.28402   0.75000   0.00000  Uiso   1.00
N640   N     0.83333   0.04931   0.75000   0.00000  Uiso   1.00
O641   O     0.77321   0.20625   0.74999   0.00000  Uiso   1.00
O642   O     0.89345   0.12709   0.75000   0.00000  Uiso   1.00
O643   O     0.89345   0.20625   0.75000   0.00000  Uiso   1.00
O644   O     0.77321   0.12709   0.74999   0.00000  Uiso   1.00
O645   O     0.83333   0.20626   0.68573   0.00000  Uiso   1.00
O646   O     0.83334   0.12707   0.81427   0.00000  Uiso   1.00
O647   O     0.83334   0.20626   0.81427   0.00000  Uiso   1.00
O648   O     0.83333   0.12707   0.68573   0.00000  Uiso   1.00
C649   C     0.08739   0.49996   0.74996   0.00000  Uiso   1.00
C650   C     0.31229   0.53784   0.76847   0.00000  Uiso   1.00
C651   C     0.31179   0.46222   0.73152   0.00000  Uiso   1.00
C652   C     0.02155   0.53778   0.76849   0.00000  Uiso   1.00
C653   C     0.17904   0.54006   0.54773   0.00000  Uiso   1.00
C654   C     0.17918   0.46008   0.95251   0.00000  Uiso   1.00
C655   C     0.15415   0.53997   0.95225   0.00000  Uiso   1.00
C656   C     0.15409   0.46001   0.54750   0.00000  Uiso   1.00
C657   C     0.17874   0.54016   0.59364   0.00000  Uiso   1.00
C658   C     0.17894   0.45997   0.90659   0.00000  Uiso   1.00
C659   C     0.15448   0.54007   0.90634   0.00000  Uiso   1.00
C660   C     0.24594   0.50004   0.75004   0.00000  Uiso   1.00
C661   C     0.15436   0.45989   0.59342   0.00000  Uiso   1.00
C662   C     0.16657   0.50002   0.61673   0.00000  Uiso   1.00
C663   C     0.16672   0.50001   0.88327   0.00000  Uiso   1.00
C664   C     0.16659   0.50003   0.52428   0.00000  Uiso   1.00
C665   C     0.16664   0.50002   0.97571   0.00000  Uiso   1.00
C666   C     0.29055   0.50006   0.74999   0.00000  Uiso   1.00
C667   C     0.04279   0.49994   0.75001   0.00000  Uiso   1.00
C668   C     0.16661   0.50000   0.66497   0.00000  Uiso   1.00
C669   C     0.16671   0.50000   0.83503   0.00000  Uiso   1.00
C670   C     0.14190   0.35804   0.72155   0.00000  Uiso   1.00
C671   C     0.19142   0.64196   0.77846   0.00000  Uiso   1.00
C672   C     0.19149   0.35818   0.77840   0.00000  Uiso   1.00
C673   C     0.14185   0.64182   0.72159   0.00000  Uiso   1.00
C674   C     0.02104   0.46217   0.73153   0.00000  Uiso   1.00
Cu675  Cu    0.16667   0.54689   0.75000   0.00000  Uiso   1.00
Cu676  Cu    0.16667   0.45311   0.75000   0.00000  Uiso   1.00
F677   F     0.11711   0.38116   0.69280   0.00000  Uiso   1.00
F678   F     0.21616   0.61883   0.80726   0.00000  Uiso   1.00
F679   F     0.21660   0.38145   0.80684   0.00000  Uiso   1.00
F680   F     0.11679   0.61854   0.69311   0.00000  Uiso   1.00
F681   F     0.04086   0.42574   0.71241   0.00000  Uiso   1.00
F682   F     0.29248   0.57426   0.78758   0.00000  Uiso   1.00
F683   F     0.29144   0.42583   0.71241   0.00000  Uiso   1.00
F684   F     0.04190   0.57417   0.78761   0.00000  Uiso   1.00
H685   H     0.18949   0.57109   0.53062   0.00000  Uiso   1.00
H686   H     0.18965   0.42912   0.96983   0.00000  Uiso   1.00
H687   H     0.14365   0.57094   0.96935   0.00000  Uiso   1.00
H688   H     0.14365   0.42898   0.53020   0.00000  Uiso   1.00
H689   H     0.18859   0.57139   0.61103   0.00000  Uiso   1.00
H690   H     0.18885   0.42880   0.88939   0.00000  Uiso   1.00
H691   H     0.14460   0.57124   0.88893   0.00000  Uiso   1.00
H692   H     0.14450   0.42866   0.61064   0.00000  Uiso   1.00
N693   N     0.16667   0.61736   0.75000   0.00000  Uiso   1.00
N694   N     0.16667   0.38264   0.75000   0.00000  Uiso   1.00
O695   O     0.10655   0.53958   0.74999   0.00000  Uiso   1.00
O696   O     0.22679   0.46042   0.75000   0.00000  Uiso   1.00
O697   O     0.22679   0.53958   0.75000   0.00000  Uiso   1.00
O698   O     0.10655   0.46042   0.74999   0.00000  Uiso   1.00
O699   O     0.16666   0.53959   0.68573   0.00000  Uiso   1.00
O700   O     0.16667   0.46041   0.81427   0.00000  Uiso   1.00
O701   O     0.16667   0.53959   0.81427   0.00000  Uiso   1.00
O702   O     0.16666   0.46041   0.68573   0.00000  Uiso   1.00
C703   C     0.42073   0.49996   0.74996   0.00000  Uiso   1.00
C704   C     0.64563   0.53784   0.76847   0.00000  Uiso   1.00
C705   C     0.64512   0.46222   0.73152   0.00000  Uiso   1.00
C706   C     0.35488   0.53778   0.76849   0.00000  Uiso   1.00
C707   C     0.51237   0.54006   0.54773   0.00000  Uiso   1.00
C708   C     0.51252   0.46008   0.95251   0.00000  Uiso   1.00
C709   C     0.48749   0.53997   0.95225   0.00000  Uiso   1.00
C710   C     0.48743   0.46001   0.54750   0.00000  Uiso   1.00
C711   C     0.51208   0.54016   0.59364   0.00000  Uiso   1.00
C712   C     0.51228   0.45997   0.90659   0.00000  Uiso   1.00
C713   C     0.48781   0.54007   0.90634   0.00000  Uiso   1.00
C714   C     0.57927   0.50004   0.75004   0.00000  Uiso   1.00
C715   C     0.48770   0.45989   0.59342   0.00000  Uiso   1.00
C716   C     0.49990   0.50002   0.61673   0.00000  Uiso   1.00
C717   C     0.50005   0.50001   0.88327   0.00000  Uiso   1.00
C718   C     0.49992   0.50003   0.52428   0.00000  Uiso   1.00
C719   C     0.49997   0.50002   0.97571   0.00000  Uiso   1.00
C720   C     0.62388   0.50006   0.74999   0.00000  Uiso   1.00
C721   C     0.37612   0.49994   0.75001   0.00000  Uiso   1.00
C722   C     0.49995   0.50000   0.66497   0.00000  Uiso   1.00
C723   C     0.50004   0.50000   0.83503   0.00000  Uiso   1.00
C724   C     0.47523   0.35804   0.72155   0.00000  Uiso   1.00
C725   C     0.52476   0.64196   0.77846   0.00000  Uiso   1.00
C726   C     0.52483   0.35818   0.77840   0.00000  Uiso   1.00
C727   C     0.47519   0.64182   0.72159   0.00000  Uiso   1.00
C728   C     0.35437   0.46217   0.73153   0.00000  Uiso   1.00
Cu729  Cu    0.50000   0.54689   0.75000   0.00000  Uiso   1.00
Cu730  Cu    0.50000   0.45311   0.75000   0.00000  Uiso   1.00
F731   F     0.45045   0.38116   0.69280   0.00000  Uiso   1.00
F732   F     0.54950   0.61883   0.80726   0.00000  Uiso   1.00
F733   F     0.54993   0.38145   0.80684   0.00000  Uiso   1.00
F734   F     0.45013   0.61854   0.69311   0.00000  Uiso   1.00
F735   F     0.37419   0.42574   0.71241   0.00000  Uiso   1.00
F736   F     0.62581   0.57426   0.78758   0.00000  Uiso   1.00
F737   F     0.62477   0.42583   0.71241   0.00000  Uiso   1.00
F738   F     0.37523   0.57417   0.78761   0.00000  Uiso   1.00
H739   H     0.52283   0.57109   0.53062   0.00000  Uiso   1.00
H740   H     0.52299   0.42912   0.96983   0.00000  Uiso   1.00
H741   H     0.47699   0.57094   0.96935   0.00000  Uiso   1.00
H742   H     0.47698   0.42898   0.53020   0.00000  Uiso   1.00
H743   H     0.52193   0.57139   0.61103   0.00000  Uiso   1.00
H744   H     0.52219   0.42880   0.88939   0.00000  Uiso   1.00
H745   H     0.47793   0.57124   0.88893   0.00000  Uiso   1.00
H746   H     0.47783   0.42866   0.61064   0.00000  Uiso   1.00
N747   N     0.50000   0.61736   0.75000   0.00000  Uiso   1.00
N748   N     0.50000   0.38264   0.75000   0.00000  Uiso   1.00
O749   O     0.43988   0.53958   0.74999   0.00000  Uiso   1.00
O750   O     0.56012   0.46042   0.75000   0.00000  Uiso   1.00
O751   O     0.56012   0.53958   0.75000   0.00000  Uiso   1.00
O752   O     0.43988   0.46042   0.74999   0.00000  Uiso   1.00
O753   O     0.50000   0.53959   0.68573   0.00000  Uiso   1.00
O754   O     0.50000   0.46041   0.81427   0.00000  Uiso   1.00
O755   O     0.50000   0.53959   0.81427   0.00000  Uiso   1.00
O756   O     0.50000   0.46041   0.68573   0.00000  Uiso   1.00
C757   C     0.75406   0.49996   0.74996   0.00000  Uiso   1.00
C758   C     0.97896   0.53784   0.76847   0.00000  Uiso   1.00
C759   C     0.97845   0.46222   0.73152   0.00000  Uiso   1.00
C760   C     0.68821   0.53778   0.76849   0.00000  Uiso   1.00
C761   C     0.84570   0.54006   0.54773   0.00000  Uiso   1.00
C762   C     0.84585   0.46008   0.95251   0.00000  Uiso   1.00
C763   C     0.82082   0.53997   0.95225   0.00000  Uiso   1.00
C764   C     0.82076   0.46001   0.54750   0.00000  Uiso   1.00
C765   C     0.84541   0.54016   0.59364   0.00000  Uiso   1.00
C766   C     0.84561   0.45997   0.90659   0.00000  Uiso   1.00
C767   C     0.82114   0.54007   0.90634   0.00000  Uiso   1.00
C768   C     0.91261   0.50004   0.75004   0.00000  Uiso   1.00
C769   C     0.82103   0.45989   0.59342   0.00000  Uiso   1.00
C770   C     0.83323   0.50002   0.61673   0.00000  Uiso   1.00
C771   C     0.83338   0.50001   0.88327   0.00000  Uiso   1.00
C772   C     0.83325   0.50003   0.52428   0.00000  Uiso   1.00
C773   C     0.83330   0.50002   0.97571   0.00000  Uiso   1.00
C774   C     0.95721   0.50006   0.74999   0.00000  Uiso   1.00
C775   C     0.70945   0.49994   0.75001   0.00000  Uiso   1.00
C776   C     0.83328   0.50000   0.66497   0.00000  Uiso   1.00
C777   C     0.83338   0.50000   0.83503   0.00000  Uiso   1.00
C778   C     0.80857   0.35804   0.72155   0.00000  Uiso   1.00
C779   C     0.85809   0.64196   0.77846   0.00000  Uiso   1.00
C780   C     0.85816   0.35818   0.77840   0.00000  Uiso   1.00
C781   C     0.80852   0.64182   0.72159   0.00000  Uiso   1.00
C782   C     0.68771   0.46217   0.73153   0.00000  Uiso   1.00
Cu783  Cu    0.83333   0.54689   0.75000   0.00000  Uiso   1.00
Cu784  Cu    0.83333   0.45311   0.75000   0.00000  Uiso   1.00
F785   F     0.78378   0.38116   0.69280   0.00000  Uiso   1.00
F786   F     0.88283   0.61883   0.80726   0.00000  Uiso   1.00
F787   F     0.88326   0.38145   0.80684   0.00000  Uiso   1.00
F788   F     0.78346   0.61854   0.69311   0.00000  Uiso   1.00
F789   F     0.70753   0.42574   0.71241   0.00000  Uiso   1.00
F790   F     0.95914   0.57426   0.78758   0.00000  Uiso   1.00
F791   F     0.95810   0.42583   0.71241   0.00000  Uiso   1.00
F792   F     0.70857   0.57417   0.78761   0.00000  Uiso   1.00
H793   H     0.85616   0.57109   0.53062   0.00000  Uiso   1.00
H794   H     0.85632   0.42912   0.96983   0.00000  Uiso   1.00
H795   H     0.81032   0.57094   0.96935   0.00000  Uiso   1.00
H796   H     0.81032   0.42898   0.53020   0.00000  Uiso   1.00
H797   H     0.85526   0.57139   0.61103   0.00000  Uiso   1.00
H798   H     0.85552   0.42880   0.88939   0.00000  Uiso   1.00
H799   H     0.81127   0.57124   0.88893   0.00000  Uiso   1.00
H800   H     0.81116   0.42866   0.61064   0.00000  Uiso   1.00
N801   N     0.83333   0.61736   0.75000   0.00000  Uiso   1.00
N802   N     0.83333   0.38264   0.75000   0.00000  Uiso   1.00
O803   O     0.77321   0.53958   0.74999   0.00000  Uiso   1.00
O804   O     0.89345   0.46042   0.75000   0.00000  Uiso   1.00
O805   O     0.89345   0.53958   0.75000   0.00000  Uiso   1.00
O806   O     0.77321   0.46042   0.74999   0.00000  Uiso   1.00
O807   O     0.83333   0.53959   0.68573   0.00000  Uiso   1.00
O808   O     0.83334   0.46041   0.81427   0.00000  Uiso   1.00
O809   O     0.83334   0.53959   0.81427   0.00000  Uiso   1.00
O810   O     0.83333   0.46041   0.68573   0.00000  Uiso   1.00
C811   C     0.08739   0.83330   0.74996   0.00000  Uiso   1.00
C812   C     0.31229   0.87117   0.76847   0.00000  Uiso   1.00
C813   C     0.31179   0.79555   0.73152   0.00000  Uiso   1.00
C814   C     0.02155   0.87111   0.76849   0.00000  Uiso   1.00
C815   C     0.17904   0.87339   0.54773   0.00000  Uiso   1.00
C816   C     0.17918   0.79341   0.95251   0.00000  Uiso   1.00
C817   C     0.15415   0.87330   0.95225   0.00000  Uiso   1.00
C818   C     0.15409   0.79334   0.54750   0.00000  Uiso   1.00
C819   C     0.17874   0.87349   0.59364   0.00000  Uiso   1.00
C820   C     0.17894   0.79330   0.90659   0.00000  Uiso   1.00
C821   C     0.15448   0.87341   0.90634   0.00000  Uiso   1.00
C822   C     0.24594   0.83337   0.75004   0.00000  Uiso   1.00
C823   C     0.15436   0.79323   0.59342   0.00000  Uiso   1.00
C824   C     0.16657   0.83335   0.61673   0.00000  Uiso   1.00
C825   C     0.16672   0.83335   0.88327   0.00000  Uiso   1.00
C826   C     0.16659   0.83336   0.52428   0.00000  Uiso   1.00
C827   C     0.16664   0.83336   0.97571   0.00000  Uiso   1.00
C828   C     0.29055   0.83340   0.74999   0.00000  Uiso   1.00
C829   C     0.04279   0.83327   0.75001   0.00000  Uiso   1.00
C830   C     0.16661   0.83334   0.66497   0.00000  Uiso   1.00
C831   C     0.16671   0.83333   0.83503   0.00000  Uiso   1.00
C832   C     0.14190   0.69137   0.72155   0.00000  Uiso   1.00
C833   C     0.19142   0.97529   0.77846   0.00000  Uiso   1.00
C834   C     0.19149   0.69151   0.77840   0.00000  Uiso   1.00
C835   C     0.14185   0.97515   0.72159   0.00000  Uiso   1.00
C836   C     0.02104   0.79550   0.73153   0.00000  Uiso   1.00
Cu837  Cu    0.16667   0.88022   0.75000   0.00000  Uiso   1.00
Cu838  Cu    0.16667   0.78645   0.75000   0.00000  Uiso   1.00
F839   F     0.11711   0.71449   0.69280   0.00000  Uiso   1.00
F840   F     0.21616   0.95217   0.80726   0.00000  Uiso   1.00
F841   F     0.21660   0.71479   0.80684   0.00000  Uiso   1.00
F842   F     0.11679   0.95187   0.69311   0.00000  Uiso   1.00
F843   F     0.04086   0.75908   0.71241   0.00000  Uiso   1.00
F844   F     0.29248   0.90760   0.78758   0.00000  Uiso   1.00
F845   F     0.29144   0.75916   0.71241   0.00000  Uiso   1.00
F846   F     0.04190   0.90750   0.78761   0.00000  Uiso   1.00
H847   H     0.18949   0.90442   0.53062   0.00000  Uiso   1.00
H848   H     0.18965   0.76245   0.96983   0.00000  Uiso   1.00
H849   H     0.14365   0.90427   0.96935   0.00000  Uiso   1.00
H850   H     0.14365   0.76231   0.53020   0.00000  Uiso   1.00
H851   H     0.18859   0.90473   0.61103   0.00000  Uiso   1.00
H852   H     0.18885   0.76213   0.88939   0.00000  Uiso   1.00
H853   H     0.14460   0.90458   0.88893   0.00000  Uiso   1.00
H854   H     0.14450   0.76199   0.61064   0.00000  Uiso   1.00
N855   N     0.16667   0.95069   0.75000   0.00000  Uiso   1.00
N856   N     0.16667   0.71598   0.75000   0.00000  Uiso   1.00
O857   O     0.10655   0.87291   0.74999   0.00000  Uiso   1.00
O858   O     0.22679   0.79375   0.75000   0.00000  Uiso   1.00
O859   O     0.22679   0.87291   0.75000   0.00000  Uiso   1.00
O860   O     0.10655   0.79375   0.74999   0.00000  Uiso   1.00
O861   O     0.16666   0.87293   0.68573   0.00000  Uiso   1.00
O862   O     0.16667   0.79374   0.81427   0.00000  Uiso   1.00
O863   O     0.16667   0.87293   0.81427   0.00000  Uiso   1.00
O864   O     0.16666   0.79374   0.68573   0.00000  Uiso   1.00
C865   C     0.42073   0.83330   0.74996   0.00000  Uiso   1.00
C866   C     0.64563   0.87117   0.76847   0.00000  Uiso   1.00
C867   C     0.64512   0.79555   0.73152   0.00000  Uiso   1.00
C868   C     0.35488   0.87111   0.76849   0.00000  Uiso   1.00
C869   C     0.51237   0.87339   0.54773   0.00000  Uiso   1.00
C870   C     0.51252   0.79341   0.95251   0.00000  Uiso   1.00
C871   C     0.48749   0.87330   0.95225   0.00000  Uiso   1.00
C872   C     0.48743   0.79334   0.54750   0.00000  Uiso   1.00
C873   C     0.51208   0.87349   0.59364   0.00000  Uiso   1.00
C874   C     0.51228   0.79330   0.90659   0.00000  Uiso   1.00
C875   C     0.48781   0.87341   0.90634   0.00000  Uiso   1.00
C876   C     0.57927   0.83337   0.75004   0.00000  Uiso   1.00
C877   C     0.48770   0.79323   0.59342   0.00000  Uiso   1.00
C878   C     0.49990   0.83335   0.61673   0.00000  Uiso   1.00
C879   C     0.50005   0.83335   0.88327   0.00000  Uiso   1.00
C880   C     0.49992   0.83336   0.52428   0.00000  Uiso   1.00
C881   C     0.49997   0.83336   0.97571   0.00000  Uiso   1.00
C882   C     0.62388   0.83340   0.74999   0.00000  Uiso   1.00
C883   C     0.37612   0.83327   0.75001   0.00000  Uiso   1.00
C884   C     0.49995   0.83334   0.66497   0.00000  Uiso   1.00
C885   C     0.50004   0.83333   0.83503   0.00000  Uiso   1.00
C886   C     0.47523   0.69137   0.72155   0.00000  Uiso   1.00
C887   C     0.52476   0.97529   0.77846   0.00000  Uiso   1.00
C888   C     0.52483   0.69151   0.77840   0.00000  Uiso   1.00
C889   C     0.47519   0.97515   0.72159   0.00000  Uiso   1.00
C890   C     0.35437   0.79550   0.73153   0.00000  Uiso   1.00
Cu891  Cu    0.50000   0.88022   0.75000   0.00000  Uiso   1.00
Cu892  Cu    0.50000   0.78645   0.75000   0.00000  Uiso   1.00
F893   F     0.45045   0.71449   0.69280   0.00000  Uiso   1.00
F894   F     0.54950   0.95217   0.80726   0.00000  Uiso   1.00
F895   F     0.54993   0.71479   0.80684   0.00000  Uiso   1.00
F896   F     0.45013   0.95187   0.69311   0.00000  Uiso   1.00
F897   F     0.37419   0.75908   0.71241   0.00000  Uiso   1.00
F898   F     0.62581   0.90760   0.78758   0.00000  Uiso   1.00
F899   F     0.62477   0.75916   0.71241   0.00000  Uiso   1.00
F900   F     0.37523   0.90750   0.78761   0.00000  Uiso   1.00
H901   H     0.52283   0.90442   0.53062   0.00000  Uiso   1.00
H902   H     0.52299   0.76245   0.96983   0.00000  Uiso   1.00
H903   H     0.47699   0.90427   0.96935   0.00000  Uiso   1.00
H904   H     0.47698   0.76231   0.53020   0.00000  Uiso   1.00
H905   H     0.52193   0.90473   0.61103   0.00000  Uiso   1.00
H906   H     0.52219   0.76213   0.88939   0.00000  Uiso   1.00
H907   H     0.47793   0.90458   0.88893   0.00000  Uiso   1.00
H908   H     0.47783   0.76199   0.61064   0.00000  Uiso   1.00
N909   N     0.50000   0.95069   0.75000   0.00000  Uiso   1.00
N910   N     0.50000   0.71598   0.75000   0.00000  Uiso   1.00
O911   O     0.43988   0.87291   0.74999   0.00000  Uiso   1.00
O912   O     0.56012   0.79375   0.75000   0.00000  Uiso   1.00
O913   O     0.56012   0.87291   0.75000   0.00000  Uiso   1.00
O914   O     0.43988   0.79375   0.74999   0.00000  Uiso   1.00
O915   O     0.50000   0.87293   0.68573   0.00000  Uiso   1.00
O916   O     0.50000   0.79374   0.81427   0.00000  Uiso   1.00
O917   O     0.50000   0.87293   0.81427   0.00000  Uiso   1.00
O918   O     0.50000   0.79374   0.68573   0.00000  Uiso   1.00
C919   C     0.75406   0.83330   0.74996   0.00000  Uiso   1.00
C920   C     0.97896   0.87117   0.76847   0.00000  Uiso   1.00
C921   C     0.97845   0.79555   0.73152   0.00000  Uiso   1.00
C922   C     0.68821   0.87111   0.76849   0.00000  Uiso   1.00
C923   C     0.84570   0.87339   0.54773   0.00000  Uiso   1.00
C924   C     0.84585   0.79341   0.95251   0.00000  Uiso   1.00
C925   C     0.82082   0.87330   0.95225   0.00000  Uiso   1.00
C926   C     0.82076   0.79334   0.54750   0.00000  Uiso   1.00
C927   C     0.84541   0.87349   0.59364   0.00000  Uiso   1.00
C928   C     0.84561   0.79330   0.90659   0.00000  Uiso   1.00
C929   C     0.82114   0.87341   0.90634   0.00000  Uiso   1.00
C930   C     0.91261   0.83337   0.75004   0.00000  Uiso   1.00
C931   C     0.82103   0.79323   0.59342   0.00000  Uiso   1.00
C932   C     0.83323   0.83335   0.61673   0.00000  Uiso   1.00
C933   C     0.83338   0.83335   0.88327   0.00000  Uiso   1.00
C934   C     0.83325   0.83336   0.52428   0.00000  Uiso   1.00
C935   C     0.83330   0.83336   0.97571   0.00000  Uiso   1.00
C936   C     0.95721   0.83340   0.74999   0.00000  Uiso   1.00
C937   C     0.70945   0.83327   0.75001   0.00000  Uiso   1.00
C938   C     0.83328   0.83334   0.66497   0.00000  Uiso   1.00
C939   C     0.83338   0.83333   0.83503   0.00000  Uiso   1.00
C940   C     0.80857   0.69137   0.72155   0.00000  Uiso   1.00
C941   C     0.85809   0.97529   0.77846   0.00000  Uiso   1.00
C942   C     0.85816   0.69151   0.77840   0.00000  Uiso   1.00
C943   C     0.80852   0.97515   0.72159   0.00000  Uiso   1.00
C944   C     0.68771   0.79550   0.73153   0.00000  Uiso   1.00
Cu945  Cu    0.83333   0.88022   0.75000   0.00000  Uiso   1.00
Cu946  Cu    0.83333   0.78645   0.75000   0.00000  Uiso   1.00
F947   F     0.78378   0.71449   0.69280   0.00000  Uiso   1.00
F948   F     0.88283   0.95217   0.80726   0.00000  Uiso   1.00
F949   F     0.88326   0.71479   0.80684   0.00000  Uiso   1.00
F950   F     0.78346   0.95187   0.69311   0.00000  Uiso   1.00
F951   F     0.70753   0.75908   0.71241   0.00000  Uiso   1.00
F952   F     0.95914   0.90760   0.78758   0.00000  Uiso   1.00
F953   F     0.95810   0.75916   0.71241   0.00000  Uiso   1.00
F954   F     0.70857   0.90750   0.78761   0.00000  Uiso   1.00
H955   H     0.85616   0.90442   0.53062   0.00000  Uiso   1.00
H956   H     0.85632   0.76245   0.96983   0.00000  Uiso   1.00
H957   H     0.81032   0.90427   0.96935   0.00000  Uiso   1.00
H958   H     0.81032   0.76231   0.53020   0.00000  Uiso   1.00
H959   H     0.85526   0.90473   0.61103   0.00000  Uiso   1.00
H960   H     0.85552   0.76213   0.88939   0.00000  Uiso   1.00
H961   H     0.81127   0.90458   0.88893   0.00000  Uiso   1.00
H962   H     0.81116   0.76199   0.61064   0.00000  Uiso   1.00
N963   N     0.83333   0.95069   0.75000   0.00000  Uiso   1.00
N964   N     0.83333   0.71598   0.75000   0.00000  Uiso   1.00
O965   O     0.77321   0.87291   0.74999   0.00000  Uiso   1.00
O966   O     0.89345   0.79375   0.75000   0.00000  Uiso   1.00
O967   O     0.89345   0.87291   0.75000   0.00000  Uiso   1.00
O968   O     0.77321   0.79375   0.74999   0.00000  Uiso   1.00
O969   O     0.83333   0.87293   0.68573   0.00000  Uiso   1.00
O970   O     0.83334   0.79374   0.81427   0.00000  Uiso   1.00
O971   O     0.83334   0.87293   0.81427   0.00000  Uiso   1.00
O972   O     0.83333   0.79374   0.68573   0.00000  Uiso   1.00
loop_
_geom_bond_atom_site_label_1
_geom_bond_atom_site_label_2
_geom_bond_distance
_geom_bond_site_symmetry_2
_ccdc_geom_bond_type
C1     O50     1.292   .     A
C1     C19     1.450   .     S
C1     O47     1.291   .     A
C2     C18     1.403   .     A
C2     F34     1.358   .     S
C2     C58     1.385   .     S
C3     F35     1.359   .     S
C3     C18     1.403   .     A
C3     C80     1.385   .     S
C4     F36     1.359   .     S
C4     C19     1.403   .     A
C4     C110    1.385   1_455 S
C5     C9      1.390   .     A
C5     H37     1.083   .     S
C5     C16     1.404   .     A
C6     C10     1.390   .     A
C6     H38     1.083   .     S
C6     C17     1.404   .     A
C7     C11     1.390   .     A
C7     H39     1.083   .     S
C7     C17     1.404   .     A
C8     C13     1.390   .     A
C8     C16     1.404   .     A
C8     H40     1.083   .     S
C9     C14     1.402   .     A
C9     H41     1.083   .     S
C10    C15     1.402   .     A
C10    H42     1.083   .     S
C11    H43     1.083   .     S
C11    C15     1.402   .     A
C12    O48     1.291   .     A
C12    O49     1.292   .     A
C12    C18     1.450   .     S
C13    C14     1.402   .     A
C13    H44     1.083   .     S
C14    C20     1.460   .     S
C15    C21     1.460   .     S
C16    C503    1.470   1_554 S
C17    C502    1.470   .     S
C19    C26     1.403   .     A
C20    O51     1.295   .     A
C20    O54     1.295   .     A
C21    O53     1.295   .     A
C21    O52     1.295   .     A
C22    F29     1.355   .     S
C22    N46     1.368   .     A
C22    C349    1.417   1_545 S
C23    N45     1.368   .     A
C23    F30     1.355   .     S
C23    C186    1.417   .     S
C24    N46     1.368   .     A
C24    F31     1.355   .     S
C24    C347    1.417   1_545 S
C25    F32     1.355   .     S
C25    N45     1.368   .     A
C25    C184    1.417   .     S
C26    F33     1.358   .     S
C26    C111    1.385   1_455 S
Cu27   O51     1.957   .     S
Cu27   O53     1.957   .     S
Cu27   N45     2.015   .     S
Cu27   O47     1.965   .     S
Cu27   Cu28    2.681   .     S
Cu27   O49     1.966   .     S
Cu28   O52     1.957   .     S
Cu28   N46     2.015   .     S
Cu28   O50     1.966   .     S
Cu28   O54     1.957   .     S
Cu28   O48     1.965   .     S
C55    O104    1.292   .     A
C55    C73     1.450   .     S
C55    O101    1.291   .     A
C56    C72     1.403   .     A
C56    F88     1.358   .     S
C56    C112    1.385   .     S
C57    F89     1.359   .     S
C57    C72     1.403   .     A
C57    C134    1.385   .     S
C58    F90     1.359   .     S
C58    C73     1.403   .     A
C59    C63     1.390   .     A
C59    H91     1.083   .     S
C59    C70     1.404   .     A
C60    C64     1.390   .     A
C60    H92     1.083   .     S
C60    C71     1.404   .     A
C61    C65     1.390   .     A
C61    H93     1.083   .     S
C61    C71     1.404   .     A
C62    C67     1.390   .     A
C62    C70     1.404   .     A
C62    H94     1.083   .     S
C63    C68     1.402   .     A
C63    H95     1.083   .     S
C64    C69     1.402   .     A
C64    H96     1.083   .     S
C65    H97     1.083   .     S
C65    C69     1.402   .     A
C66    O102    1.291   .     A
C66    O103    1.292   .     A
C66    C72     1.450   .     S
C67    C68     1.402   .     A
C67    H98     1.083   .     S
C68    C74     1.460   .     S
C69    C75     1.460   .     S
C70    C557    1.470   1_554 S
C71    C556    1.470   .     S
C73    C80     1.403   .     A
C74    O105    1.295   .     A
C74    O108    1.295   .     A
C75    O107    1.295   .     A
C75    O106    1.295   .     A
C76    F83     1.355   .     S
C76    N100    1.368   .     A
C76    C403    1.417   1_545 S
C77    N99     1.368   .     A
C77    F84     1.355   .     S
C77    C240    1.417   .     S
C78    N100    1.368   .     A
C78    F85     1.355   .     S
C78    C401    1.417   1_545 S
C79    F86     1.355   .     S
C79    N99     1.368   .     A
C79    C238    1.417   .     S
C80    F87     1.358   .     S
Cu81   O105    1.957   .     S
Cu81   O107    1.957   .     S
Cu81   N99     2.015   .     S
Cu81   O101    1.965   .     S
Cu81   Cu82    2.681   .     S
Cu81   O103    1.966   .     S
Cu82   O106    1.957   .     S
Cu82   N100    2.015   .     S
Cu82   O104    1.966   .     S
Cu82   O108    1.957   .     S
Cu82   O102    1.965   .     S
C109   O158    1.292   .     A
C109   C127    1.450   .     S
C109   O155    1.291   .     A
C110   C126    1.403   .     A
C110   F142    1.358   .     S
C110   C4      1.385   1_655 S
C111   F143    1.359   .     S
C111   C126    1.403   .     A
C111   C26     1.385   1_655 S
C112   F144    1.359   .     S
C112   C127    1.403   .     A
C113   C117    1.390   .     A
C113   H145    1.083   .     S
C113   C124    1.404   .     A
C114   C118    1.390   .     A
C114   H146    1.083   .     S
C114   C125    1.404   .     A
C115   C119    1.390   .     A
C115   H147    1.083   .     S
C115   C125    1.404   .     A
C116   C121    1.390   .     A
C116   C124    1.404   .     A
C116   H148    1.083   .     S
C117   C122    1.402   .     A
C117   H149    1.083   .     S
C118   C123    1.402   .     A
C118   H150    1.083   .     S
C119   H151    1.083   .     S
C119   C123    1.402   .     A
C120   O156    1.291   .     A
C120   O157    1.292   .     A
C120   C126    1.450   .     S
C121   C122    1.402   .     A
C121   H152    1.083   .     S
C122   C128    1.460   .     S
C123   C129    1.460   .     S
C124   C611    1.470   1_554 S
C125   C610    1.470   .     S
C127   C134    1.403   .     A
C128   O159    1.295   .     A
C128   O162    1.295   .     A
C129   O161    1.295   .     A
C129   O160    1.295   .     A
C130   F137    1.355   .     S
C130   N154    1.368   .     A
C130   C457    1.417   1_545 S
C131   N153    1.368   .     A
C131   F138    1.355   .     S
C131   C294    1.417   .     S
C132   N154    1.368   .     A
C132   F139    1.355   .     S
C132   C455    1.417   1_545 S
C133   F140    1.355   .     S
C133   N153    1.368   .     A
C133   C292    1.417   .     S
C134   F141    1.358   .     S
Cu135  O159    1.957   .     S
Cu135  O161    1.957   .     S
Cu135  N153    2.015   .     S
Cu135  O155    1.965   .     S
Cu135  Cu136   2.681   .     S
Cu135  O157    1.966   .     S
Cu136  O160    1.957   .     S
Cu136  N154    2.015   .     S
Cu136  O158    1.966   .     S
Cu136  O162    1.957   .     S
Cu136  O156    1.965   .     S
C163   O212    1.292   .     A
C163   C181    1.450   .     S
C163   O209    1.291   .     A
C164   C180    1.403   .     A
C164   F196    1.358   .     S
C164   C220    1.385   .     S
C165   F197    1.359   .     S
C165   C180    1.403   .     A
C165   C242    1.385   .     S
C166   F198    1.359   .     S
C166   C181    1.403   .     A
C166   C272    1.385   1_455 S
C167   C171    1.390   .     A
C167   H199    1.083   .     S
C167   C178    1.404   .     A
C168   C172    1.390   .     A
C168   H200    1.083   .     S
C168   C179    1.404   .     A
C169   C173    1.390   .     A
C169   H201    1.083   .     S
C169   C179    1.404   .     A
C170   C175    1.390   .     A
C170   C178    1.404   .     A
C170   H202    1.083   .     S
C171   C176    1.402   .     A
C171   H203    1.083   .     S
C172   C177    1.402   .     A
C172   H204    1.083   .     S
C173   H205    1.083   .     S
C173   C177    1.402   .     A
C174   O210    1.291   .     A
C174   O211    1.292   .     A
C174   C180    1.450   .     S
C175   C176    1.402   .     A
C175   H206    1.083   .     S
C176   C182    1.460   .     S
C177   C183    1.460   .     S
C178   C665    1.470   1_554 S
C179   C664    1.470   .     S
C181   C188    1.403   .     A
C182   O213    1.295   .     A
C182   O216    1.295   .     A
C183   O215    1.295   .     A
C183   O214    1.295   .     A
C184   F191    1.355   .     S
C184   N208    1.368   .     A
C185   N207    1.368   .     A
C185   F192    1.355   .     S
C185   C348    1.417   .     S
C186   N208    1.368   .     A
C186   F193    1.355   .     S
C187   F194    1.355   .     S
C187   N207    1.368   .     A
C187   C346    1.417   .     S
C188   F195    1.358   .     S
C188   C273    1.385   1_455 S
Cu189  O213    1.957   .     S
Cu189  O215    1.957   .     S
Cu189  N207    2.015   .     S
Cu189  O209    1.965   .     S
Cu189  Cu190   2.681   .     S
Cu189  O211    1.966   .     S
Cu190  O214    1.957   .     S
Cu190  N208    2.015   .     S
Cu190  O212    1.966   .     S
Cu190  O216    1.957   .     S
Cu190  O210    1.965   .     S
C217   O266    1.292   .     A
C217   C235    1.450   .     S
C217   O263    1.291   .     A
C218   C234    1.403   .     A
C218   F250    1.358   .     S
C218   C274    1.385   .     S
C219   F251    1.359   .     S
C219   C234    1.403   .     A
C219   C296    1.385   .     S
C220   F252    1.359   .     S
C220   C235    1.403   .     A
C221   C225    1.390   .     A
C221   H253    1.083   .     S
C221   C232    1.404   .     A
C222   C226    1.390   .     A
C222   H254    1.083   .     S
C222   C233    1.404   .     A
C223   C227    1.390   .     A
C223   H255    1.083   .     S
C223   C233    1.404   .     A
C224   C229    1.390   .     A
C224   C232    1.404   .     A
C224   H256    1.083   .     S
C225   C230    1.402   .     A
C225   H257    1.083   .     S
C226   C231    1.402   .     A
C226   H258    1.083   .     S
C227   H259    1.083   .     S
C227   C231    1.402   .     A
C228   O264    1.291   .     A
C228   O265    1.292   .     A
C228   C234    1.450   .     S
C229   C230    1.402   .     A
C229   H260    1.083   .     S
C230   C236    1.460   .     S
C231   C237    1.460   .     S
C232   C719    1.470   1_554 S
C233   C718    1.470   .     S
C235   C242    1.403   .     A
C236   O267    1.295   .     A
C236   O270    1.295   .     A
C237   O269    1.295   .     A
C237   O268    1.295   .     A
C238   F245    1.355   .     S
C238   N262    1.368   .     A
C239   N261    1.368   .     A
C239   F246    1.355   .     S
C239   C402    1.417   .     S
C240   N262    1.368   .     A
C240   F247    1.355   .     S
C241   F248    1.355   .     S
C241   N261    1.368   .     A
C241   C400    1.417   .     S
C242   F249    1.358   .     S
Cu243  O267    1.957   .     S
Cu243  O269    1.957   .     S
Cu243  N261    2.015   .     S
Cu243  O263    1.965   .     S
Cu243  Cu244   2.681   .     S
Cu243  O265    1.966   .     S
Cu244  O268    1.957   .     S
Cu244  N262    2.015   .     S
Cu244  O266    1.966   .     S
Cu244  O270    1.957   .     S
Cu244  O264    1.965   .     S
C271   O320    1.292   .     A
C271   C289    1.450   .     S
C271   O317    1.291   .     A
C272   C288    1.403   .     A
C272   F304    1.358   .     S
C272   C166    1.385   1_655 S
C273   F305    1.359   .     S
C273   C288    1.403   .     A
C273   C188    1.385   1_655 S
C274   F306    1.359   .     S
C274   C289    1.403   .     A
C275   C279    1.390   .     A
C275   H307    1.083   .     S
C275   C286    1.404   .     A
C276   C280    1.390   .     A
C276   H308    1.083   .     S
C276   C287    1.404   .     A
C277   C281    1.390   .     A
C277   H309    1.083   .     S
C277   C287    1.404   .     A
C278   C283    1.390   .     A
C278   C286    1.404   .     A
C278   H310    1.083   .     S
C279   C284    1.402   .     A
C279   H311    1.083   .     S
C280   C285    1.402   .     A
C280   H312    1.083   .     S
C281   H313    1.083   .     S
C281   C285    1.402   .     A
C282   O318    1.291   .     A
C282   O319    1.292   .     A
C282   C288    1.450   .     S
C283   C284    1.402   .     A
C283   H314    1.083   .     S
C284   C290    1.460   .     S
C285   C291    1.460   .     S
C286   C773    1.470   1_554 S
C287   C772    1.470   .     S
C289   C296    1.403   .     A
C290   O321    1.295   .     A
C290   O324    1.295   .     A
C291   O323    1.295   .     A
C291   O322    1.295   .     A
C292   F299    1.355   .     S
C292   N316    1.368   .     A
C293   N315    1.368   .     A
C293   F300    1.355   .     S
C293   C456    1.417   .     S
C294   N316    1.368   .     A
C294   F301    1.355   .     S
C295   F302    1.355   .     S
C295   N315    1.368   .     A
C295   C454    1.417   .     S
C296   F303    1.358   .     S
Cu297  O321    1.957   .     S
Cu297  O323    1.957   .     S
Cu297  N315    2.015   .     S
Cu297  O317    1.965   .     S
Cu297  Cu298   2.681   .     S
Cu297  O319    1.966   .     S
Cu298  O322    1.957   .     S
Cu298  N316    2.015   .     S
Cu298  O320    1.966   .     S
Cu298  O324    1.957   .     S
Cu298  O318    1.965   .     S
C325   O374    1.292   .     A
C325   C343    1.450   .     S
C325   O371    1.291   .     A
C326   C342    1.403   .     A
C326   F358    1.358   .     S
C326   C382    1.385   .     S
C327   F359    1.359   .     S
C327   C342    1.403   .     A
C327   C404    1.385   .     S
C328   F360    1.359   .     S
C328   C343    1.403   .     A
C328   C434    1.385   1_455 S
C329   C333    1.390   .     A
C329   H361    1.083   .     S
C329   C340    1.404   .     A
C330   C334    1.390   .     A
C330   H362    1.083   .     S
C330   C341    1.404   .     A
C331   C335    1.390   .     A
C331   H363    1.083   .     S
C331   C341    1.404   .     A
C332   C337    1.390   .     A
C332   C340    1.404   .     A
C332   H364    1.083   .     S
C333   C338    1.402   .     A
C333   H365    1.083   .     S
C334   C339    1.402   .     A
C334   H366    1.083   .     S
C335   H367    1.083   .     S
C335   C339    1.402   .     A
C336   O372    1.291   .     A
C336   O373    1.292   .     A
C336   C342    1.450   .     S
C337   C338    1.402   .     A
C337   H368    1.083   .     S
C338   C344    1.460   .     S
C339   C345    1.460   .     S
C340   C827    1.470   1_554 S
C341   C826    1.470   .     S
C343   C350    1.403   .     A
C344   O375    1.295   .     A
C344   O378    1.295   .     A
C345   O377    1.295   .     A
C345   O376    1.295   .     A
C346   F353    1.355   .     S
C346   N370    1.368   .     A
C347   N369    1.368   .     A
C347   F354    1.355   .     S
C347   C24     1.417   1_565 S
C348   N370    1.368   .     A
C348   F355    1.355   .     S
C349   F356    1.355   .     S
C349   N369    1.368   .     A
C349   C22     1.417   1_565 S
C350   F357    1.358   .     S
C350   C435    1.385   1_455 S
Cu351  O375    1.957   .     S
Cu351  O377    1.957   .     S
Cu351  N369    2.015   .     S
Cu351  O371    1.965   .     S
Cu351  Cu352   2.681   .     S
Cu351  O373    1.966   .     S
Cu352  O376    1.957   .     S
Cu352  N370    2.015   .     S
Cu352  O374    1.966   .     S
Cu352  O378    1.957   .     S
Cu352  O372    1.965   .     S
C379   O428    1.292   .     A
C379   C397    1.450   .     S
C379   O425    1.291   .     A
C380   C396    1.403   .     A
C380   F412    1.358   .     S
C380   C436    1.385   .     S
C381   F413    1.359   .     S
C381   C396    1.403   .     A
C381   C458    1.385   .     S
C382   F414    1.359   .     S
C382   C397    1.403   .     A
C383   C387    1.390   .     A
C383   H415    1.083   .     S
C383   C394    1.404   .     A
C384   C388    1.390   .     A
C384   H416    1.083   .     S
C384   C395    1.404   .     A
C385   C389    1.390   .     A
C385   H417    1.083   .     S
C385   C395    1.404   .     A
C386   C391    1.390   .     A
C386   C394    1.404   .     A
C386   H418    1.083   .     S
C387   C392    1.402   .     A
C387   H419    1.083   .     S
C388   C393    1.402   .     A
C388   H420    1.083   .     S
C389   H421    1.083   .     S
C389   C393    1.402   .     A
C390   O426    1.291   .     A
C390   O427    1.292   .     A
C390   C396    1.450   .     S
C391   C392    1.402   .     A
C391   H422    1.083   .     S
C392   C398    1.460   .     S
C393   C399    1.460   .     S
C394   C881    1.470   1_554 S
C395   C880    1.470   .     S
C397   C404    1.403   .     A
C398   O429    1.295   .     A
C398   O432    1.295   .     A
C399   O431    1.295   .     A
C399   O430    1.295   .     A
C400   F407    1.355   .     S
C400   N424    1.368   .     A
C401   N423    1.368   .     A
C401   F408    1.355   .     S
C401   C78     1.417   1_565 S
C402   N424    1.368   .     A
C402   F409    1.355   .     S
C403   F410    1.355   .     S
C403   N423    1.368   .     A
C403   C76     1.417   1_565 S
C404   F411    1.358   .     S
Cu405  O429    1.957   .     S
Cu405  O431    1.957   .     S
Cu405  N423    2.015   .     S
Cu405  O425    1.965   .     S
Cu405  Cu406   2.681   .     S
Cu405  O427    1.966   .     S
Cu406  O430    1.957   .     S
Cu406  N424    2.015   .     S
Cu406  O428    1.966   .     S
Cu406  O432    1.957   .     S
Cu406  O426    1.965   .     S
C433   O482    1.292   .     A
C433   C451    1.450   .     S
C433   O479    1.291   .     A
C434   C450    1.403   .     A
C434   F466    1.358   .     S
C434   C328    1.385   1_655 S
C435   F467    1.359   .     S
C435   C450    1.403   .     A
C435   C350    1.385   1_655 S
C436   F468    1.359   .     S
C436   C451    1.403   .     A
C437   C441    1.390   .     A
C437   H469    1.083   .     S
C437   C448    1.404   .     A
C438   C442    1.390   .     A
C438   H470    1.083   .     S
C438   C449    1.404   .     A
C439   C443    1.390   .     A
C439   H471    1.083   .     S
C439   C449    1.404   .     A
C440   C445    1.390   .     A
C440   C448    1.404   .     A
C440   H472    1.083   .     S
C441   C446    1.402   .     A
C441   H473    1.083   .     S
C442   C447    1.402   .     A
C442   H474    1.083   .     S
C443   H475    1.083   .     S
C443   C447    1.402   .     A
C444   O480    1.291   .     A
C444   O481    1.292   .     A
C444   C450    1.450   .     S
C445   C446    1.402   .     A
C445   H476    1.083   .     S
C446   C452    1.460   .     S
C447   C453    1.460   .     S
C448   C935    1.470   1_554 S
C449   C934    1.470   .     S
C451   C458    1.403   .     A
C452   O483    1.295   .     A
C452   O486    1.295   .     A
C453   O485    1.295   .     A
C453   O484    1.295   .     A
C454   F461    1.355   .     S
C454   N478    1.368   .     A
C455   N477    1.368   .     A
C455   F462    1.355   .     S
C455   C132    1.417   1_565 S
C456   N478    1.368   .     A
C456   F463    1.355   .     S
C457   F464    1.355   .     S
C457   N477    1.368   .     A
C457   C130    1.417   1_565 S
C458   F465    1.358   .     S
Cu459  O483    1.957   .     S
Cu459  O485    1.957   .     S
Cu459  N477    2.015   .     S
Cu459  O479    1.965   .     S
Cu459  Cu460   2.681   .     S
Cu459  O481    1.966   .     S
Cu460  O484    1.957   .     S
Cu460  N478    2.015   .     S
Cu460  O482    1.966   .     S
Cu460  O486    1.957   .     S
Cu460  O480    1.965   .     S
C487   O536    1.292   .     A
C487   C505    1.450   .     S
C487   O533    1.291   .     A
C488   C504    1.403   .     A
C488   F520    1.358   .     S
C488   C544    1.385   .     S
C489   F521    1.359   .     S
C489   C504    1.403   .     A
C489   C566    1.385   .     S
C490   F522    1.359   .     S
C490   C505    1.403   .     A
C490   C596    1.385   1_455 S
C491   C495    1.390   .     A
C491   H523    1.083   .     S
C491   C502    1.404   .     A
C492   C496    1.390   .     A
C492   H524    1.083   .     S
C492   C503    1.404   .     A
C493   C497    1.390   .     A
C493   H525    1.083   .     S
C493   C503    1.404   .     A
C494   C499    1.390   .     A
C494   C502    1.404   .     A
C494   H526    1.083   .     S
C495   C500    1.402   .     A
C495   H527    1.083   .     S
C496   C501    1.402   .     A
C496   H528    1.083   .     S
C497   H529    1.083   .     S
C497   C501    1.402   .     A
C498   O534    1.291   .     A
C498   O535    1.292   .     A
C498   C504    1.450   .     S
C499   C500    1.402   .     A
C499   H530    1.083   .     S
C500   C506    1.460   .     S
C501   C507    1.460   .     S
C503   C16     1.470   1_556 S
C505   C512    1.403   .     A
C506   O537    1.295   .     A
C506   O540    1.295   .     A
C507   O539    1.295   .     A
C507   O538    1.295   .     A
C508   F515    1.355   .     S
C508   N532    1.368   .     A
C508   C835    1.417   1_545 S
C509   N531    1.368   .     A
C509   F516    1.355   .     S
C509   C672    1.417   .     S
C510   N532    1.368   .     A
C510   F517    1.355   .     S
C510   C833    1.417   1_545 S
C511   F518    1.355   .     S
C511   N531    1.368   .     A
C511   C670    1.417   .     S
C512   F519    1.358   .     S
C512   C597    1.385   1_455 S
Cu513  O537    1.957   .     S
Cu513  O539    1.957   .     S
Cu513  N531    2.015   .     S
Cu513  O533    1.965   .     S
Cu513  Cu514   2.681   .     S
Cu513  O535    1.966   .     S
Cu514  O538    1.957   .     S
Cu514  N532    2.015   .     S
Cu514  O536    1.966   .     S
Cu514  O540    1.957   .     S
Cu514  O534    1.965   .     S
C541   O590    1.292   .     A
C541   C559    1.450   .     S
C541   O587    1.291   .     A
C542   C558    1.403   .     A
C542   F574    1.358   .     S
C542   C598    1.385   .     S
C543   F575    1.359   .     S
C543   C558    1.403   .     A
C543   C620    1.385   .     S
C544   F576    1.359   .     S
C544   C559    1.403   .     A
C545   C549    1.390   .     A
C545   H577    1.083   .     S
C545   C556    1.404   .     A
C546   C550    1.390   .     A
C546   H578    1.083   .     S
C546   C557    1.404   .     A
C547   C551    1.390   .     A
C547   H579    1.083   .     S
C547   C557    1.404   .     A
C548   C553    1.390   .     A
C548   C556    1.404   .     A
C548   H580    1.083   .     S
C549   C554    1.402   .     A
C549   H581    1.083   .     S
C550   C555    1.402   .     A
C550   H582    1.083   .     S
C551   H583    1.083   .     S
C551   C555    1.402   .     A
C552   O588    1.291   .     A
C552   O589    1.292   .     A
C552   C558    1.450   .     S
C553   C554    1.402   .     A
C553   H584    1.083   .     S
C554   C560    1.460   .     S
C555   C561    1.460   .     S
C557   C70     1.470   1_556 S
C559   C566    1.403   .     A
C560   O591    1.295   .     A
C560   O594    1.295   .     A
C561   O593    1.295   .     A
C561   O592    1.295   .     A
C562   F569    1.355   .     S
C562   N586    1.368   .     A
C562   C889    1.417   1_545 S
C563   N585    1.368   .     A
C563   F570    1.355   .     S
C563   C726    1.417   .     S
C564   N586    1.368   .     A
C564   F571    1.355   .     S
C564   C887    1.417   1_545 S
C565   F572    1.355   .     S
C565   N585    1.368   .     A
C565   C724    1.417   .     S
C566   F573    1.358   .     S
Cu567  O591    1.957   .     S
Cu567  O593    1.957   .     S
Cu567  N585    2.015   .     S
Cu567  O587    1.965   .     S
Cu567  Cu568   2.681   .     S
Cu567  O589    1.966   .     S
Cu568  O592    1.957   .     S
Cu568  N586    2.015   .     S
Cu568  O590    1.966   .     S
Cu568  O594    1.957   .     S
Cu568  O588    1.965   .     S
C595   O644    1.292   .     A
C595   C613    1.450   .     S
C595   O641    1.291   .     A
C596   C612    1.403   .     A
C596   F628    1.358   .     S
C596   C490    1.385   1_655 S
C597   F629    1.359   .     S
C597   C612    1.403   .     A
C597   C512    1.385   1_655 S
C598   F630    1.359   .     S
C598   C613    1.403   .     A
C599   C603    1.390   .     A
C599   H631    1.083   .     S
C599   C610    1.404   .     A
C600   C604    1.390   .     A
C600   H632    1.083   .     S
C600   C611    1.404   .     A
C601   C605    1.390   .     A
C601   H633    1.083   .     S
C601   C611    1.404   .     A
C602   C607    1.390   .     A
C602   C610    1.404   .     A
C602   H634    1.083   .     S
C603   C608    1.402   .     A
C603   H635    1.083   .     S
C604   C609    1.402   .     A
C604   H636    1.083   .     S
C605   H637    1.083   .     S
C605   C609    1.402   .     A
C606   O642    1.291   .     A
C606   O643    1.292   .     A
C606   C612    1.450   .     S
C607   C608    1.402   .     A
C607   H638    1.083   .     S
C608   C614    1.460   .     S
C609   C615    1.460   .     S
C611   C124    1.470   1_556 S
C613   C620    1.403   .     A
C614   O645    1.295   .     A
C614   O648    1.295   .     A
C615   O647    1.295   .     A
C615   O646    1.295   .     A
C616   F623    1.355   .     S
C616   N640    1.368   .     A
C616   C943    1.417   1_545 S
C617   N639    1.368   .     A
C617   F624    1.355   .     S
C617   C780    1.417   .     S
C618   N640    1.368   .     A
C618   F625    1.355   .     S
C618   C941    1.417   1_545 S
C619   F626    1.355   .     S
C619   N639    1.368   .     A
C619   C778    1.417   .     S
C620   F627    1.358   .     S
Cu621  O645    1.957   .     S
Cu621  O647    1.957   .     S
Cu621  N639    2.015   .     S
Cu621  O641    1.965   .     S
Cu621  Cu622   2.681   .     S
Cu621  O643    1.966   .     S
Cu622  O646    1.957   .     S
Cu622  N640    2.015   .     S
Cu622  O644    1.966   .     S
Cu622  O648    1.957   .     S
Cu622  O642    1.965   .     S
C649   O698    1.292   .     A
C649   C667    1.450   .     S
C649   O695    1.291   .     A
C650   C666    1.403   .     A
C650   F682    1.358   .     S
C650   C706    1.385   .     S
C651   F683    1.359   .     S
C651   C666    1.403   .     A
C651   C728    1.385   .     S
C652   F684    1.359   .     S
C652   C667    1.403   .     A
C652   C758    1.385   1_455 S
C653   C657    1.390   .     A
C653   H685    1.083   .     S
C653   C664    1.404   .     A
C654   C658    1.390   .     A
C654   H686    1.083   .     S
C654   C665    1.404   .     A
C655   C659    1.390   .     A
C655   H687    1.083   .     S
C655   C665    1.404   .     A
C656   C661    1.390   .     A
C656   C664    1.404   .     A
C656   H688    1.083   .     S
C657   C662    1.402   .     A
C657   H689    1.083   .     S
C658   C663    1.402   .     A
C658   H690    1.083   .     S
C659   H691    1.083   .     S
C659   C663    1.402   .     A
C660   O696    1.291   .     A
C660   O697    1.292   .     A
C660   C666    1.450   .     S
C661   C662    1.402   .     A
C661   H692    1.083   .     S
C662   C668    1.460   .     S
C663   C669    1.460   .     S
C665   C178    1.470   1_556 S
C667   C674    1.403   .     A
C668   O699    1.295   .     A
C668   O702    1.295   .     A
C669   O701    1.295   .     A
C669   O700    1.295   .     A
C670   F677    1.355   .     S
C670   N694    1.368   .     A
C671   N693    1.368   .     A
C671   F678    1.355   .     S
C671   C834    1.417   .     S
C672   N694    1.368   .     A
C672   F679    1.355   .     S
C673   F680    1.355   .     S
C673   N693    1.368   .     A
C673   C832    1.417   .     S
C674   F681    1.358   .     S
C674   C759    1.385   1_455 S
Cu675  O699    1.957   .     S
Cu675  O701    1.957   .     S
Cu675  N693    2.015   .     S
Cu675  O695    1.965   .     S
Cu675  Cu676   2.681   .     S
Cu675  O697    1.966   .     S
Cu676  O700    1.957   .     S
Cu676  N694    2.015   .     S
Cu676  O698    1.966   .     S
Cu676  O702    1.957   .     S
Cu676  O696    1.965   .     S
C703   O752    1.292   .     A
C703   C721    1.450   .     S
C703   O749    1.291   .     A
C704   C720    1.403   .     A
C704   F736    1.358   .     S
C704   C760    1.385   .     S
C705   F737    1.359   .     S
C705   C720    1.403   .     A
C705   C782    1.385   .     S
C706   F738    1.359   .     S
C706   C721    1.403   .     A
C707   C711    1.390   .     A
C707   H739    1.083   .     S
C707   C718    1.404   .     A
C708   C712    1.390   .     A
C708   H740    1.083   .     S
C708   C719    1.404   .     A
C709   C713    1.390   .     A
C709   H741    1.083   .     S
C709   C719    1.404   .     A
C710   C715    1.390   .     A
C710   C718    1.404   .     A
C710   H742    1.083   .     S
C711   C716    1.402   .     A
C711   H743    1.083   .     S
C712   C717    1.402   .     A
C712   H744    1.083   .     S
C713   H745    1.083   .     S
C713   C717    1.402   .     A
C714   O750    1.291   .     A
C714   O751    1.292   .     A
C714   C720    1.450   .     S
C715   C716    1.402   .     A
C715   H746    1.083   .     S
C716   C722    1.460   .     S
C717   C723    1.460   .     S
C719   C232    1.470   1_556 S
C721   C728    1.403   .     A
C722   O753    1.295   .     A
C722   O756    1.295   .     A
C723   O755    1.295   .     A
C723   O754    1.295   .     A
C724   F731    1.355   .     S
C724   N748    1.368   .     A
C725   N747    1.368   .     A
C725   F732    1.355   .     S
C725   C888    1.417   .     S
C726   N748    1.368   .     A
C726   F733    1.355   .     S
C727   F734    1.355   .     S
C727   N747    1.368   .     A
C727   C886    1.417   .     S
C728   F735    1.358   .     S
Cu729  O753    1.957   .     S
Cu729  O755    1.957   .     S
Cu729  N747    2.015   .     S
Cu729  O749    1.965   .     S
Cu729  Cu730   2.681   .     S
Cu729  O751    1.966   .     S
Cu730  O754    1.957   .     S
Cu730  N748    2.015   .     S
Cu730  O752    1.966   .     S
Cu730  O756    1.957   .     S
Cu730  O750    1.965   .     S
C757   O806    1.292   .     A
C757   C775    1.450   .     S
C757   O803    1.291   .     A
C758   C774    1.403   .     A
C758   F790    1.358   .     S
C758   C652    1.385   1_655 S
C759   F791    1.359   .     S
C759   C774    1.403   .     A
C759   C674    1.385   1_655 S
C760   F792    1.359   .     S
C760   C775    1.403   .     A
C761   C765    1.390   .     A
C761   H793    1.083   .     S
C761   C772    1.404   .     A
C762   C766    1.390   .     A
C762   H794    1.083   .     S
C762   C773    1.404   .     A
C763   C767    1.390   .     A
C763   H795    1.083   .     S
C763   C773    1.404   .     A
C764   C769    1.390   .     A
C764   C772    1.404   .     A
C764   H796    1.083   .     S
C765   C770    1.402   .     A
C765   H797    1.083   .     S
C766   C771    1.402   .     A
C766   H798    1.083   .     S
C767   H799    1.083   .     S
C767   C771    1.402   .     A
C768   O804    1.291   .     A
C768   O805    1.292   .     A
C768   C774    1.450   .     S
C769   C770    1.402   .     A
C769   H800    1.083   .     S
C770   C776    1.460   .     S
C771   C777    1.460   .     S
C773   C286    1.470   1_556 S
C775   C782    1.403   .     A
C776   O807    1.295   .     A
C776   O810    1.295   .     A
C777   O809    1.295   .     A
C777   O808    1.295   .     A
C778   F785    1.355   .     S
C778   N802    1.368   .     A
C779   N801    1.368   .     A
C779   F786    1.355   .     S
C779   C942    1.417   .     S
C780   N802    1.368   .     A
C780   F787    1.355   .     S
C781   F788    1.355   .     S
C781   N801    1.368   .     A
C781   C940    1.417   .     S
C782   F789    1.358   .     S
Cu783  O807    1.957   .     S
Cu783  O809    1.957   .     S
Cu783  N801    2.015   .     S
Cu783  O803    1.965   .     S
Cu783  Cu784   2.681   .     S
Cu783  O805    1.966   .     S
Cu784  O808    1.957   .     S
Cu784  N802    2.015   .     S
Cu784  O806    1.966   .     S
Cu784  O810    1.957   .     S
Cu784  O804    1.965   .     S
C811   O860    1.292   .     A
C811   C829    1.450   .     S
C811   O857    1.291   .     A
C812   C828    1.403   .     A
C812   F844    1.358   .     S
C812   C868    1.385   .     S
C813   F845    1.359   .     S
C813   C828    1.403   .     A
C813   C890    1.385   .     S
C814   F846    1.359   .     S
C814   C829    1.403   .     A
C814   C920    1.385   1_455 S
C815   C819    1.390   .     A
C815   H847    1.083   .     S
C815   C826    1.404   .     A
C816   C820    1.390   .     A
C816   H848    1.083   .     S
C816   C827    1.404   .     A
C817   C821    1.390   .     A
C817   H849    1.083   .     S
C817   C827    1.404   .     A
C818   C823    1.390   .     A
C818   C826    1.404   .     A
C818   H850    1.083   .     S
C819   C824    1.402   .     A
C819   H851    1.083   .     S
C820   C825    1.402   .     A
C820   H852    1.083   .     S
C821   H853    1.083   .     S
C821   C825    1.402   .     A
C822   O858    1.291   .     A
C822   O859    1.292   .     A
C822   C828    1.450   .     S
C823   C824    1.402   .     A
C823   H854    1.083   .     S
C824   C830    1.460   .     S
C825   C831    1.460   .     S
C827   C340    1.470   1_556 S
C829   C836    1.403   .     A
C830   O861    1.295   .     A
C830   O864    1.295   .     A
C831   O863    1.295   .     A
C831   O862    1.295   .     A
C832   F839    1.355   .     S
C832   N856    1.368   .     A
C833   N855    1.368   .     A
C833   F840    1.355   .     S
C833   C510    1.417   1_565 S
C834   N856    1.368   .     A
C834   F841    1.355   .     S
C835   F842    1.355   .     S
C835   N855    1.368   .     A
C835   C508    1.417   1_565 S
C836   F843    1.358   .     S
C836   C921    1.385   1_455 S
Cu837  O861    1.957   .     S
Cu837  O863    1.957   .     S
Cu837  N855    2.015   .     S
Cu837  O857    1.965   .     S
Cu837  Cu838   2.681   .     S
Cu837  O859    1.966   .     S
Cu838  O862    1.957   .     S
Cu838  N856    2.015   .     S
Cu838  O860    1.966   .     S
Cu838  O864    1.957   .     S
Cu838  O858    1.965   .     S
C865   O914    1.292   .     A
C865   C883    1.450   .     S
C865   O911    1.291   .     A
C866   C882    1.403   .     A
C866   F898    1.358   .     S
C866   C922    1.385   .     S
C867   F899    1.359   .     S
C867   C882    1.403   .     A
C867   C944    1.385   .     S
C868   F900    1.359   .     S
C868   C883    1.403   .     A
C869   C873    1.390   .     A
C869   H901    1.083   .     S
C869   C880    1.404   .     A
C870   C874    1.390   .     A
C870   H902    1.083   .     S
C870   C881    1.404   .     A
C871   C875    1.390   .     A
C871   H903    1.083   .     S
C871   C881    1.404   .     A
C872   C877    1.390   .     A
C872   C880    1.404   .     A
C872   H904    1.083   .     S
C873   C878    1.402   .     A
C873   H905    1.083   .     S
C874   C879    1.402   .     A
C874   H906    1.083   .     S
C875   H907    1.083   .     S
C875   C879    1.402   .     A
C876   O912    1.291   .     A
C876   O913    1.292   .     A
C876   C882    1.450   .     S
C877   C878    1.402   .     A
C877   H908    1.083   .     S
C878   C884    1.460   .     S
C879   C885    1.460   .     S
C881   C394    1.470   1_556 S
C883   C890    1.403   .     A
C884   O915    1.295   .     A
C884   O918    1.295   .     A
C885   O917    1.295   .     A
C885   O916    1.295   .     A
C886   F893    1.355   .     S
C886   N910    1.368   .     A
C887   N909    1.368   .     A
C887   F894    1.355   .     S
C887   C564    1.417   1_565 S
C888   N910    1.368   .     A
C888   F895    1.355   .     S
C889   F896    1.355   .     S
C889   N909    1.368   .     A
C889   C562    1.417   1_565 S
C890   F897    1.358   .     S
Cu891  O915    1.957   .     S
Cu891  O917    1.957   .     S
Cu891  N909    2.015   .     S
Cu891  O911    1.965   .     S
Cu891  Cu892   2.681   .     S
Cu891  O913    1.966   .     S
Cu892  O916    1.957   .     S
Cu892  N910    2.015   .     S
Cu892  O914    1.966   .     S
Cu892  O918    1.957   .     S
Cu892  O912    1.965   .     S
C919   O968    1.292   .     A
C919   C937    1.450   .     S
C919   O965    1.291   .     A
C920   C936    1.403   .     A
C920   F952    1.358   .     S
C920   C814    1.385   1_655 S
C921   F953    1.359   .     S
C921   C936    1.403   .     A
C921   C836    1.385   1_655 S
C922   F954    1.359   .     S
C922   C937    1.403   .     A
C923   C927    1.390   .     A
C923   H955    1.083   .     S
C923   C934    1.404   .     A
C924   C928    1.390   .     A
C924   H956    1.083   .     S
C924   C935    1.404   .     A
C925   C929    1.390   .     A
C925   H957    1.083   .     S
C925   C935    1.404   .     A
C926   C931    1.390   .     A
C926   C934    1.404   .     A
C926   H958    1.083   .     S
C927   C932    1.402   .     A
C927   H959    1.083   .     S
C928   C933    1.402   .     A
C928   H960    1.083   .     S
C929   H961    1.083   .     S
C929   C933    1.402   .     A
C930   O966    1.291   .     A
C930   O967    1.292   .     A
C930   C936    1.450   .     S
C931   C932    1.402   .     A
C931   H962    1.083   .     S
C932   C938    1.460   .     S
C933   C939    1.460   .     S
C935   C448    1.470   1_556 S
C937   C944    1.403   .     A
C938   O969    1.295   .     A
C938   O972    1.295   .     A
C939   O971    1.295   .     A
C939   O970    1.295   .     A
C940   F947    1.355   .     S
C940   N964    1.368   .     A
C941   N963    1.368   .     A
C941   F948    1.355   .     S
C941   C618    1.417   1_565 S
C942   N964    1.368   .     A
C942   F949    1.355   .     S
C943   F950    1.355   .     S
C943   N963    1.368   .     A
C943   C616    1.417   1_565 S
C944   F951    1.358   .     S
Cu945  O969    1.957   .     S
Cu945  O971    1.957   .     S
Cu945  N963    2.015   .     S
Cu945  O965    1.965   .     S
Cu945  Cu946   2.681   .     S
Cu945  O967    1.966   .     S
Cu946  O970    1.957   .     S
Cu946  N964    2.015   .     S
Cu946  O968    1.966   .     S
Cu946  O972    1.957   .     S
Cu946  O966    1.965   .     S
