data_str_m2_o1_o2_pcu_sym.57
_audit_creation_date              2020-01-03
_audit_creation_method            'Materials Studio'
_symmetry_space_group_name_H-M    'P1'
_symmetry_Int_Tables_number       1
_symmetry_cell_setting            triclinic
loop_
_symmetry_equiv_pos_as_xyz
  x,y,z
_cell_length_a                    32.5003
_cell_length_b                    28.8894
_cell_length_c                    30.2710
_cell_angle_alpha                 89.9990
_cell_angle_beta                  92.0345
_cell_angle_gamma                 90.0004
loop_
_atom_site_label
_atom_site_type_symbol
_atom_site_fract_x
_atom_site_fract_y
_atom_site_fract_z
_atom_site_U_iso_or_equiv
_atom_site_adp_type
_atom_site_occupancy
C1     C     0.08747   0.16667   0.25025   0.00000  Uiso   1.00
C2     C     0.31204   0.20870   0.24957   0.00000  Uiso   1.00
C3     C     0.31205   0.12470   0.24963   0.00000  Uiso   1.00
C4     C     0.02129   0.20870   0.25032   0.00000  Uiso   1.00
C5     C     0.17893   0.20725   0.04833   0.00000  Uiso   1.00
C6     C     0.17957   0.12822   0.45315   0.00000  Uiso   1.00
C7     C     0.15440   0.20725   0.45167   0.00000  Uiso   1.00
C8     C     0.15375   0.12822   0.04685   0.00000  Uiso   1.00
C9     C     0.17869   0.20696   0.09426   0.00000  Uiso   1.00
C10    C     0.17927   0.12774   0.40727   0.00000  Uiso   1.00
C11    C     0.15464   0.20696   0.40574   0.00000  Uiso   1.00
C12    C     0.24586   0.16667   0.24975   0.00000  Uiso   1.00
C13    C     0.15406   0.12774   0.09273   0.00000  Uiso   1.00
C14    C     0.16647   0.16708   0.11677   0.00000  Uiso   1.00
C15    C     0.16686   0.16708   0.38324   0.00000  Uiso   1.00
C16    C     0.16646   0.16785   0.02427   0.00000  Uiso   1.00
C17    C     0.16687   0.16785   0.47573   0.00000  Uiso   1.00
C18    C     0.29053   0.16669   0.24954   0.00000  Uiso   1.00
C19    C     0.04280   0.16669   0.25046   0.00000  Uiso   1.00
C20    C     0.09192   0.05505   0.17932   0.00000  Uiso   1.00
C21    C     0.23987   0.27697   0.32227   0.00000  Uiso   1.00
C22    C     0.24140   0.05502   0.32072   0.00000  Uiso   1.00
C23    C     0.16655   0.16672   0.16507   0.00000  Uiso   1.00
C24    C     0.09347   0.27700   0.17768   0.00000  Uiso   1.00
C25    C     0.16679   0.16672   0.33493   0.00000  Uiso   1.00
C26    C     0.14922   0.02467   0.21528   0.00000  Uiso   1.00
C27    C     0.18382   0.30866   0.28492   0.00000  Uiso   1.00
C28    C     0.18411   0.02467   0.28472   0.00000  Uiso   1.00
C29    C     0.14952   0.30866   0.21508   0.00000  Uiso   1.00
C30    C     0.02128   0.12470   0.25048   0.00000  Uiso   1.00
Cu31   Cu    0.16667   0.21355   0.25000   0.00000  Uiso   1.00
Cu32   Cu    0.16667   0.11978   0.25000   0.00000  Uiso   1.00
H33    H     0.08574   0.09266   0.17638   0.00000  Uiso   1.00
H34    H     0.07787   0.29006   0.20743   0.00000  Uiso   1.00
H35    H     0.08829   0.23919   0.17489   0.00000  Uiso   1.00
H36    H     0.07826   0.29254   0.14790   0.00000  Uiso   1.00
H37    H     0.18945   0.23802   0.03171   0.00000  Uiso   1.00
H38    H     0.19013   0.09769   0.47096   0.00000  Uiso   1.00
H39    H     0.14389   0.23803   0.46829   0.00000  Uiso   1.00
H40    H     0.14319   0.09770   0.02904   0.00000  Uiso   1.00
H41    H     0.18867   0.23768   0.11214   0.00000  Uiso   1.00
H42    H     0.18925   0.09678   0.39079   0.00000  Uiso   1.00
H43    H     0.14467   0.23768   0.38785   0.00000  Uiso   1.00
H44    H     0.07723   0.04170   0.20953   0.00000  Uiso   1.00
H45    H     0.14407   0.09678   0.10921   0.00000  Uiso   1.00
H46    H     0.03718   0.09183   0.25124   0.00000  Uiso   1.00
H47    H     0.29614   0.24157   0.24889   0.00000  Uiso   1.00
H48    H     0.29616   0.09183   0.24895   0.00000  Uiso   1.00
H49    H     0.03719   0.24158   0.25091   0.00000  Uiso   1.00
H50    H     0.07657   0.03885   0.14995   0.00000  Uiso   1.00
H51    H     0.25544   0.28992   0.29244   0.00000  Uiso   1.00
H52    H     0.24504   0.23916   0.32516   0.00000  Uiso   1.00
H53    H     0.25514   0.29260   0.35198   0.00000  Uiso   1.00
H54    H     0.24759   0.09264   0.32356   0.00000  Uiso   1.00
H55    H     0.25613   0.04156   0.29058   0.00000  Uiso   1.00
H56    H     0.25671   0.03891   0.35017   0.00000  Uiso   1.00
N57    N     0.16667   0.28402   0.25000   0.00000  Uiso   1.00
N58    N     0.16667   0.04931   0.25000   0.00000  Uiso   1.00
O59    O     0.10655   0.20625   0.25000   0.00000  Uiso   1.00
O60    O     0.19717   0.28603   0.32299   0.00000  Uiso   1.00
O61    O     0.19851   0.04744   0.32222   0.00000  Uiso   1.00
O62    O     0.13619   0.28603   0.17701   0.00000  Uiso   1.00
O63    O     0.22679   0.12709   0.25001   0.00000  Uiso   1.00
O64    O     0.22679   0.20625   0.25001   0.00000  Uiso   1.00
O65    O     0.10655   0.12709   0.25000   0.00000  Uiso   1.00
O66    O     0.16666   0.20626   0.18573   0.00000  Uiso   1.00
O67    O     0.16667   0.12707   0.31427   0.00000  Uiso   1.00
O68    O     0.16667   0.20626   0.31427   0.00000  Uiso   1.00
O69    O     0.16666   0.12707   0.18573   0.00000  Uiso   1.00
O70    O     0.13480   0.04744   0.17779   0.00000  Uiso   1.00
C71    C     0.42081   0.16667   0.25025   0.00000  Uiso   1.00
C72    C     0.64538   0.20870   0.24957   0.00000  Uiso   1.00
C73    C     0.64539   0.12470   0.24963   0.00000  Uiso   1.00
C74    C     0.35462   0.20870   0.25032   0.00000  Uiso   1.00
C75    C     0.51227   0.20725   0.04833   0.00000  Uiso   1.00
C76    C     0.51290   0.12822   0.45315   0.00000  Uiso   1.00
C77    C     0.48774   0.20725   0.45167   0.00000  Uiso   1.00
C78    C     0.48709   0.12822   0.04685   0.00000  Uiso   1.00
C79    C     0.51203   0.20696   0.09426   0.00000  Uiso   1.00
C80    C     0.51260   0.12774   0.40727   0.00000  Uiso   1.00
C81    C     0.48798   0.20696   0.40574   0.00000  Uiso   1.00
C82    C     0.57919   0.16667   0.24975   0.00000  Uiso   1.00
C83    C     0.48739   0.12774   0.09273   0.00000  Uiso   1.00
C84    C     0.49981   0.16708   0.11677   0.00000  Uiso   1.00
C85    C     0.50019   0.16708   0.38324   0.00000  Uiso   1.00
C86    C     0.49979   0.16785   0.02427   0.00000  Uiso   1.00
C87    C     0.50021   0.16785   0.47573   0.00000  Uiso   1.00
C88    C     0.62386   0.16669   0.24954   0.00000  Uiso   1.00
C89    C     0.37614   0.16669   0.25046   0.00000  Uiso   1.00
C90    C     0.42525   0.05505   0.17932   0.00000  Uiso   1.00
C91    C     0.57321   0.27697   0.32227   0.00000  Uiso   1.00
C92    C     0.57474   0.05502   0.32072   0.00000  Uiso   1.00
C93    C     0.49988   0.16672   0.16507   0.00000  Uiso   1.00
C94    C     0.42681   0.27700   0.17768   0.00000  Uiso   1.00
C95    C     0.50012   0.16672   0.33493   0.00000  Uiso   1.00
C96    C     0.48256   0.02467   0.21528   0.00000  Uiso   1.00
C97    C     0.51715   0.30866   0.28492   0.00000  Uiso   1.00
C98    C     0.51744   0.02467   0.28472   0.00000  Uiso   1.00
C99    C     0.48285   0.30866   0.21508   0.00000  Uiso   1.00
C100   C     0.35462   0.12470   0.25048   0.00000  Uiso   1.00
Cu101  Cu    0.50000   0.21355   0.25000   0.00000  Uiso   1.00
Cu102  Cu    0.50000   0.11978   0.25000   0.00000  Uiso   1.00
H103   H     0.41907   0.09266   0.17638   0.00000  Uiso   1.00
H104   H     0.41120   0.29006   0.20743   0.00000  Uiso   1.00
H105   H     0.42162   0.23919   0.17489   0.00000  Uiso   1.00
H106   H     0.41160   0.29254   0.14790   0.00000  Uiso   1.00
H107   H     0.52278   0.23802   0.03171   0.00000  Uiso   1.00
H108   H     0.52346   0.09769   0.47096   0.00000  Uiso   1.00
H109   H     0.47722   0.23803   0.46829   0.00000  Uiso   1.00
H110   H     0.47653   0.09770   0.02904   0.00000  Uiso   1.00
H111   H     0.52200   0.23768   0.11214   0.00000  Uiso   1.00
H112   H     0.52259   0.09678   0.39079   0.00000  Uiso   1.00
H113   H     0.47801   0.23768   0.38785   0.00000  Uiso   1.00
H114   H     0.41056   0.04170   0.20953   0.00000  Uiso   1.00
H115   H     0.47740   0.09678   0.10921   0.00000  Uiso   1.00
H116   H     0.37051   0.09183   0.25124   0.00000  Uiso   1.00
H117   H     0.62947   0.24157   0.24889   0.00000  Uiso   1.00
H118   H     0.62950   0.09183   0.24895   0.00000  Uiso   1.00
H119   H     0.37052   0.24158   0.25091   0.00000  Uiso   1.00
H120   H     0.40990   0.03885   0.14995   0.00000  Uiso   1.00
H121   H     0.58878   0.28992   0.29244   0.00000  Uiso   1.00
H122   H     0.57838   0.23916   0.32516   0.00000  Uiso   1.00
H123   H     0.58847   0.29260   0.35198   0.00000  Uiso   1.00
H124   H     0.58092   0.09264   0.32356   0.00000  Uiso   1.00
H125   H     0.58946   0.04156   0.29058   0.00000  Uiso   1.00
H126   H     0.59004   0.03891   0.35017   0.00000  Uiso   1.00
N127   N     0.50000   0.28402   0.25000   0.00000  Uiso   1.00
N128   N     0.50000   0.04931   0.25000   0.00000  Uiso   1.00
O129   O     0.43988   0.20625   0.25000   0.00000  Uiso   1.00
O130   O     0.53050   0.28603   0.32299   0.00000  Uiso   1.00
O131   O     0.53184   0.04744   0.32222   0.00000  Uiso   1.00
O132   O     0.46952   0.28603   0.17701   0.00000  Uiso   1.00
O133   O     0.56012   0.12709   0.25001   0.00000  Uiso   1.00
O134   O     0.56012   0.20625   0.25001   0.00000  Uiso   1.00
O135   O     0.43988   0.12709   0.25000   0.00000  Uiso   1.00
O136   O     0.50000   0.20626   0.18573   0.00000  Uiso   1.00
O137   O     0.50000   0.12707   0.31427   0.00000  Uiso   1.00
O138   O     0.50000   0.20626   0.31427   0.00000  Uiso   1.00
O139   O     0.50000   0.12707   0.18573   0.00000  Uiso   1.00
O140   O     0.46814   0.04744   0.17779   0.00000  Uiso   1.00
C141   C     0.75414   0.16667   0.25025   0.00000  Uiso   1.00
C142   C     0.97871   0.20870   0.24957   0.00000  Uiso   1.00
C143   C     0.97872   0.12470   0.24963   0.00000  Uiso   1.00
C144   C     0.68795   0.20870   0.25032   0.00000  Uiso   1.00
C145   C     0.84560   0.20725   0.04833   0.00000  Uiso   1.00
C146   C     0.84624   0.12822   0.45315   0.00000  Uiso   1.00
C147   C     0.82107   0.20725   0.45167   0.00000  Uiso   1.00
C148   C     0.82042   0.12822   0.04685   0.00000  Uiso   1.00
C149   C     0.84536   0.20696   0.09426   0.00000  Uiso   1.00
C150   C     0.84593   0.12774   0.40727   0.00000  Uiso   1.00
C151   C     0.82131   0.20696   0.40574   0.00000  Uiso   1.00
C152   C     0.91253   0.16667   0.24975   0.00000  Uiso   1.00
C153   C     0.82073   0.12774   0.09273   0.00000  Uiso   1.00
C154   C     0.83314   0.16708   0.11677   0.00000  Uiso   1.00
C155   C     0.83352   0.16708   0.38324   0.00000  Uiso   1.00
C156   C     0.83312   0.16785   0.02427   0.00000  Uiso   1.00
C157   C     0.83354   0.16785   0.47573   0.00000  Uiso   1.00
C158   C     0.95720   0.16669   0.24954   0.00000  Uiso   1.00
C159   C     0.70947   0.16669   0.25046   0.00000  Uiso   1.00
C160   C     0.75859   0.05505   0.17932   0.00000  Uiso   1.00
C161   C     0.90654   0.27697   0.32227   0.00000  Uiso   1.00
C162   C     0.90807   0.05502   0.32072   0.00000  Uiso   1.00
C163   C     0.83321   0.16672   0.16507   0.00000  Uiso   1.00
C164   C     0.76014   0.27700   0.17768   0.00000  Uiso   1.00
C165   C     0.83345   0.16672   0.33493   0.00000  Uiso   1.00
C166   C     0.81589   0.02467   0.21528   0.00000  Uiso   1.00
C167   C     0.85049   0.30866   0.28492   0.00000  Uiso   1.00
C168   C     0.85078   0.02467   0.28472   0.00000  Uiso   1.00
C169   C     0.81618   0.30866   0.21508   0.00000  Uiso   1.00
C170   C     0.68795   0.12470   0.25048   0.00000  Uiso   1.00
Cu171  Cu    0.83333   0.21355   0.25000   0.00000  Uiso   1.00
Cu172  Cu    0.83333   0.11978   0.25000   0.00000  Uiso   1.00
H173   H     0.75241   0.09266   0.17638   0.00000  Uiso   1.00
H174   H     0.74453   0.29006   0.20743   0.00000  Uiso   1.00
H175   H     0.75496   0.23919   0.17489   0.00000  Uiso   1.00
H176   H     0.74493   0.29254   0.14790   0.00000  Uiso   1.00
H177   H     0.85612   0.23802   0.03171   0.00000  Uiso   1.00
H178   H     0.85679   0.09769   0.47096   0.00000  Uiso   1.00
H179   H     0.81056   0.23803   0.46829   0.00000  Uiso   1.00
H180   H     0.80986   0.09770   0.02904   0.00000  Uiso   1.00
H181   H     0.85534   0.23768   0.11214   0.00000  Uiso   1.00
H182   H     0.85592   0.09678   0.39079   0.00000  Uiso   1.00
H183   H     0.81134   0.23768   0.38785   0.00000  Uiso   1.00
H184   H     0.74390   0.04170   0.20953   0.00000  Uiso   1.00
H185   H     0.81074   0.09678   0.10921   0.00000  Uiso   1.00
H186   H     0.70384   0.09183   0.25124   0.00000  Uiso   1.00
H187   H     0.96280   0.24157   0.24889   0.00000  Uiso   1.00
H188   H     0.96283   0.09183   0.24895   0.00000  Uiso   1.00
H189   H     0.70386   0.24158   0.25091   0.00000  Uiso   1.00
H190   H     0.74323   0.03885   0.14995   0.00000  Uiso   1.00
H191   H     0.92211   0.28992   0.29244   0.00000  Uiso   1.00
H192   H     0.91171   0.23916   0.32516   0.00000  Uiso   1.00
H193   H     0.92180   0.29260   0.35198   0.00000  Uiso   1.00
H194   H     0.91426   0.09264   0.32356   0.00000  Uiso   1.00
H195   H     0.92280   0.04156   0.29058   0.00000  Uiso   1.00
H196   H     0.92338   0.03891   0.35017   0.00000  Uiso   1.00
N197   N     0.83333   0.28402   0.25000   0.00000  Uiso   1.00
N198   N     0.83333   0.04931   0.25000   0.00000  Uiso   1.00
O199   O     0.77321   0.20625   0.25000   0.00000  Uiso   1.00
O200   O     0.86384   0.28603   0.32299   0.00000  Uiso   1.00
O201   O     0.86518   0.04744   0.32222   0.00000  Uiso   1.00
O202   O     0.80285   0.28603   0.17701   0.00000  Uiso   1.00
O203   O     0.89345   0.12709   0.25001   0.00000  Uiso   1.00
O204   O     0.89345   0.20625   0.25001   0.00000  Uiso   1.00
O205   O     0.77321   0.12709   0.25000   0.00000  Uiso   1.00
O206   O     0.83333   0.20626   0.18573   0.00000  Uiso   1.00
O207   O     0.83334   0.12707   0.31427   0.00000  Uiso   1.00
O208   O     0.83334   0.20626   0.31427   0.00000  Uiso   1.00
O209   O     0.83333   0.12707   0.18573   0.00000  Uiso   1.00
O210   O     0.80147   0.04744   0.17779   0.00000  Uiso   1.00
C211   C     0.08747   0.50000   0.25025   0.00000  Uiso   1.00
C212   C     0.31204   0.54203   0.24957   0.00000  Uiso   1.00
C213   C     0.31205   0.45803   0.24963   0.00000  Uiso   1.00
C214   C     0.02129   0.54203   0.25032   0.00000  Uiso   1.00
C215   C     0.17893   0.54059   0.04833   0.00000  Uiso   1.00
C216   C     0.17957   0.46155   0.45315   0.00000  Uiso   1.00
C217   C     0.15440   0.54059   0.45167   0.00000  Uiso   1.00
C218   C     0.15375   0.46155   0.04685   0.00000  Uiso   1.00
C219   C     0.17869   0.54029   0.09426   0.00000  Uiso   1.00
C220   C     0.17927   0.46107   0.40727   0.00000  Uiso   1.00
C221   C     0.15464   0.54029   0.40574   0.00000  Uiso   1.00
C222   C     0.24586   0.50000   0.24975   0.00000  Uiso   1.00
C223   C     0.15406   0.46108   0.09273   0.00000  Uiso   1.00
C224   C     0.16647   0.50041   0.11677   0.00000  Uiso   1.00
C225   C     0.16686   0.50041   0.38324   0.00000  Uiso   1.00
C226   C     0.16646   0.50119   0.02427   0.00000  Uiso   1.00
C227   C     0.16687   0.50119   0.47573   0.00000  Uiso   1.00
C228   C     0.29053   0.50003   0.24954   0.00000  Uiso   1.00
C229   C     0.04280   0.50003   0.25046   0.00000  Uiso   1.00
C230   C     0.09192   0.38838   0.17932   0.00000  Uiso   1.00
C231   C     0.23987   0.61030   0.32227   0.00000  Uiso   1.00
C232   C     0.24140   0.38835   0.32072   0.00000  Uiso   1.00
C233   C     0.16655   0.50005   0.16507   0.00000  Uiso   1.00
C234   C     0.09347   0.61033   0.17768   0.00000  Uiso   1.00
C235   C     0.16679   0.50005   0.33493   0.00000  Uiso   1.00
C236   C     0.14922   0.35800   0.21528   0.00000  Uiso   1.00
C237   C     0.18382   0.64199   0.28492   0.00000  Uiso   1.00
C238   C     0.18411   0.35800   0.28472   0.00000  Uiso   1.00
C239   C     0.14952   0.64199   0.21508   0.00000  Uiso   1.00
C240   C     0.02128   0.45803   0.25048   0.00000  Uiso   1.00
Cu241  Cu    0.16667   0.54689   0.25000   0.00000  Uiso   1.00
Cu242  Cu    0.16667   0.45311   0.25000   0.00000  Uiso   1.00
H243   H     0.08574   0.42599   0.17638   0.00000  Uiso   1.00
H244   H     0.07787   0.62339   0.20743   0.00000  Uiso   1.00
H245   H     0.08829   0.57252   0.17489   0.00000  Uiso   1.00
H246   H     0.07826   0.62588   0.14790   0.00000  Uiso   1.00
H247   H     0.18945   0.57136   0.03171   0.00000  Uiso   1.00
H248   H     0.19013   0.43103   0.47096   0.00000  Uiso   1.00
H249   H     0.14389   0.57136   0.46829   0.00000  Uiso   1.00
H250   H     0.14319   0.43103   0.02904   0.00000  Uiso   1.00
H251   H     0.18867   0.57101   0.11214   0.00000  Uiso   1.00
H252   H     0.18925   0.43011   0.39079   0.00000  Uiso   1.00
H253   H     0.14467   0.57102   0.38785   0.00000  Uiso   1.00
H254   H     0.07723   0.37503   0.20953   0.00000  Uiso   1.00
H255   H     0.14407   0.43012   0.10921   0.00000  Uiso   1.00
H256   H     0.03718   0.42516   0.25124   0.00000  Uiso   1.00
H257   H     0.29614   0.57491   0.24889   0.00000  Uiso   1.00
H258   H     0.29616   0.42516   0.24895   0.00000  Uiso   1.00
H259   H     0.03719   0.57491   0.25091   0.00000  Uiso   1.00
H260   H     0.07657   0.37219   0.14995   0.00000  Uiso   1.00
H261   H     0.25544   0.62325   0.29244   0.00000  Uiso   1.00
H262   H     0.24504   0.57250   0.32516   0.00000  Uiso   1.00
H263   H     0.25514   0.62593   0.35198   0.00000  Uiso   1.00
H264   H     0.24759   0.42597   0.32356   0.00000  Uiso   1.00
H265   H     0.25613   0.37489   0.29058   0.00000  Uiso   1.00
H266   H     0.25671   0.37224   0.35017   0.00000  Uiso   1.00
N267   N     0.16667   0.61736   0.25000   0.00000  Uiso   1.00
N268   N     0.16667   0.38264   0.25000   0.00000  Uiso   1.00
O269   O     0.10655   0.53958   0.25000   0.00000  Uiso   1.00
O270   O     0.19717   0.61936   0.32299   0.00000  Uiso   1.00
O271   O     0.19851   0.38077   0.32222   0.00000  Uiso   1.00
O272   O     0.13619   0.61937   0.17701   0.00000  Uiso   1.00
O273   O     0.22679   0.46042   0.25001   0.00000  Uiso   1.00
O274   O     0.22679   0.53958   0.25001   0.00000  Uiso   1.00
O275   O     0.10655   0.46042   0.25000   0.00000  Uiso   1.00
O276   O     0.16666   0.53959   0.18573   0.00000  Uiso   1.00
O277   O     0.16667   0.46041   0.31427   0.00000  Uiso   1.00
O278   O     0.16667   0.53959   0.31427   0.00000  Uiso   1.00
O279   O     0.16666   0.46041   0.18573   0.00000  Uiso   1.00
O280   O     0.13480   0.38078   0.17779   0.00000  Uiso   1.00
C281   C     0.42081   0.50000   0.25025   0.00000  Uiso   1.00
C282   C     0.64538   0.54203   0.24957   0.00000  Uiso   1.00
C283   C     0.64539   0.45803   0.24963   0.00000  Uiso   1.00
C284   C     0.35462   0.54203   0.25032   0.00000  Uiso   1.00
C285   C     0.51227   0.54059   0.04833   0.00000  Uiso   1.00
C286   C     0.51290   0.46155   0.45315   0.00000  Uiso   1.00
C287   C     0.48774   0.54059   0.45167   0.00000  Uiso   1.00
C288   C     0.48709   0.46155   0.04685   0.00000  Uiso   1.00
C289   C     0.51203   0.54029   0.09426   0.00000  Uiso   1.00
C290   C     0.51260   0.46107   0.40727   0.00000  Uiso   1.00
C291   C     0.48798   0.54029   0.40574   0.00000  Uiso   1.00
C292   C     0.57919   0.50000   0.24975   0.00000  Uiso   1.00
C293   C     0.48739   0.46108   0.09273   0.00000  Uiso   1.00
C294   C     0.49981   0.50041   0.11677   0.00000  Uiso   1.00
C295   C     0.50019   0.50041   0.38324   0.00000  Uiso   1.00
C296   C     0.49979   0.50119   0.02427   0.00000  Uiso   1.00
C297   C     0.50021   0.50119   0.47573   0.00000  Uiso   1.00
C298   C     0.62386   0.50003   0.24954   0.00000  Uiso   1.00
C299   C     0.37614   0.50003   0.25046   0.00000  Uiso   1.00
C300   C     0.42525   0.38838   0.17932   0.00000  Uiso   1.00
C301   C     0.57321   0.61030   0.32227   0.00000  Uiso   1.00
C302   C     0.57474   0.38835   0.32072   0.00000  Uiso   1.00
C303   C     0.49988   0.50005   0.16507   0.00000  Uiso   1.00
C304   C     0.42681   0.61033   0.17768   0.00000  Uiso   1.00
C305   C     0.50012   0.50005   0.33493   0.00000  Uiso   1.00
C306   C     0.48256   0.35800   0.21528   0.00000  Uiso   1.00
C307   C     0.51715   0.64199   0.28492   0.00000  Uiso   1.00
C308   C     0.51744   0.35800   0.28472   0.00000  Uiso   1.00
C309   C     0.48285   0.64199   0.21508   0.00000  Uiso   1.00
C310   C     0.35462   0.45803   0.25048   0.00000  Uiso   1.00
Cu311  Cu    0.50000   0.54689   0.25000   0.00000  Uiso   1.00
Cu312  Cu    0.50000   0.45311   0.25000   0.00000  Uiso   1.00
H313   H     0.41907   0.42599   0.17638   0.00000  Uiso   1.00
H314   H     0.41120   0.62339   0.20743   0.00000  Uiso   1.00
H315   H     0.42162   0.57252   0.17489   0.00000  Uiso   1.00
H316   H     0.41160   0.62588   0.14790   0.00000  Uiso   1.00
H317   H     0.52278   0.57136   0.03171   0.00000  Uiso   1.00
H318   H     0.52346   0.43103   0.47096   0.00000  Uiso   1.00
H319   H     0.47722   0.57136   0.46829   0.00000  Uiso   1.00
H320   H     0.47653   0.43103   0.02904   0.00000  Uiso   1.00
H321   H     0.52200   0.57101   0.11214   0.00000  Uiso   1.00
H322   H     0.52259   0.43011   0.39079   0.00000  Uiso   1.00
H323   H     0.47801   0.57102   0.38785   0.00000  Uiso   1.00
H324   H     0.41056   0.37503   0.20953   0.00000  Uiso   1.00
H325   H     0.47740   0.43012   0.10921   0.00000  Uiso   1.00
H326   H     0.37051   0.42516   0.25124   0.00000  Uiso   1.00
H327   H     0.62947   0.57491   0.24889   0.00000  Uiso   1.00
H328   H     0.62950   0.42516   0.24895   0.00000  Uiso   1.00
H329   H     0.37052   0.57491   0.25091   0.00000  Uiso   1.00
H330   H     0.40990   0.37219   0.14995   0.00000  Uiso   1.00
H331   H     0.58878   0.62325   0.29244   0.00000  Uiso   1.00
H332   H     0.57838   0.57250   0.32516   0.00000  Uiso   1.00
H333   H     0.58847   0.62593   0.35198   0.00000  Uiso   1.00
H334   H     0.58092   0.42597   0.32356   0.00000  Uiso   1.00
H335   H     0.58946   0.37489   0.29058   0.00000  Uiso   1.00
H336   H     0.59004   0.37224   0.35017   0.00000  Uiso   1.00
N337   N     0.50000   0.61736   0.25000   0.00000  Uiso   1.00
N338   N     0.50000   0.38264   0.25000   0.00000  Uiso   1.00
O339   O     0.43988   0.53958   0.25000   0.00000  Uiso   1.00
O340   O     0.53050   0.61936   0.32299   0.00000  Uiso   1.00
O341   O     0.53184   0.38077   0.32222   0.00000  Uiso   1.00
O342   O     0.46952   0.61937   0.17701   0.00000  Uiso   1.00
O343   O     0.56012   0.46042   0.25001   0.00000  Uiso   1.00
O344   O     0.56012   0.53958   0.25001   0.00000  Uiso   1.00
O345   O     0.43988   0.46042   0.25000   0.00000  Uiso   1.00
O346   O     0.50000   0.53959   0.18573   0.00000  Uiso   1.00
O347   O     0.50000   0.46041   0.31427   0.00000  Uiso   1.00
O348   O     0.50000   0.53959   0.31427   0.00000  Uiso   1.00
O349   O     0.50000   0.46041   0.18573   0.00000  Uiso   1.00
O350   O     0.46814   0.38078   0.17779   0.00000  Uiso   1.00
C351   C     0.75414   0.50000   0.25025   0.00000  Uiso   1.00
C352   C     0.97871   0.54203   0.24957   0.00000  Uiso   1.00
C353   C     0.97872   0.45803   0.24963   0.00000  Uiso   1.00
C354   C     0.68795   0.54203   0.25032   0.00000  Uiso   1.00
C355   C     0.84560   0.54059   0.04833   0.00000  Uiso   1.00
C356   C     0.84624   0.46155   0.45315   0.00000  Uiso   1.00
C357   C     0.82107   0.54059   0.45167   0.00000  Uiso   1.00
C358   C     0.82042   0.46155   0.04685   0.00000  Uiso   1.00
C359   C     0.84536   0.54029   0.09426   0.00000  Uiso   1.00
C360   C     0.84593   0.46107   0.40727   0.00000  Uiso   1.00
C361   C     0.82131   0.54029   0.40574   0.00000  Uiso   1.00
C362   C     0.91253   0.50000   0.24975   0.00000  Uiso   1.00
C363   C     0.82073   0.46108   0.09273   0.00000  Uiso   1.00
C364   C     0.83314   0.50041   0.11677   0.00000  Uiso   1.00
C365   C     0.83352   0.50041   0.38324   0.00000  Uiso   1.00
C366   C     0.83312   0.50119   0.02427   0.00000  Uiso   1.00
C367   C     0.83354   0.50119   0.47573   0.00000  Uiso   1.00
C368   C     0.95720   0.50003   0.24954   0.00000  Uiso   1.00
C369   C     0.70947   0.50003   0.25046   0.00000  Uiso   1.00
C370   C     0.75859   0.38838   0.17932   0.00000  Uiso   1.00
C371   C     0.90654   0.61030   0.32227   0.00000  Uiso   1.00
C372   C     0.90807   0.38835   0.32072   0.00000  Uiso   1.00
C373   C     0.83321   0.50005   0.16507   0.00000  Uiso   1.00
C374   C     0.76014   0.61033   0.17768   0.00000  Uiso   1.00
C375   C     0.83345   0.50005   0.33493   0.00000  Uiso   1.00
C376   C     0.81589   0.35800   0.21528   0.00000  Uiso   1.00
C377   C     0.85049   0.64199   0.28492   0.00000  Uiso   1.00
C378   C     0.85078   0.35800   0.28472   0.00000  Uiso   1.00
C379   C     0.81618   0.64199   0.21508   0.00000  Uiso   1.00
C380   C     0.68795   0.45803   0.25048   0.00000  Uiso   1.00
Cu381  Cu    0.83333   0.54689   0.25000   0.00000  Uiso   1.00
Cu382  Cu    0.83333   0.45311   0.25000   0.00000  Uiso   1.00
H383   H     0.75241   0.42599   0.17638   0.00000  Uiso   1.00
H384   H     0.74453   0.62339   0.20743   0.00000  Uiso   1.00
H385   H     0.75496   0.57252   0.17489   0.00000  Uiso   1.00
H386   H     0.74493   0.62588   0.14790   0.00000  Uiso   1.00
H387   H     0.85612   0.57136   0.03171   0.00000  Uiso   1.00
H388   H     0.85679   0.43103   0.47096   0.00000  Uiso   1.00
H389   H     0.81056   0.57136   0.46829   0.00000  Uiso   1.00
H390   H     0.80986   0.43103   0.02904   0.00000  Uiso   1.00
H391   H     0.85534   0.57101   0.11214   0.00000  Uiso   1.00
H392   H     0.85592   0.43011   0.39079   0.00000  Uiso   1.00
H393   H     0.81134   0.57102   0.38785   0.00000  Uiso   1.00
H394   H     0.74390   0.37503   0.20953   0.00000  Uiso   1.00
H395   H     0.81074   0.43012   0.10921   0.00000  Uiso   1.00
H396   H     0.70384   0.42516   0.25124   0.00000  Uiso   1.00
H397   H     0.96280   0.57491   0.24889   0.00000  Uiso   1.00
H398   H     0.96283   0.42516   0.24895   0.00000  Uiso   1.00
H399   H     0.70386   0.57491   0.25091   0.00000  Uiso   1.00
H400   H     0.74323   0.37219   0.14995   0.00000  Uiso   1.00
H401   H     0.92211   0.62325   0.29244   0.00000  Uiso   1.00
H402   H     0.91171   0.57250   0.32516   0.00000  Uiso   1.00
H403   H     0.92180   0.62593   0.35198   0.00000  Uiso   1.00
H404   H     0.91426   0.42597   0.32356   0.00000  Uiso   1.00
H405   H     0.92280   0.37489   0.29058   0.00000  Uiso   1.00
H406   H     0.92338   0.37224   0.35017   0.00000  Uiso   1.00
N407   N     0.83333   0.61736   0.25000   0.00000  Uiso   1.00
N408   N     0.83333   0.38264   0.25000   0.00000  Uiso   1.00
O409   O     0.77321   0.53958   0.25000   0.00000  Uiso   1.00
O410   O     0.86384   0.61936   0.32299   0.00000  Uiso   1.00
O411   O     0.86518   0.38077   0.32222   0.00000  Uiso   1.00
O412   O     0.80285   0.61937   0.17701   0.00000  Uiso   1.00
O413   O     0.89345   0.46042   0.25001   0.00000  Uiso   1.00
O414   O     0.89345   0.53958   0.25001   0.00000  Uiso   1.00
O415   O     0.77321   0.46042   0.25000   0.00000  Uiso   1.00
O416   O     0.83333   0.53959   0.18573   0.00000  Uiso   1.00
O417   O     0.83334   0.46041   0.31427   0.00000  Uiso   1.00
O418   O     0.83334   0.53959   0.31427   0.00000  Uiso   1.00
O419   O     0.83333   0.46041   0.18573   0.00000  Uiso   1.00
O420   O     0.80147   0.38078   0.17779   0.00000  Uiso   1.00
C421   C     0.08747   0.83334   0.25025   0.00000  Uiso   1.00
C422   C     0.31204   0.87537   0.24957   0.00000  Uiso   1.00
C423   C     0.31205   0.79136   0.24963   0.00000  Uiso   1.00
C424   C     0.02129   0.87537   0.25032   0.00000  Uiso   1.00
C425   C     0.17893   0.87392   0.04833   0.00000  Uiso   1.00
C426   C     0.17957   0.79488   0.45315   0.00000  Uiso   1.00
C427   C     0.15440   0.87392   0.45167   0.00000  Uiso   1.00
C428   C     0.15375   0.79489   0.04685   0.00000  Uiso   1.00
C429   C     0.17869   0.87363   0.09426   0.00000  Uiso   1.00
C430   C     0.17927   0.79441   0.40727   0.00000  Uiso   1.00
C431   C     0.15464   0.87363   0.40574   0.00000  Uiso   1.00
C432   C     0.24586   0.83334   0.24975   0.00000  Uiso   1.00
C433   C     0.15406   0.79441   0.09273   0.00000  Uiso   1.00
C434   C     0.16647   0.83375   0.11677   0.00000  Uiso   1.00
C435   C     0.16686   0.83375   0.38324   0.00000  Uiso   1.00
C436   C     0.16646   0.83452   0.02427   0.00000  Uiso   1.00
C437   C     0.16687   0.83452   0.47573   0.00000  Uiso   1.00
C438   C     0.29053   0.83336   0.24954   0.00000  Uiso   1.00
C439   C     0.04280   0.83336   0.25046   0.00000  Uiso   1.00
C440   C     0.09192   0.72171   0.17932   0.00000  Uiso   1.00
C441   C     0.23987   0.94364   0.32227   0.00000  Uiso   1.00
C442   C     0.24140   0.72168   0.32072   0.00000  Uiso   1.00
C443   C     0.16655   0.83339   0.16507   0.00000  Uiso   1.00
C444   C     0.09347   0.94367   0.17768   0.00000  Uiso   1.00
C445   C     0.16679   0.83339   0.33493   0.00000  Uiso   1.00
C446   C     0.14922   0.69133   0.21528   0.00000  Uiso   1.00
C447   C     0.18382   0.97532   0.28492   0.00000  Uiso   1.00
C448   C     0.18411   0.69133   0.28472   0.00000  Uiso   1.00
C449   C     0.14952   0.97532   0.21508   0.00000  Uiso   1.00
C450   C     0.02128   0.79137   0.25048   0.00000  Uiso   1.00
Cu451  Cu    0.16667   0.88022   0.25000   0.00000  Uiso   1.00
Cu452  Cu    0.16667   0.78645   0.25000   0.00000  Uiso   1.00
H453   H     0.08574   0.75933   0.17638   0.00000  Uiso   1.00
H454   H     0.07787   0.95672   0.20743   0.00000  Uiso   1.00
H455   H     0.08829   0.90586   0.17489   0.00000  Uiso   1.00
H456   H     0.07826   0.95921   0.14790   0.00000  Uiso   1.00
H457   H     0.18945   0.90469   0.03171   0.00000  Uiso   1.00
H458   H     0.19013   0.76436   0.47096   0.00000  Uiso   1.00
H459   H     0.14389   0.90469   0.46829   0.00000  Uiso   1.00
H460   H     0.14319   0.76437   0.02904   0.00000  Uiso   1.00
H461   H     0.18867   0.90435   0.11214   0.00000  Uiso   1.00
H462   H     0.18925   0.76344   0.39079   0.00000  Uiso   1.00
H463   H     0.14467   0.90435   0.38785   0.00000  Uiso   1.00
H464   H     0.07723   0.70837   0.20953   0.00000  Uiso   1.00
H465   H     0.14407   0.76345   0.10921   0.00000  Uiso   1.00
H466   H     0.03718   0.75850   0.25124   0.00000  Uiso   1.00
H467   H     0.29614   0.90824   0.24889   0.00000  Uiso   1.00
H468   H     0.29616   0.75849   0.24895   0.00000  Uiso   1.00
H469   H     0.03719   0.90824   0.25091   0.00000  Uiso   1.00
H470   H     0.07657   0.70552   0.14995   0.00000  Uiso   1.00
H471   H     0.25544   0.95659   0.29244   0.00000  Uiso   1.00
H472   H     0.24504   0.90583   0.32516   0.00000  Uiso   1.00
H473   H     0.25514   0.95927   0.35198   0.00000  Uiso   1.00
H474   H     0.24759   0.75931   0.32356   0.00000  Uiso   1.00
H475   H     0.25613   0.70823   0.29058   0.00000  Uiso   1.00
H476   H     0.25671   0.70558   0.35017   0.00000  Uiso   1.00
N477   N     0.16667   0.95069   0.25000   0.00000  Uiso   1.00
N478   N     0.16667   0.71598   0.25000   0.00000  Uiso   1.00
O479   O     0.10655   0.87291   0.25000   0.00000  Uiso   1.00
O480   O     0.19717   0.95270   0.32299   0.00000  Uiso   1.00
O481   O     0.19851   0.71411   0.32222   0.00000  Uiso   1.00
O482   O     0.13619   0.95270   0.17701   0.00000  Uiso   1.00
O483   O     0.22679   0.79375   0.25001   0.00000  Uiso   1.00
O484   O     0.22679   0.87291   0.25001   0.00000  Uiso   1.00
O485   O     0.10655   0.79375   0.25000   0.00000  Uiso   1.00
O486   O     0.16666   0.87293   0.18573   0.00000  Uiso   1.00
O487   O     0.16667   0.79374   0.31427   0.00000  Uiso   1.00
O488   O     0.16667   0.87293   0.31427   0.00000  Uiso   1.00
O489   O     0.16666   0.79374   0.18573   0.00000  Uiso   1.00
O490   O     0.13480   0.71411   0.17779   0.00000  Uiso   1.00
C491   C     0.42081   0.83334   0.25025   0.00000  Uiso   1.00
C492   C     0.64538   0.87537   0.24957   0.00000  Uiso   1.00
C493   C     0.64539   0.79136   0.24963   0.00000  Uiso   1.00
C494   C     0.35462   0.87537   0.25032   0.00000  Uiso   1.00
C495   C     0.51227   0.87392   0.04833   0.00000  Uiso   1.00
C496   C     0.51290   0.79488   0.45315   0.00000  Uiso   1.00
C497   C     0.48774   0.87392   0.45167   0.00000  Uiso   1.00
C498   C     0.48709   0.79489   0.04685   0.00000  Uiso   1.00
C499   C     0.51203   0.87363   0.09426   0.00000  Uiso   1.00
C500   C     0.51260   0.79441   0.40727   0.00000  Uiso   1.00
C501   C     0.48798   0.87363   0.40574   0.00000  Uiso   1.00
C502   C     0.57919   0.83334   0.24975   0.00000  Uiso   1.00
C503   C     0.48739   0.79441   0.09273   0.00000  Uiso   1.00
C504   C     0.49981   0.83375   0.11677   0.00000  Uiso   1.00
C505   C     0.50019   0.83375   0.38324   0.00000  Uiso   1.00
C506   C     0.49979   0.83452   0.02427   0.00000  Uiso   1.00
C507   C     0.50021   0.83452   0.47573   0.00000  Uiso   1.00
C508   C     0.62386   0.83336   0.24954   0.00000  Uiso   1.00
C509   C     0.37614   0.83336   0.25046   0.00000  Uiso   1.00
C510   C     0.42525   0.72171   0.17932   0.00000  Uiso   1.00
C511   C     0.57321   0.94364   0.32227   0.00000  Uiso   1.00
C512   C     0.57474   0.72168   0.32072   0.00000  Uiso   1.00
C513   C     0.49988   0.83339   0.16507   0.00000  Uiso   1.00
C514   C     0.42681   0.94367   0.17768   0.00000  Uiso   1.00
C515   C     0.50012   0.83339   0.33493   0.00000  Uiso   1.00
C516   C     0.48256   0.69133   0.21528   0.00000  Uiso   1.00
C517   C     0.51715   0.97532   0.28492   0.00000  Uiso   1.00
C518   C     0.51744   0.69133   0.28472   0.00000  Uiso   1.00
C519   C     0.48285   0.97532   0.21508   0.00000  Uiso   1.00
C520   C     0.35462   0.79137   0.25048   0.00000  Uiso   1.00
Cu521  Cu    0.50000   0.88022   0.25000   0.00000  Uiso   1.00
Cu522  Cu    0.50000   0.78645   0.25000   0.00000  Uiso   1.00
H523   H     0.41907   0.75933   0.17638   0.00000  Uiso   1.00
H524   H     0.41120   0.95672   0.20743   0.00000  Uiso   1.00
H525   H     0.42162   0.90586   0.17489   0.00000  Uiso   1.00
H526   H     0.41160   0.95921   0.14790   0.00000  Uiso   1.00
H527   H     0.52278   0.90469   0.03171   0.00000  Uiso   1.00
H528   H     0.52346   0.76436   0.47096   0.00000  Uiso   1.00
H529   H     0.47722   0.90469   0.46829   0.00000  Uiso   1.00
H530   H     0.47653   0.76437   0.02904   0.00000  Uiso   1.00
H531   H     0.52200   0.90435   0.11214   0.00000  Uiso   1.00
H532   H     0.52259   0.76344   0.39079   0.00000  Uiso   1.00
H533   H     0.47801   0.90435   0.38785   0.00000  Uiso   1.00
H534   H     0.41056   0.70837   0.20953   0.00000  Uiso   1.00
H535   H     0.47740   0.76345   0.10921   0.00000  Uiso   1.00
H536   H     0.37051   0.75850   0.25124   0.00000  Uiso   1.00
H537   H     0.62947   0.90824   0.24889   0.00000  Uiso   1.00
H538   H     0.62950   0.75849   0.24895   0.00000  Uiso   1.00
H539   H     0.37052   0.90824   0.25091   0.00000  Uiso   1.00
H540   H     0.40990   0.70552   0.14995   0.00000  Uiso   1.00
H541   H     0.58878   0.95659   0.29244   0.00000  Uiso   1.00
H542   H     0.57838   0.90583   0.32516   0.00000  Uiso   1.00
H543   H     0.58847   0.95927   0.35198   0.00000  Uiso   1.00
H544   H     0.58092   0.75931   0.32356   0.00000  Uiso   1.00
H545   H     0.58946   0.70823   0.29058   0.00000  Uiso   1.00
H546   H     0.59004   0.70558   0.35017   0.00000  Uiso   1.00
N547   N     0.50000   0.95069   0.25000   0.00000  Uiso   1.00
N548   N     0.50000   0.71598   0.25000   0.00000  Uiso   1.00
O549   O     0.43988   0.87291   0.25000   0.00000  Uiso   1.00
O550   O     0.53050   0.95270   0.32299   0.00000  Uiso   1.00
O551   O     0.53184   0.71411   0.32222   0.00000  Uiso   1.00
O552   O     0.46952   0.95270   0.17701   0.00000  Uiso   1.00
O553   O     0.56012   0.79375   0.25001   0.00000  Uiso   1.00
O554   O     0.56012   0.87291   0.25001   0.00000  Uiso   1.00
O555   O     0.43988   0.79375   0.25000   0.00000  Uiso   1.00
O556   O     0.50000   0.87293   0.18573   0.00000  Uiso   1.00
O557   O     0.50000   0.79374   0.31427   0.00000  Uiso   1.00
O558   O     0.50000   0.87293   0.31427   0.00000  Uiso   1.00
O559   O     0.50000   0.79374   0.18573   0.00000  Uiso   1.00
O560   O     0.46814   0.71411   0.17779   0.00000  Uiso   1.00
C561   C     0.75414   0.83334   0.25025   0.00000  Uiso   1.00
C562   C     0.97871   0.87537   0.24957   0.00000  Uiso   1.00
C563   C     0.97872   0.79136   0.24963   0.00000  Uiso   1.00
C564   C     0.68795   0.87537   0.25032   0.00000  Uiso   1.00
C565   C     0.84560   0.87392   0.04833   0.00000  Uiso   1.00
C566   C     0.84624   0.79488   0.45315   0.00000  Uiso   1.00
C567   C     0.82107   0.87392   0.45167   0.00000  Uiso   1.00
C568   C     0.82042   0.79489   0.04685   0.00000  Uiso   1.00
C569   C     0.84536   0.87363   0.09426   0.00000  Uiso   1.00
C570   C     0.84593   0.79441   0.40727   0.00000  Uiso   1.00
C571   C     0.82131   0.87363   0.40574   0.00000  Uiso   1.00
C572   C     0.91253   0.83334   0.24975   0.00000  Uiso   1.00
C573   C     0.82073   0.79441   0.09273   0.00000  Uiso   1.00
C574   C     0.83314   0.83375   0.11677   0.00000  Uiso   1.00
C575   C     0.83352   0.83375   0.38324   0.00000  Uiso   1.00
C576   C     0.83312   0.83452   0.02427   0.00000  Uiso   1.00
C577   C     0.83354   0.83452   0.47573   0.00000  Uiso   1.00
C578   C     0.95720   0.83336   0.24954   0.00000  Uiso   1.00
C579   C     0.70947   0.83336   0.25046   0.00000  Uiso   1.00
C580   C     0.75859   0.72171   0.17932   0.00000  Uiso   1.00
C581   C     0.90654   0.94364   0.32227   0.00000  Uiso   1.00
C582   C     0.90807   0.72168   0.32072   0.00000  Uiso   1.00
C583   C     0.83321   0.83339   0.16507   0.00000  Uiso   1.00
C584   C     0.76014   0.94367   0.17768   0.00000  Uiso   1.00
C585   C     0.83345   0.83339   0.33493   0.00000  Uiso   1.00
C586   C     0.81589   0.69133   0.21528   0.00000  Uiso   1.00
C587   C     0.85049   0.97532   0.28492   0.00000  Uiso   1.00
C588   C     0.85078   0.69133   0.28472   0.00000  Uiso   1.00
C589   C     0.81618   0.97532   0.21508   0.00000  Uiso   1.00
C590   C     0.68795   0.79137   0.25048   0.00000  Uiso   1.00
Cu591  Cu    0.83333   0.88022   0.25000   0.00000  Uiso   1.00
Cu592  Cu    0.83333   0.78645   0.25000   0.00000  Uiso   1.00
H593   H     0.75241   0.75933   0.17638   0.00000  Uiso   1.00
H594   H     0.74453   0.95672   0.20743   0.00000  Uiso   1.00
H595   H     0.75496   0.90586   0.17489   0.00000  Uiso   1.00
H596   H     0.74493   0.95921   0.14790   0.00000  Uiso   1.00
H597   H     0.85612   0.90469   0.03171   0.00000  Uiso   1.00
H598   H     0.85679   0.76436   0.47096   0.00000  Uiso   1.00
H599   H     0.81056   0.90469   0.46829   0.00000  Uiso   1.00
H600   H     0.80986   0.76437   0.02904   0.00000  Uiso   1.00
H601   H     0.85534   0.90435   0.11214   0.00000  Uiso   1.00
H602   H     0.85592   0.76344   0.39079   0.00000  Uiso   1.00
H603   H     0.81134   0.90435   0.38785   0.00000  Uiso   1.00
H604   H     0.74390   0.70837   0.20953   0.00000  Uiso   1.00
H605   H     0.81074   0.76345   0.10921   0.00000  Uiso   1.00
H606   H     0.70384   0.75850   0.25124   0.00000  Uiso   1.00
H607   H     0.96280   0.90824   0.24889   0.00000  Uiso   1.00
H608   H     0.96283   0.75849   0.24895   0.00000  Uiso   1.00
H609   H     0.70386   0.90824   0.25091   0.00000  Uiso   1.00
H610   H     0.74323   0.70552   0.14995   0.00000  Uiso   1.00
H611   H     0.92211   0.95659   0.29244   0.00000  Uiso   1.00
H612   H     0.91171   0.90583   0.32516   0.00000  Uiso   1.00
H613   H     0.92180   0.95927   0.35198   0.00000  Uiso   1.00
H614   H     0.91426   0.75931   0.32356   0.00000  Uiso   1.00
H615   H     0.92280   0.70823   0.29058   0.00000  Uiso   1.00
H616   H     0.92338   0.70558   0.35017   0.00000  Uiso   1.00
N617   N     0.83333   0.95069   0.25000   0.00000  Uiso   1.00
N618   N     0.83333   0.71598   0.25000   0.00000  Uiso   1.00
O619   O     0.77321   0.87291   0.25000   0.00000  Uiso   1.00
O620   O     0.86384   0.95270   0.32299   0.00000  Uiso   1.00
O621   O     0.86518   0.71411   0.32222   0.00000  Uiso   1.00
O622   O     0.80285   0.95270   0.17701   0.00000  Uiso   1.00
O623   O     0.89345   0.79375   0.25001   0.00000  Uiso   1.00
O624   O     0.89345   0.87291   0.25001   0.00000  Uiso   1.00
O625   O     0.77321   0.79375   0.25000   0.00000  Uiso   1.00
O626   O     0.83333   0.87293   0.18573   0.00000  Uiso   1.00
O627   O     0.83334   0.79374   0.31427   0.00000  Uiso   1.00
O628   O     0.83334   0.87293   0.31427   0.00000  Uiso   1.00
O629   O     0.83333   0.79374   0.18573   0.00000  Uiso   1.00
O630   O     0.80147   0.71411   0.17779   0.00000  Uiso   1.00
C631   C     0.08747   0.16667   0.75025   0.00000  Uiso   1.00
C632   C     0.31204   0.20870   0.74957   0.00000  Uiso   1.00
C633   C     0.31205   0.12470   0.74963   0.00000  Uiso   1.00
C634   C     0.02129   0.20870   0.75032   0.00000  Uiso   1.00
C635   C     0.17893   0.20725   0.54833   0.00000  Uiso   1.00
C636   C     0.17957   0.12822   0.95315   0.00000  Uiso   1.00
C637   C     0.15440   0.20725   0.95167   0.00000  Uiso   1.00
C638   C     0.15375   0.12822   0.54685   0.00000  Uiso   1.00
C639   C     0.17869   0.20696   0.59426   0.00000  Uiso   1.00
C640   C     0.17927   0.12774   0.90727   0.00000  Uiso   1.00
C641   C     0.15464   0.20696   0.90574   0.00000  Uiso   1.00
C642   C     0.24586   0.16667   0.74975   0.00000  Uiso   1.00
C643   C     0.15406   0.12774   0.59273   0.00000  Uiso   1.00
C644   C     0.16647   0.16708   0.61677   0.00000  Uiso   1.00
C645   C     0.16686   0.16708   0.88324   0.00000  Uiso   1.00
C646   C     0.16646   0.16785   0.52427   0.00000  Uiso   1.00
C647   C     0.16687   0.16785   0.97573   0.00000  Uiso   1.00
C648   C     0.29053   0.16669   0.74954   0.00000  Uiso   1.00
C649   C     0.04280   0.16669   0.75046   0.00000  Uiso   1.00
C650   C     0.09192   0.05505   0.67932   0.00000  Uiso   1.00
C651   C     0.23987   0.27697   0.82227   0.00000  Uiso   1.00
C652   C     0.24140   0.05502   0.82072   0.00000  Uiso   1.00
C653   C     0.16655   0.16672   0.66507   0.00000  Uiso   1.00
C654   C     0.09347   0.27700   0.67768   0.00000  Uiso   1.00
C655   C     0.16679   0.16672   0.83493   0.00000  Uiso   1.00
C656   C     0.14922   0.02467   0.71528   0.00000  Uiso   1.00
C657   C     0.18382   0.30866   0.78492   0.00000  Uiso   1.00
C658   C     0.18411   0.02467   0.78472   0.00000  Uiso   1.00
C659   C     0.14952   0.30866   0.71508   0.00000  Uiso   1.00
C660   C     0.02128   0.12470   0.75048   0.00000  Uiso   1.00
Cu661  Cu    0.16667   0.21355   0.75000   0.00000  Uiso   1.00
Cu662  Cu    0.16667   0.11978   0.75000   0.00000  Uiso   1.00
H663   H     0.08574   0.09266   0.67638   0.00000  Uiso   1.00
H664   H     0.07787   0.29006   0.70743   0.00000  Uiso   1.00
H665   H     0.08829   0.23919   0.67489   0.00000  Uiso   1.00
H666   H     0.07826   0.29254   0.64790   0.00000  Uiso   1.00
H667   H     0.18945   0.23802   0.53171   0.00000  Uiso   1.00
H668   H     0.19013   0.09769   0.97096   0.00000  Uiso   1.00
H669   H     0.14389   0.23803   0.96829   0.00000  Uiso   1.00
H670   H     0.14319   0.09770   0.52904   0.00000  Uiso   1.00
H671   H     0.18867   0.23768   0.61214   0.00000  Uiso   1.00
H672   H     0.18925   0.09678   0.89079   0.00000  Uiso   1.00
H673   H     0.14467   0.23768   0.88785   0.00000  Uiso   1.00
H674   H     0.07723   0.04170   0.70953   0.00000  Uiso   1.00
H675   H     0.14407   0.09678   0.60921   0.00000  Uiso   1.00
H676   H     0.03718   0.09183   0.75124   0.00000  Uiso   1.00
H677   H     0.29614   0.24157   0.74889   0.00000  Uiso   1.00
H678   H     0.29616   0.09183   0.74895   0.00000  Uiso   1.00
H679   H     0.03719   0.24158   0.75091   0.00000  Uiso   1.00
H680   H     0.07657   0.03885   0.64995   0.00000  Uiso   1.00
H681   H     0.25544   0.28992   0.79244   0.00000  Uiso   1.00
H682   H     0.24504   0.23916   0.82516   0.00000  Uiso   1.00
H683   H     0.25514   0.29260   0.85198   0.00000  Uiso   1.00
H684   H     0.24759   0.09264   0.82356   0.00000  Uiso   1.00
H685   H     0.25613   0.04156   0.79058   0.00000  Uiso   1.00
H686   H     0.25671   0.03891   0.85017   0.00000  Uiso   1.00
N687   N     0.16667   0.28402   0.75000   0.00000  Uiso   1.00
N688   N     0.16667   0.04931   0.75000   0.00000  Uiso   1.00
O689   O     0.10655   0.20625   0.75000   0.00000  Uiso   1.00
O690   O     0.19717   0.28603   0.82299   0.00000  Uiso   1.00
O691   O     0.19851   0.04744   0.82222   0.00000  Uiso   1.00
O692   O     0.13619   0.28603   0.67701   0.00000  Uiso   1.00
O693   O     0.22679   0.12709   0.75001   0.00000  Uiso   1.00
O694   O     0.22679   0.20625   0.75001   0.00000  Uiso   1.00
O695   O     0.10655   0.12709   0.75000   0.00000  Uiso   1.00
O696   O     0.16666   0.20626   0.68573   0.00000  Uiso   1.00
O697   O     0.16667   0.12707   0.81427   0.00000  Uiso   1.00
O698   O     0.16667   0.20626   0.81427   0.00000  Uiso   1.00
O699   O     0.16666   0.12707   0.68573   0.00000  Uiso   1.00
O700   O     0.13480   0.04744   0.67779   0.00000  Uiso   1.00
C701   C     0.42081   0.16667   0.75025   0.00000  Uiso   1.00
C702   C     0.64538   0.20870   0.74957   0.00000  Uiso   1.00
C703   C     0.64539   0.12470   0.74963   0.00000  Uiso   1.00
C704   C     0.35462   0.20870   0.75032   0.00000  Uiso   1.00
C705   C     0.51227   0.20725   0.54833   0.00000  Uiso   1.00
C706   C     0.51290   0.12822   0.95315   0.00000  Uiso   1.00
C707   C     0.48774   0.20725   0.95167   0.00000  Uiso   1.00
C708   C     0.48709   0.12822   0.54685   0.00000  Uiso   1.00
C709   C     0.51203   0.20696   0.59426   0.00000  Uiso   1.00
C710   C     0.51260   0.12774   0.90727   0.00000  Uiso   1.00
C711   C     0.48798   0.20696   0.90574   0.00000  Uiso   1.00
C712   C     0.57919   0.16667   0.74975   0.00000  Uiso   1.00
C713   C     0.48739   0.12774   0.59273   0.00000  Uiso   1.00
C714   C     0.49981   0.16708   0.61677   0.00000  Uiso   1.00
C715   C     0.50019   0.16708   0.88324   0.00000  Uiso   1.00
C716   C     0.49979   0.16785   0.52427   0.00000  Uiso   1.00
C717   C     0.50021   0.16785   0.97573   0.00000  Uiso   1.00
C718   C     0.62386   0.16669   0.74954   0.00000  Uiso   1.00
C719   C     0.37614   0.16669   0.75046   0.00000  Uiso   1.00
C720   C     0.42525   0.05505   0.67932   0.00000  Uiso   1.00
C721   C     0.57321   0.27697   0.82227   0.00000  Uiso   1.00
C722   C     0.57474   0.05502   0.82072   0.00000  Uiso   1.00
C723   C     0.49988   0.16672   0.66507   0.00000  Uiso   1.00
C724   C     0.42681   0.27700   0.67768   0.00000  Uiso   1.00
C725   C     0.50012   0.16672   0.83493   0.00000  Uiso   1.00
C726   C     0.48256   0.02467   0.71528   0.00000  Uiso   1.00
C727   C     0.51715   0.30866   0.78492   0.00000  Uiso   1.00
C728   C     0.51744   0.02467   0.78472   0.00000  Uiso   1.00
C729   C     0.48285   0.30866   0.71508   0.00000  Uiso   1.00
C730   C     0.35462   0.12470   0.75048   0.00000  Uiso   1.00
Cu731  Cu    0.50000   0.21355   0.75000   0.00000  Uiso   1.00
Cu732  Cu    0.50000   0.11978   0.75000   0.00000  Uiso   1.00
H733   H     0.41907   0.09266   0.67638   0.00000  Uiso   1.00
H734   H     0.41120   0.29006   0.70743   0.00000  Uiso   1.00
H735   H     0.42162   0.23919   0.67489   0.00000  Uiso   1.00
H736   H     0.41160   0.29254   0.64790   0.00000  Uiso   1.00
H737   H     0.52278   0.23802   0.53171   0.00000  Uiso   1.00
H738   H     0.52346   0.09769   0.97096   0.00000  Uiso   1.00
H739   H     0.47722   0.23803   0.96829   0.00000  Uiso   1.00
H740   H     0.47653   0.09770   0.52904   0.00000  Uiso   1.00
H741   H     0.52200   0.23768   0.61214   0.00000  Uiso   1.00
H742   H     0.52259   0.09678   0.89079   0.00000  Uiso   1.00
H743   H     0.47801   0.23768   0.88785   0.00000  Uiso   1.00
H744   H     0.41056   0.04170   0.70953   0.00000  Uiso   1.00
H745   H     0.47740   0.09678   0.60921   0.00000  Uiso   1.00
H746   H     0.37051   0.09183   0.75124   0.00000  Uiso   1.00
H747   H     0.62947   0.24157   0.74889   0.00000  Uiso   1.00
H748   H     0.62950   0.09183   0.74895   0.00000  Uiso   1.00
H749   H     0.37052   0.24158   0.75091   0.00000  Uiso   1.00
H750   H     0.40990   0.03885   0.64995   0.00000  Uiso   1.00
H751   H     0.58878   0.28992   0.79244   0.00000  Uiso   1.00
H752   H     0.57838   0.23916   0.82516   0.00000  Uiso   1.00
H753   H     0.58847   0.29260   0.85198   0.00000  Uiso   1.00
H754   H     0.58092   0.09264   0.82356   0.00000  Uiso   1.00
H755   H     0.58946   0.04156   0.79058   0.00000  Uiso   1.00
H756   H     0.59004   0.03891   0.85017   0.00000  Uiso   1.00
N757   N     0.50000   0.28402   0.75000   0.00000  Uiso   1.00
N758   N     0.50000   0.04931   0.75000   0.00000  Uiso   1.00
O759   O     0.43988   0.20625   0.75000   0.00000  Uiso   1.00
O760   O     0.53050   0.28603   0.82299   0.00000  Uiso   1.00
O761   O     0.53184   0.04744   0.82222   0.00000  Uiso   1.00
O762   O     0.46952   0.28603   0.67701   0.00000  Uiso   1.00
O763   O     0.56012   0.12709   0.75001   0.00000  Uiso   1.00
O764   O     0.56012   0.20625   0.75001   0.00000  Uiso   1.00
O765   O     0.43988   0.12709   0.75000   0.00000  Uiso   1.00
O766   O     0.50000   0.20626   0.68573   0.00000  Uiso   1.00
O767   O     0.50000   0.12707   0.81427   0.00000  Uiso   1.00
O768   O     0.50000   0.20626   0.81427   0.00000  Uiso   1.00
O769   O     0.50000   0.12707   0.68573   0.00000  Uiso   1.00
O770   O     0.46814   0.04744   0.67779   0.00000  Uiso   1.00
C771   C     0.75414   0.16667   0.75025   0.00000  Uiso   1.00
C772   C     0.97871   0.20870   0.74957   0.00000  Uiso   1.00
C773   C     0.97872   0.12470   0.74963   0.00000  Uiso   1.00
C774   C     0.68795   0.20870   0.75032   0.00000  Uiso   1.00
C775   C     0.84560   0.20725   0.54833   0.00000  Uiso   1.00
C776   C     0.84624   0.12822   0.95315   0.00000  Uiso   1.00
C777   C     0.82107   0.20725   0.95167   0.00000  Uiso   1.00
C778   C     0.82042   0.12822   0.54685   0.00000  Uiso   1.00
C779   C     0.84536   0.20696   0.59426   0.00000  Uiso   1.00
C780   C     0.84593   0.12774   0.90727   0.00000  Uiso   1.00
C781   C     0.82131   0.20696   0.90574   0.00000  Uiso   1.00
C782   C     0.91253   0.16667   0.74975   0.00000  Uiso   1.00
C783   C     0.82073   0.12774   0.59273   0.00000  Uiso   1.00
C784   C     0.83314   0.16708   0.61677   0.00000  Uiso   1.00
C785   C     0.83352   0.16708   0.88324   0.00000  Uiso   1.00
C786   C     0.83312   0.16785   0.52427   0.00000  Uiso   1.00
C787   C     0.83354   0.16785   0.97573   0.00000  Uiso   1.00
C788   C     0.95720   0.16669   0.74954   0.00000  Uiso   1.00
C789   C     0.70947   0.16669   0.75046   0.00000  Uiso   1.00
C790   C     0.75859   0.05505   0.67932   0.00000  Uiso   1.00
C791   C     0.90654   0.27697   0.82227   0.00000  Uiso   1.00
C792   C     0.90807   0.05502   0.82072   0.00000  Uiso   1.00
C793   C     0.83321   0.16672   0.66507   0.00000  Uiso   1.00
C794   C     0.76014   0.27700   0.67768   0.00000  Uiso   1.00
C795   C     0.83345   0.16672   0.83493   0.00000  Uiso   1.00
C796   C     0.81589   0.02467   0.71528   0.00000  Uiso   1.00
C797   C     0.85049   0.30866   0.78492   0.00000  Uiso   1.00
C798   C     0.85078   0.02467   0.78472   0.00000  Uiso   1.00
C799   C     0.81618   0.30866   0.71508   0.00000  Uiso   1.00
C800   C     0.68795   0.12470   0.75048   0.00000  Uiso   1.00
Cu801  Cu    0.83333   0.21355   0.75000   0.00000  Uiso   1.00
Cu802  Cu    0.83333   0.11978   0.75000   0.00000  Uiso   1.00
H803   H     0.75241   0.09266   0.67638   0.00000  Uiso   1.00
H804   H     0.74453   0.29006   0.70743   0.00000  Uiso   1.00
H805   H     0.75496   0.23919   0.67489   0.00000  Uiso   1.00
H806   H     0.74493   0.29254   0.64790   0.00000  Uiso   1.00
H807   H     0.85612   0.23802   0.53171   0.00000  Uiso   1.00
H808   H     0.85679   0.09769   0.97096   0.00000  Uiso   1.00
H809   H     0.81056   0.23803   0.96829   0.00000  Uiso   1.00
H810   H     0.80986   0.09770   0.52904   0.00000  Uiso   1.00
H811   H     0.85534   0.23768   0.61214   0.00000  Uiso   1.00
H812   H     0.85592   0.09678   0.89079   0.00000  Uiso   1.00
H813   H     0.81134   0.23768   0.88785   0.00000  Uiso   1.00
H814   H     0.74390   0.04170   0.70953   0.00000  Uiso   1.00
H815   H     0.81074   0.09678   0.60921   0.00000  Uiso   1.00
H816   H     0.70384   0.09183   0.75124   0.00000  Uiso   1.00
H817   H     0.96280   0.24157   0.74889   0.00000  Uiso   1.00
H818   H     0.96283   0.09183   0.74895   0.00000  Uiso   1.00
H819   H     0.70386   0.24158   0.75091   0.00000  Uiso   1.00
H820   H     0.74323   0.03885   0.64995   0.00000  Uiso   1.00
H821   H     0.92211   0.28992   0.79244   0.00000  Uiso   1.00
H822   H     0.91171   0.23916   0.82516   0.00000  Uiso   1.00
H823   H     0.92180   0.29260   0.85198   0.00000  Uiso   1.00
H824   H     0.91426   0.09264   0.82356   0.00000  Uiso   1.00
H825   H     0.92280   0.04156   0.79058   0.00000  Uiso   1.00
H826   H     0.92338   0.03891   0.85017   0.00000  Uiso   1.00
N827   N     0.83333   0.28402   0.75000   0.00000  Uiso   1.00
N828   N     0.83333   0.04931   0.75000   0.00000  Uiso   1.00
O829   O     0.77321   0.20625   0.75000   0.00000  Uiso   1.00
O830   O     0.86384   0.28603   0.82299   0.00000  Uiso   1.00
O831   O     0.86518   0.04744   0.82222   0.00000  Uiso   1.00
O832   O     0.80285   0.28603   0.67701   0.00000  Uiso   1.00
O833   O     0.89345   0.12709   0.75001   0.00000  Uiso   1.00
O834   O     0.89345   0.20625   0.75001   0.00000  Uiso   1.00
O835   O     0.77321   0.12709   0.75000   0.00000  Uiso   1.00
O836   O     0.83333   0.20626   0.68573   0.00000  Uiso   1.00
O837   O     0.83334   0.12707   0.81427   0.00000  Uiso   1.00
O838   O     0.83334   0.20626   0.81427   0.00000  Uiso   1.00
O839   O     0.83333   0.12707   0.68573   0.00000  Uiso   1.00
O840   O     0.80147   0.04744   0.67779   0.00000  Uiso   1.00
C841   C     0.08747   0.50000   0.75025   0.00000  Uiso   1.00
C842   C     0.31204   0.54203   0.74957   0.00000  Uiso   1.00
C843   C     0.31205   0.45803   0.74963   0.00000  Uiso   1.00
C844   C     0.02129   0.54203   0.75032   0.00000  Uiso   1.00
C845   C     0.17893   0.54059   0.54833   0.00000  Uiso   1.00
C846   C     0.17957   0.46155   0.95315   0.00000  Uiso   1.00
C847   C     0.15440   0.54059   0.95167   0.00000  Uiso   1.00
C848   C     0.15375   0.46155   0.54685   0.00000  Uiso   1.00
C849   C     0.17869   0.54029   0.59426   0.00000  Uiso   1.00
C850   C     0.17927   0.46107   0.90727   0.00000  Uiso   1.00
C851   C     0.15464   0.54029   0.90574   0.00000  Uiso   1.00
C852   C     0.24586   0.50000   0.74975   0.00000  Uiso   1.00
C853   C     0.15406   0.46108   0.59273   0.00000  Uiso   1.00
C854   C     0.16647   0.50041   0.61677   0.00000  Uiso   1.00
C855   C     0.16686   0.50041   0.88324   0.00000  Uiso   1.00
C856   C     0.16646   0.50119   0.52427   0.00000  Uiso   1.00
C857   C     0.16687   0.50119   0.97573   0.00000  Uiso   1.00
C858   C     0.29053   0.50003   0.74954   0.00000  Uiso   1.00
C859   C     0.04280   0.50003   0.75046   0.00000  Uiso   1.00
C860   C     0.09192   0.38838   0.67932   0.00000  Uiso   1.00
C861   C     0.23987   0.61030   0.82227   0.00000  Uiso   1.00
C862   C     0.24140   0.38835   0.82072   0.00000  Uiso   1.00
C863   C     0.16655   0.50005   0.66507   0.00000  Uiso   1.00
C864   C     0.09347   0.61033   0.67768   0.00000  Uiso   1.00
C865   C     0.16679   0.50005   0.83493   0.00000  Uiso   1.00
C866   C     0.14922   0.35800   0.71528   0.00000  Uiso   1.00
C867   C     0.18382   0.64199   0.78492   0.00000  Uiso   1.00
C868   C     0.18411   0.35800   0.78472   0.00000  Uiso   1.00
C869   C     0.14952   0.64199   0.71508   0.00000  Uiso   1.00
C870   C     0.02128   0.45803   0.75048   0.00000  Uiso   1.00
Cu871  Cu    0.16667   0.54689   0.75000   0.00000  Uiso   1.00
Cu872  Cu    0.16667   0.45311   0.75000   0.00000  Uiso   1.00
H873   H     0.08574   0.42599   0.67638   0.00000  Uiso   1.00
H874   H     0.07787   0.62339   0.70743   0.00000  Uiso   1.00
H875   H     0.08829   0.57252   0.67489   0.00000  Uiso   1.00
H876   H     0.07826   0.62588   0.64790   0.00000  Uiso   1.00
H877   H     0.18945   0.57136   0.53171   0.00000  Uiso   1.00
H878   H     0.19013   0.43103   0.97096   0.00000  Uiso   1.00
H879   H     0.14389   0.57136   0.96829   0.00000  Uiso   1.00
H880   H     0.14319   0.43103   0.52904   0.00000  Uiso   1.00
H881   H     0.18867   0.57101   0.61214   0.00000  Uiso   1.00
H882   H     0.18925   0.43011   0.89079   0.00000  Uiso   1.00
H883   H     0.14467   0.57102   0.88785   0.00000  Uiso   1.00
H884   H     0.07723   0.37503   0.70953   0.00000  Uiso   1.00
H885   H     0.14407   0.43012   0.60921   0.00000  Uiso   1.00
H886   H     0.03718   0.42516   0.75124   0.00000  Uiso   1.00
H887   H     0.29614   0.57491   0.74889   0.00000  Uiso   1.00
H888   H     0.29616   0.42516   0.74895   0.00000  Uiso   1.00
H889   H     0.03719   0.57491   0.75091   0.00000  Uiso   1.00
H890   H     0.07657   0.37219   0.64995   0.00000  Uiso   1.00
H891   H     0.25544   0.62325   0.79244   0.00000  Uiso   1.00
H892   H     0.24504   0.57250   0.82516   0.00000  Uiso   1.00
H893   H     0.25514   0.62593   0.85198   0.00000  Uiso   1.00
H894   H     0.24759   0.42597   0.82356   0.00000  Uiso   1.00
H895   H     0.25613   0.37489   0.79058   0.00000  Uiso   1.00
H896   H     0.25671   0.37224   0.85017   0.00000  Uiso   1.00
N897   N     0.16667   0.61736   0.75000   0.00000  Uiso   1.00
N898   N     0.16667   0.38264   0.75000   0.00000  Uiso   1.00
O899   O     0.10655   0.53958   0.75000   0.00000  Uiso   1.00
O900   O     0.19717   0.61936   0.82299   0.00000  Uiso   1.00
O901   O     0.19851   0.38077   0.82222   0.00000  Uiso   1.00
O902   O     0.13619   0.61937   0.67701   0.00000  Uiso   1.00
O903   O     0.22679   0.46042   0.75001   0.00000  Uiso   1.00
O904   O     0.22679   0.53958   0.75001   0.00000  Uiso   1.00
O905   O     0.10655   0.46042   0.75000   0.00000  Uiso   1.00
O906   O     0.16666   0.53959   0.68573   0.00000  Uiso   1.00
O907   O     0.16667   0.46041   0.81427   0.00000  Uiso   1.00
O908   O     0.16667   0.53959   0.81427   0.00000  Uiso   1.00
O909   O     0.16666   0.46041   0.68573   0.00000  Uiso   1.00
O910   O     0.13480   0.38078   0.67779   0.00000  Uiso   1.00
C911   C     0.42081   0.50000   0.75025   0.00000  Uiso   1.00
C912   C     0.64538   0.54203   0.74957   0.00000  Uiso   1.00
C913   C     0.64539   0.45803   0.74963   0.00000  Uiso   1.00
C914   C     0.35462   0.54203   0.75032   0.00000  Uiso   1.00
C915   C     0.51227   0.54059   0.54833   0.00000  Uiso   1.00
C916   C     0.51290   0.46155   0.95315   0.00000  Uiso   1.00
C917   C     0.48774   0.54059   0.95167   0.00000  Uiso   1.00
C918   C     0.48709   0.46155   0.54685   0.00000  Uiso   1.00
C919   C     0.51203   0.54029   0.59426   0.00000  Uiso   1.00
C920   C     0.51260   0.46107   0.90727   0.00000  Uiso   1.00
C921   C     0.48798   0.54029   0.90574   0.00000  Uiso   1.00
C922   C     0.57919   0.50000   0.74975   0.00000  Uiso   1.00
C923   C     0.48739   0.46108   0.59273   0.00000  Uiso   1.00
C924   C     0.49981   0.50041   0.61677   0.00000  Uiso   1.00
C925   C     0.50019   0.50041   0.88324   0.00000  Uiso   1.00
C926   C     0.49979   0.50119   0.52427   0.00000  Uiso   1.00
C927   C     0.50021   0.50119   0.97573   0.00000  Uiso   1.00
C928   C     0.62386   0.50003   0.74954   0.00000  Uiso   1.00
C929   C     0.37614   0.50003   0.75046   0.00000  Uiso   1.00
C930   C     0.42525   0.38838   0.67932   0.00000  Uiso   1.00
C931   C     0.57321   0.61030   0.82227   0.00000  Uiso   1.00
C932   C     0.57474   0.38835   0.82072   0.00000  Uiso   1.00
C933   C     0.49988   0.50005   0.66507   0.00000  Uiso   1.00
C934   C     0.42681   0.61033   0.67768   0.00000  Uiso   1.00
C935   C     0.50012   0.50005   0.83493   0.00000  Uiso   1.00
C936   C     0.48256   0.35800   0.71528   0.00000  Uiso   1.00
C937   C     0.51715   0.64199   0.78492   0.00000  Uiso   1.00
C938   C     0.51744   0.35800   0.78472   0.00000  Uiso   1.00
C939   C     0.48285   0.64199   0.71508   0.00000  Uiso   1.00
C940   C     0.35462   0.45803   0.75048   0.00000  Uiso   1.00
Cu941  Cu    0.50000   0.54689   0.75000   0.00000  Uiso   1.00
Cu942  Cu    0.50000   0.45311   0.75000   0.00000  Uiso   1.00
H943   H     0.41907   0.42599   0.67638   0.00000  Uiso   1.00
H944   H     0.41120   0.62339   0.70743   0.00000  Uiso   1.00
H945   H     0.42162   0.57252   0.67489   0.00000  Uiso   1.00
H946   H     0.41160   0.62588   0.64790   0.00000  Uiso   1.00
H947   H     0.52278   0.57136   0.53171   0.00000  Uiso   1.00
H948   H     0.52346   0.43103   0.97096   0.00000  Uiso   1.00
H949   H     0.47722   0.57136   0.96829   0.00000  Uiso   1.00
H950   H     0.47653   0.43103   0.52904   0.00000  Uiso   1.00
H951   H     0.52200   0.57101   0.61214   0.00000  Uiso   1.00
H952   H     0.52259   0.43011   0.89079   0.00000  Uiso   1.00
H953   H     0.47801   0.57102   0.88785   0.00000  Uiso   1.00
H954   H     0.41056   0.37503   0.70953   0.00000  Uiso   1.00
H955   H     0.47740   0.43012   0.60921   0.00000  Uiso   1.00
H956   H     0.37051   0.42516   0.75124   0.00000  Uiso   1.00
H957   H     0.62947   0.57491   0.74889   0.00000  Uiso   1.00
H958   H     0.62950   0.42516   0.74895   0.00000  Uiso   1.00
H959   H     0.37052   0.57491   0.75091   0.00000  Uiso   1.00
H960   H     0.40990   0.37219   0.64995   0.00000  Uiso   1.00
H961   H     0.58878   0.62325   0.79244   0.00000  Uiso   1.00
H962   H     0.57838   0.57250   0.82516   0.00000  Uiso   1.00
H963   H     0.58847   0.62593   0.85198   0.00000  Uiso   1.00
H964   H     0.58092   0.42597   0.82356   0.00000  Uiso   1.00
H965   H     0.58946   0.37489   0.79058   0.00000  Uiso   1.00
H966   H     0.59004   0.37224   0.85017   0.00000  Uiso   1.00
N967   N     0.50000   0.61736   0.75000   0.00000  Uiso   1.00
N968   N     0.50000   0.38264   0.75000   0.00000  Uiso   1.00
O969   O     0.43988   0.53958   0.75000   0.00000  Uiso   1.00
O970   O     0.53050   0.61936   0.82299   0.00000  Uiso   1.00
O971   O     0.53184   0.38077   0.82222   0.00000  Uiso   1.00
O972   O     0.46952   0.61937   0.67701   0.00000  Uiso   1.00
O973   O     0.56012   0.46042   0.75001   0.00000  Uiso   1.00
O974   O     0.56012   0.53958   0.75001   0.00000  Uiso   1.00
O975   O     0.43988   0.46042   0.75000   0.00000  Uiso   1.00
O976   O     0.50000   0.53959   0.68573   0.00000  Uiso   1.00
O977   O     0.50000   0.46041   0.81427   0.00000  Uiso   1.00
O978   O     0.50000   0.53959   0.81427   0.00000  Uiso   1.00
O979   O     0.50000   0.46041   0.68573   0.00000  Uiso   1.00
O980   O     0.46814   0.38078   0.67779   0.00000  Uiso   1.00
C981   C     0.75414   0.50000   0.75025   0.00000  Uiso   1.00
C982   C     0.97871   0.54203   0.74957   0.00000  Uiso   1.00
C983   C     0.97872   0.45803   0.74963   0.00000  Uiso   1.00
C984   C     0.68795   0.54203   0.75032   0.00000  Uiso   1.00
C985   C     0.84560   0.54059   0.54833   0.00000  Uiso   1.00
C986   C     0.84624   0.46155   0.95315   0.00000  Uiso   1.00
C987   C     0.82107   0.54059   0.95167   0.00000  Uiso   1.00
C988   C     0.82042   0.46155   0.54685   0.00000  Uiso   1.00
C989   C     0.84536   0.54029   0.59426   0.00000  Uiso   1.00
C990   C     0.84593   0.46107   0.90727   0.00000  Uiso   1.00
C991   C     0.82131   0.54029   0.90574   0.00000  Uiso   1.00
C992   C     0.91253   0.50000   0.74975   0.00000  Uiso   1.00
C993   C     0.82073   0.46108   0.59273   0.00000  Uiso   1.00
C994   C     0.83314   0.50041   0.61677   0.00000  Uiso   1.00
C995   C     0.83352   0.50041   0.88324   0.00000  Uiso   1.00
C996   C     0.83312   0.50119   0.52427   0.00000  Uiso   1.00
C997   C     0.83354   0.50119   0.97573   0.00000  Uiso   1.00
C998   C     0.95720   0.50003   0.74954   0.00000  Uiso   1.00
C999   C     0.70947   0.50003   0.75046   0.00000  Uiso   1.00
C1000  C     0.75859   0.38838   0.67932   0.00000  Uiso   1.00
C1001  C     0.90654   0.61030   0.82227   0.00000  Uiso   1.00
C1002  C     0.90807   0.38835   0.82072   0.00000  Uiso   1.00
C1003  C     0.83321   0.50005   0.66507   0.00000  Uiso   1.00
C1004  C     0.76014   0.61033   0.67768   0.00000  Uiso   1.00
C1005  C     0.83345   0.50005   0.83493   0.00000  Uiso   1.00
C1006  C     0.81589   0.35800   0.71528   0.00000  Uiso   1.00
C1007  C     0.85049   0.64199   0.78492   0.00000  Uiso   1.00
C1008  C     0.85078   0.35800   0.78472   0.00000  Uiso   1.00
C1009  C     0.81618   0.64199   0.71508   0.00000  Uiso   1.00
C1010  C     0.68795   0.45803   0.75048   0.00000  Uiso   1.00
Cu1011 Cu    0.83333   0.54689   0.75000   0.00000  Uiso   1.00
Cu1012 Cu    0.83333   0.45311   0.75000   0.00000  Uiso   1.00
H1013  H     0.75241   0.42599   0.67638   0.00000  Uiso   1.00
H1014  H     0.74453   0.62339   0.70743   0.00000  Uiso   1.00
H1015  H     0.75496   0.57252   0.67489   0.00000  Uiso   1.00
H1016  H     0.74493   0.62588   0.64790   0.00000  Uiso   1.00
H1017  H     0.85612   0.57136   0.53171   0.00000  Uiso   1.00
H1018  H     0.85679   0.43103   0.97096   0.00000  Uiso   1.00
H1019  H     0.81056   0.57136   0.96829   0.00000  Uiso   1.00
H1020  H     0.80986   0.43103   0.52904   0.00000  Uiso   1.00
H1021  H     0.85534   0.57101   0.61214   0.00000  Uiso   1.00
H1022  H     0.85592   0.43011   0.89079   0.00000  Uiso   1.00
H1023  H     0.81134   0.57102   0.88785   0.00000  Uiso   1.00
H1024  H     0.74390   0.37503   0.70953   0.00000  Uiso   1.00
H1025  H     0.81074   0.43012   0.60921   0.00000  Uiso   1.00
H1026  H     0.70384   0.42516   0.75124   0.00000  Uiso   1.00
H1027  H     0.96280   0.57491   0.74889   0.00000  Uiso   1.00
H1028  H     0.96283   0.42516   0.74895   0.00000  Uiso   1.00
H1029  H     0.70386   0.57491   0.75091   0.00000  Uiso   1.00
H1030  H     0.74323   0.37219   0.64995   0.00000  Uiso   1.00
H1031  H     0.92211   0.62325   0.79244   0.00000  Uiso   1.00
H1032  H     0.91171   0.57250   0.82516   0.00000  Uiso   1.00
H1033  H     0.92180   0.62593   0.85198   0.00000  Uiso   1.00
H1034  H     0.91426   0.42597   0.82356   0.00000  Uiso   1.00
H1035  H     0.92280   0.37489   0.79058   0.00000  Uiso   1.00
H1036  H     0.92338   0.37224   0.85017   0.00000  Uiso   1.00
N1037  N     0.83333   0.61736   0.75000   0.00000  Uiso   1.00
N1038  N     0.83333   0.38264   0.75000   0.00000  Uiso   1.00
O1039  O     0.77321   0.53958   0.75000   0.00000  Uiso   1.00
O1040  O     0.86384   0.61936   0.82299   0.00000  Uiso   1.00
O1041  O     0.86518   0.38077   0.82222   0.00000  Uiso   1.00
O1042  O     0.80285   0.61937   0.67701   0.00000  Uiso   1.00
O1043  O     0.89345   0.46042   0.75001   0.00000  Uiso   1.00
O1044  O     0.89345   0.53958   0.75001   0.00000  Uiso   1.00
O1045  O     0.77321   0.46042   0.75000   0.00000  Uiso   1.00
O1046  O     0.83333   0.53959   0.68573   0.00000  Uiso   1.00
O1047  O     0.83334   0.46041   0.81427   0.00000  Uiso   1.00
O1048  O     0.83334   0.53959   0.81427   0.00000  Uiso   1.00
O1049  O     0.83333   0.46041   0.68573   0.00000  Uiso   1.00
O1050  O     0.80147   0.38078   0.67779   0.00000  Uiso   1.00
C1051  C     0.08747   0.83334   0.75025   0.00000  Uiso   1.00
C1052  C     0.31204   0.87537   0.74957   0.00000  Uiso   1.00
C1053  C     0.31205   0.79136   0.74963   0.00000  Uiso   1.00
C1054  C     0.02129   0.87537   0.75032   0.00000  Uiso   1.00
C1055  C     0.17893   0.87392   0.54833   0.00000  Uiso   1.00
C1056  C     0.17957   0.79488   0.95315   0.00000  Uiso   1.00
C1057  C     0.15440   0.87392   0.95167   0.00000  Uiso   1.00
C1058  C     0.15375   0.79489   0.54685   0.00000  Uiso   1.00
C1059  C     0.17869   0.87363   0.59426   0.00000  Uiso   1.00
C1060  C     0.17927   0.79441   0.90727   0.00000  Uiso   1.00
C1061  C     0.15464   0.87363   0.90574   0.00000  Uiso   1.00
C1062  C     0.24586   0.83334   0.74975   0.00000  Uiso   1.00
C1063  C     0.15406   0.79441   0.59273   0.00000  Uiso   1.00
C1064  C     0.16647   0.83375   0.61677   0.00000  Uiso   1.00
C1065  C     0.16686   0.83375   0.88324   0.00000  Uiso   1.00
C1066  C     0.16646   0.83452   0.52427   0.00000  Uiso   1.00
C1067  C     0.16687   0.83452   0.97573   0.00000  Uiso   1.00
C1068  C     0.29053   0.83336   0.74954   0.00000  Uiso   1.00
C1069  C     0.04280   0.83336   0.75046   0.00000  Uiso   1.00
C1070  C     0.09192   0.72171   0.67932   0.00000  Uiso   1.00
C1071  C     0.23987   0.94364   0.82227   0.00000  Uiso   1.00
C1072  C     0.24140   0.72168   0.82072   0.00000  Uiso   1.00
C1073  C     0.16655   0.83339   0.66507   0.00000  Uiso   1.00
C1074  C     0.09347   0.94367   0.67768   0.00000  Uiso   1.00
C1075  C     0.16679   0.83339   0.83493   0.00000  Uiso   1.00
C1076  C     0.14922   0.69133   0.71528   0.00000  Uiso   1.00
C1077  C     0.18382   0.97532   0.78492   0.00000  Uiso   1.00
C1078  C     0.18411   0.69133   0.78472   0.00000  Uiso   1.00
C1079  C     0.14952   0.97532   0.71508   0.00000  Uiso   1.00
C1080  C     0.02128   0.79137   0.75048   0.00000  Uiso   1.00
Cu1081 Cu    0.16667   0.88022   0.75000   0.00000  Uiso   1.00
Cu1082 Cu    0.16667   0.78645   0.75000   0.00000  Uiso   1.00
H1083  H     0.08574   0.75933   0.67638   0.00000  Uiso   1.00
H1084  H     0.07787   0.95672   0.70743   0.00000  Uiso   1.00
H1085  H     0.08829   0.90586   0.67489   0.00000  Uiso   1.00
H1086  H     0.07826   0.95921   0.64790   0.00000  Uiso   1.00
H1087  H     0.18945   0.90469   0.53171   0.00000  Uiso   1.00
H1088  H     0.19013   0.76436   0.97096   0.00000  Uiso   1.00
H1089  H     0.14389   0.90469   0.96829   0.00000  Uiso   1.00
H1090  H     0.14319   0.76437   0.52904   0.00000  Uiso   1.00
H1091  H     0.18867   0.90435   0.61214   0.00000  Uiso   1.00
H1092  H     0.18925   0.76344   0.89079   0.00000  Uiso   1.00
H1093  H     0.14467   0.90435   0.88785   0.00000  Uiso   1.00
H1094  H     0.07723   0.70837   0.70953   0.00000  Uiso   1.00
H1095  H     0.14407   0.76345   0.60921   0.00000  Uiso   1.00
H1096  H     0.03718   0.75850   0.75124   0.00000  Uiso   1.00
H1097  H     0.29614   0.90824   0.74889   0.00000  Uiso   1.00
H1098  H     0.29616   0.75849   0.74895   0.00000  Uiso   1.00
H1099  H     0.03719   0.90824   0.75091   0.00000  Uiso   1.00
H1100  H     0.07657   0.70552   0.64995   0.00000  Uiso   1.00
H1101  H     0.25544   0.95659   0.79244   0.00000  Uiso   1.00
H1102  H     0.24504   0.90583   0.82516   0.00000  Uiso   1.00
H1103  H     0.25514   0.95927   0.85198   0.00000  Uiso   1.00
H1104  H     0.24759   0.75931   0.82356   0.00000  Uiso   1.00
H1105  H     0.25613   0.70823   0.79058   0.00000  Uiso   1.00
H1106  H     0.25671   0.70558   0.85017   0.00000  Uiso   1.00
N1107  N     0.16667   0.95069   0.75000   0.00000  Uiso   1.00
N1108  N     0.16667   0.71598   0.75000   0.00000  Uiso   1.00
O1109  O     0.10655   0.87291   0.75000   0.00000  Uiso   1.00
O1110  O     0.19717   0.95270   0.82299   0.00000  Uiso   1.00
O1111  O     0.19851   0.71411   0.82222   0.00000  Uiso   1.00
O1112  O     0.13619   0.95270   0.67701   0.00000  Uiso   1.00
O1113  O     0.22679   0.79375   0.75001   0.00000  Uiso   1.00
O1114  O     0.22679   0.87291   0.75001   0.00000  Uiso   1.00
O1115  O     0.10655   0.79375   0.75000   0.00000  Uiso   1.00
O1116  O     0.16666   0.87293   0.68573   0.00000  Uiso   1.00
O1117  O     0.16667   0.79374   0.81427   0.00000  Uiso   1.00
O1118  O     0.16667   0.87293   0.81427   0.00000  Uiso   1.00
O1119  O     0.16666   0.79374   0.68573   0.00000  Uiso   1.00
O1120  O     0.13480   0.71411   0.67779   0.00000  Uiso   1.00
C1121  C     0.42081   0.83334   0.75025   0.00000  Uiso   1.00
C1122  C     0.64538   0.87537   0.74957   0.00000  Uiso   1.00
C1123  C     0.64539   0.79136   0.74963   0.00000  Uiso   1.00
C1124  C     0.35462   0.87537   0.75032   0.00000  Uiso   1.00
C1125  C     0.51227   0.87392   0.54833   0.00000  Uiso   1.00
C1126  C     0.51290   0.79488   0.95315   0.00000  Uiso   1.00
C1127  C     0.48774   0.87392   0.95167   0.00000  Uiso   1.00
C1128  C     0.48709   0.79489   0.54685   0.00000  Uiso   1.00
C1129  C     0.51203   0.87363   0.59426   0.00000  Uiso   1.00
C1130  C     0.51260   0.79441   0.90727   0.00000  Uiso   1.00
C1131  C     0.48798   0.87363   0.90574   0.00000  Uiso   1.00
C1132  C     0.57919   0.83334   0.74975   0.00000  Uiso   1.00
C1133  C     0.48739   0.79441   0.59273   0.00000  Uiso   1.00
C1134  C     0.49981   0.83375   0.61677   0.00000  Uiso   1.00
C1135  C     0.50019   0.83375   0.88324   0.00000  Uiso   1.00
C1136  C     0.49979   0.83452   0.52427   0.00000  Uiso   1.00
C1137  C     0.50021   0.83452   0.97573   0.00000  Uiso   1.00
C1138  C     0.62386   0.83336   0.74954   0.00000  Uiso   1.00
C1139  C     0.37614   0.83336   0.75046   0.00000  Uiso   1.00
C1140  C     0.42525   0.72171   0.67932   0.00000  Uiso   1.00
C1141  C     0.57321   0.94364   0.82227   0.00000  Uiso   1.00
C1142  C     0.57474   0.72168   0.82072   0.00000  Uiso   1.00
C1143  C     0.49988   0.83339   0.66507   0.00000  Uiso   1.00
C1144  C     0.42681   0.94367   0.67768   0.00000  Uiso   1.00
C1145  C     0.50012   0.83339   0.83493   0.00000  Uiso   1.00
C1146  C     0.48256   0.69133   0.71528   0.00000  Uiso   1.00
C1147  C     0.51715   0.97532   0.78492   0.00000  Uiso   1.00
C1148  C     0.51744   0.69133   0.78472   0.00000  Uiso   1.00
C1149  C     0.48285   0.97532   0.71508   0.00000  Uiso   1.00
C1150  C     0.35462   0.79137   0.75048   0.00000  Uiso   1.00
Cu1151 Cu    0.50000   0.88022   0.75000   0.00000  Uiso   1.00
Cu1152 Cu    0.50000   0.78645   0.75000   0.00000  Uiso   1.00
H1153  H     0.41907   0.75933   0.67638   0.00000  Uiso   1.00
H1154  H     0.41120   0.95672   0.70743   0.00000  Uiso   1.00
H1155  H     0.42162   0.90586   0.67489   0.00000  Uiso   1.00
H1156  H     0.41160   0.95921   0.64790   0.00000  Uiso   1.00
H1157  H     0.52278   0.90469   0.53171   0.00000  Uiso   1.00
H1158  H     0.52346   0.76436   0.97096   0.00000  Uiso   1.00
H1159  H     0.47722   0.90469   0.96829   0.00000  Uiso   1.00
H1160  H     0.47653   0.76437   0.52904   0.00000  Uiso   1.00
H1161  H     0.52200   0.90435   0.61214   0.00000  Uiso   1.00
H1162  H     0.52259   0.76344   0.89079   0.00000  Uiso   1.00
H1163  H     0.47801   0.90435   0.88785   0.00000  Uiso   1.00
H1164  H     0.41056   0.70837   0.70953   0.00000  Uiso   1.00
H1165  H     0.47740   0.76345   0.60921   0.00000  Uiso   1.00
H1166  H     0.37051   0.75850   0.75124   0.00000  Uiso   1.00
H1167  H     0.62947   0.90824   0.74889   0.00000  Uiso   1.00
H1168  H     0.62950   0.75849   0.74895   0.00000  Uiso   1.00
H1169  H     0.37052   0.90824   0.75091   0.00000  Uiso   1.00
H1170  H     0.40990   0.70552   0.64995   0.00000  Uiso   1.00
H1171  H     0.58878   0.95659   0.79244   0.00000  Uiso   1.00
H1172  H     0.57838   0.90583   0.82516   0.00000  Uiso   1.00
H1173  H     0.58847   0.95927   0.85198   0.00000  Uiso   1.00
H1174  H     0.58092   0.75931   0.82356   0.00000  Uiso   1.00
H1175  H     0.58946   0.70823   0.79058   0.00000  Uiso   1.00
H1176  H     0.59004   0.70558   0.85017   0.00000  Uiso   1.00
N1177  N     0.50000   0.95069   0.75000   0.00000  Uiso   1.00
N1178  N     0.50000   0.71598   0.75000   0.00000  Uiso   1.00
O1179  O     0.43988   0.87291   0.75000   0.00000  Uiso   1.00
O1180  O     0.53050   0.95270   0.82299   0.00000  Uiso   1.00
O1181  O     0.53184   0.71411   0.82222   0.00000  Uiso   1.00
O1182  O     0.46952   0.95270   0.67701   0.00000  Uiso   1.00
O1183  O     0.56012   0.79375   0.75001   0.00000  Uiso   1.00
O1184  O     0.56012   0.87291   0.75001   0.00000  Uiso   1.00
O1185  O     0.43988   0.79375   0.75000   0.00000  Uiso   1.00
O1186  O     0.50000   0.87293   0.68573   0.00000  Uiso   1.00
O1187  O     0.50000   0.79374   0.81427   0.00000  Uiso   1.00
O1188  O     0.50000   0.87293   0.81427   0.00000  Uiso   1.00
O1189  O     0.50000   0.79374   0.68573   0.00000  Uiso   1.00
O1190  O     0.46814   0.71411   0.67779   0.00000  Uiso   1.00
C1191  C     0.75414   0.83334   0.75025   0.00000  Uiso   1.00
C1192  C     0.97871   0.87537   0.74957   0.00000  Uiso   1.00
C1193  C     0.97872   0.79136   0.74963   0.00000  Uiso   1.00
C1194  C     0.68795   0.87537   0.75032   0.00000  Uiso   1.00
C1195  C     0.84560   0.87392   0.54833   0.00000  Uiso   1.00
C1196  C     0.84624   0.79488   0.95315   0.00000  Uiso   1.00
C1197  C     0.82107   0.87392   0.95167   0.00000  Uiso   1.00
C1198  C     0.82042   0.79489   0.54685   0.00000  Uiso   1.00
C1199  C     0.84536   0.87363   0.59426   0.00000  Uiso   1.00
C1200  C     0.84593   0.79441   0.90727   0.00000  Uiso   1.00
C1201  C     0.82131   0.87363   0.90574   0.00000  Uiso   1.00
C1202  C     0.91253   0.83334   0.74975   0.00000  Uiso   1.00
C1203  C     0.82073   0.79441   0.59273   0.00000  Uiso   1.00
C1204  C     0.83314   0.83375   0.61677   0.00000  Uiso   1.00
C1205  C     0.83352   0.83375   0.88324   0.00000  Uiso   1.00
C1206  C     0.83312   0.83452   0.52427   0.00000  Uiso   1.00
C1207  C     0.83354   0.83452   0.97573   0.00000  Uiso   1.00
C1208  C     0.95720   0.83336   0.74954   0.00000  Uiso   1.00
C1209  C     0.70947   0.83336   0.75046   0.00000  Uiso   1.00
C1210  C     0.75859   0.72171   0.67932   0.00000  Uiso   1.00
C1211  C     0.90654   0.94364   0.82227   0.00000  Uiso   1.00
C1212  C     0.90807   0.72168   0.82072   0.00000  Uiso   1.00
C1213  C     0.83321   0.83339   0.66507   0.00000  Uiso   1.00
C1214  C     0.76014   0.94367   0.67768   0.00000  Uiso   1.00
C1215  C     0.83345   0.83339   0.83493   0.00000  Uiso   1.00
C1216  C     0.81589   0.69133   0.71528   0.00000  Uiso   1.00
C1217  C     0.85049   0.97532   0.78492   0.00000  Uiso   1.00
C1218  C     0.85078   0.69133   0.78472   0.00000  Uiso   1.00
C1219  C     0.81618   0.97532   0.71508   0.00000  Uiso   1.00
C1220  C     0.68795   0.79137   0.75048   0.00000  Uiso   1.00
Cu1221 Cu    0.83333   0.88022   0.75000   0.00000  Uiso   1.00
Cu1222 Cu    0.83333   0.78645   0.75000   0.00000  Uiso   1.00
H1223  H     0.75241   0.75933   0.67638   0.00000  Uiso   1.00
H1224  H     0.74453   0.95672   0.70743   0.00000  Uiso   1.00
H1225  H     0.75496   0.90586   0.67489   0.00000  Uiso   1.00
H1226  H     0.74493   0.95921   0.64790   0.00000  Uiso   1.00
H1227  H     0.85612   0.90469   0.53171   0.00000  Uiso   1.00
H1228  H     0.85679   0.76436   0.97096   0.00000  Uiso   1.00
H1229  H     0.81056   0.90469   0.96829   0.00000  Uiso   1.00
H1230  H     0.80986   0.76437   0.52904   0.00000  Uiso   1.00
H1231  H     0.85534   0.90435   0.61214   0.00000  Uiso   1.00
H1232  H     0.85592   0.76344   0.89079   0.00000  Uiso   1.00
H1233  H     0.81134   0.90435   0.88785   0.00000  Uiso   1.00
H1234  H     0.74390   0.70837   0.70953   0.00000  Uiso   1.00
H1235  H     0.81074   0.76345   0.60921   0.00000  Uiso   1.00
H1236  H     0.70384   0.75850   0.75124   0.00000  Uiso   1.00
H1237  H     0.96280   0.90824   0.74889   0.00000  Uiso   1.00
H1238  H     0.96283   0.75849   0.74895   0.00000  Uiso   1.00
H1239  H     0.70386   0.90824   0.75091   0.00000  Uiso   1.00
H1240  H     0.74323   0.70552   0.64995   0.00000  Uiso   1.00
H1241  H     0.92211   0.95659   0.79244   0.00000  Uiso   1.00
H1242  H     0.91171   0.90583   0.82516   0.00000  Uiso   1.00
H1243  H     0.92180   0.95927   0.85198   0.00000  Uiso   1.00
H1244  H     0.91426   0.75931   0.82356   0.00000  Uiso   1.00
H1245  H     0.92280   0.70823   0.79058   0.00000  Uiso   1.00
H1246  H     0.92338   0.70558   0.85017   0.00000  Uiso   1.00
N1247  N     0.83333   0.95069   0.75000   0.00000  Uiso   1.00
N1248  N     0.83333   0.71598   0.75000   0.00000  Uiso   1.00
O1249  O     0.77321   0.87291   0.75000   0.00000  Uiso   1.00
O1250  O     0.86384   0.95270   0.82299   0.00000  Uiso   1.00
O1251  O     0.86518   0.71411   0.82222   0.00000  Uiso   1.00
O1252  O     0.80285   0.95270   0.67701   0.00000  Uiso   1.00
O1253  O     0.89345   0.79375   0.75001   0.00000  Uiso   1.00
O1254  O     0.89345   0.87291   0.75001   0.00000  Uiso   1.00
O1255  O     0.77321   0.79375   0.75000   0.00000  Uiso   1.00
O1256  O     0.83333   0.87293   0.68573   0.00000  Uiso   1.00
O1257  O     0.83334   0.79374   0.81427   0.00000  Uiso   1.00
O1258  O     0.83334   0.87293   0.81427   0.00000  Uiso   1.00
O1259  O     0.83333   0.79374   0.68573   0.00000  Uiso   1.00
O1260  O     0.80147   0.71411   0.67779   0.00000  Uiso   1.00
loop_
_geom_bond_atom_site_label_1
_geom_bond_atom_site_label_2
_geom_bond_distance
_geom_bond_site_symmetry_2
_ccdc_geom_bond_type
C1     O65     1.301   .     A
C1     O59     1.301   .     A
C1     C19     1.452   .     S
C2     H47     1.081   .     S
C2     C18     1.401   .     A
C2     C74     1.383   .     S
C3     C18     1.400   .     A
C3     H48     1.081   .     S
C3     C100    1.383   .     S
C4     H49     1.081   .     S
C4     C19     1.401   .     A
C4     C142    1.383   1_455 S
C5     C9      1.391   .     A
C5     H37     1.083   .     S
C5     C16     1.403   .     A
C6     C10     1.389   .     A
C6     H38     1.083   .     S
C6     C17     1.403   .     A
C7     C11     1.391   .     A
C7     H39     1.083   .     S
C7     C17     1.403   .     A
C8     C13     1.389   .     A
C8     C16     1.403   .     A
C8     H40     1.083   .     S
C9     C14     1.403   .     A
C9     H41     1.083   .     S
C10    H42     1.080   .     S
C10    C15     1.401   .     A
C11    H43     1.083   .     S
C11    C15     1.403   .     A
C12    O64     1.301   .     A
C12    C18     1.452   .     S
C12    O63     1.301   .     A
C13    C14     1.401   .     A
C13    H45     1.080   .     S
C14    C23     1.462   .     S
C15    C25     1.462   .     S
C16    C647    1.470   1_554 S
C17    C646    1.470   .     S
C19    C30     1.400   .     A
C20    O70     1.413   .     S
C20    H33     1.108   .     S
C20    H44     1.115   .     S
C20    H50     1.108   .     S
C21    O60     1.413   .     S
C21    H53     1.108   .     S
C21    H51     1.115   .     S
C21    H52     1.108   .     S
C22    H55     1.115   .     S
C22    O61     1.413   .     S
C22    H56     1.108   .     S
C22    H54     1.108   .     S
C23    O69     1.305   .     A
C23    O66     1.302   .     A
C24    H36     1.108   .     S
C24    O62     1.413   .     S
C24    H35     1.108   .     S
C24    H34     1.115   .     S
C25    O67     1.305   .     A
C25    O68     1.302   .     A
C26    N58     1.375   .     A
C26    O70     1.379   .     S
C26    C449    1.426   1_545 S
C27    O60     1.381   .     S
C27    N57     1.376   .     A
C27    C238    1.426   .     S
C28    N58     1.375   .     A
C28    O61     1.379   .     S
C28    C447    1.426   1_545 S
C29    N57     1.376   .     A
C29    O62     1.381   .     S
C29    C236    1.426   .     S
C30    H46     1.081   .     S
C30    C143    1.383   1_455 S
Cu31   O66     1.957   .     S
Cu31   Cu32    2.709   .     S
Cu31   N57     2.036   .     S
Cu31   O59     1.965   .     S
Cu31   O68     1.957   .     S
Cu31   O64     1.965   .     S
Cu32   N58     2.036   .     S
Cu32   O69     1.957   .     S
Cu32   O67     1.957   .     S
Cu32   O63     1.965   .     S
Cu32   O65     1.965   .     S
C71    O135    1.301   .     A
C71    O129    1.301   .     A
C71    C89     1.452   .     S
C72    H117    1.081   .     S
C72    C88     1.401   .     A
C72    C144    1.383   .     S
C73    C88     1.400   .     A
C73    H118    1.081   .     S
C73    C170    1.383   .     S
C74    H119    1.081   .     S
C74    C89     1.401   .     A
C75    C79     1.391   .     A
C75    H107    1.083   .     S
C75    C86     1.403   .     A
C76    C80     1.389   .     A
C76    H108    1.083   .     S
C76    C87     1.403   .     A
C77    C81     1.391   .     A
C77    H109    1.083   .     S
C77    C87     1.403   .     A
C78    C83     1.389   .     A
C78    C86     1.403   .     A
C78    H110    1.083   .     S
C79    C84     1.403   .     A
C79    H111    1.083   .     S
C80    H112    1.080   .     S
C80    C85     1.401   .     A
C81    H113    1.083   .     S
C81    C85     1.403   .     A
C82    O134    1.301   .     A
C82    C88     1.452   .     S
C82    O133    1.301   .     A
C83    C84     1.401   .     A
C83    H115    1.080   .     S
C84    C93     1.462   .     S
C85    C95     1.462   .     S
C86    C717    1.470   1_554 S
C87    C716    1.470   .     S
C89    C100    1.400   .     A
C90    O140    1.413   .     S
C90    H103    1.108   .     S
C90    H114    1.115   .     S
C90    H120    1.108   .     S
C91    O130    1.413   .     S
C91    H123    1.108   .     S
C91    H121    1.115   .     S
C91    H122    1.108   .     S
C92    H125    1.115   .     S
C92    O131    1.413   .     S
C92    H126    1.108   .     S
C92    H124    1.108   .     S
C93    O139    1.305   .     A
C93    O136    1.302   .     A
C94    H106    1.108   .     S
C94    O132    1.413   .     S
C94    H105    1.108   .     S
C94    H104    1.115   .     S
C95    O137    1.305   .     A
C95    O138    1.302   .     A
C96    N128    1.375   .     A
C96    O140    1.379   .     S
C96    C519    1.426   1_545 S
C97    O130    1.381   .     S
C97    N127    1.376   .     A
C97    C308    1.426   .     S
C98    N128    1.375   .     A
C98    O131    1.379   .     S
C98    C517    1.426   1_545 S
C99    N127    1.376   .     A
C99    O132    1.381   .     S
C99    C306    1.426   .     S
C100   H116    1.081   .     S
Cu101  O136    1.957   .     S
Cu101  Cu102   2.709   .     S
Cu101  N127    2.036   .     S
Cu101  O129    1.965   .     S
Cu101  O138    1.957   .     S
Cu101  O134    1.965   .     S
Cu102  N128    2.036   .     S
Cu102  O139    1.957   .     S
Cu102  O137    1.957   .     S
Cu102  O133    1.965   .     S
Cu102  O135    1.965   .     S
C141   O205    1.301   .     A
C141   O199    1.301   .     A
C141   C159    1.452   .     S
C142   H187    1.081   .     S
C142   C158    1.401   .     A
C142   C4      1.383   1_655 S
C143   C158    1.400   .     A
C143   H188    1.081   .     S
C143   C30     1.383   1_655 S
C144   H189    1.081   .     S
C144   C159    1.401   .     A
C145   C149    1.391   .     A
C145   H177    1.083   .     S
C145   C156    1.403   .     A
C146   C150    1.389   .     A
C146   H178    1.083   .     S
C146   C157    1.403   .     A
C147   C151    1.391   .     A
C147   H179    1.083   .     S
C147   C157    1.403   .     A
C148   C153    1.389   .     A
C148   C156    1.403   .     A
C148   H180    1.083   .     S
C149   C154    1.403   .     A
C149   H181    1.083   .     S
C150   H182    1.080   .     S
C150   C155    1.401   .     A
C151   H183    1.083   .     S
C151   C155    1.403   .     A
C152   O204    1.301   .     A
C152   C158    1.452   .     S
C152   O203    1.301   .     A
C153   C154    1.401   .     A
C153   H185    1.080   .     S
C154   C163    1.462   .     S
C155   C165    1.462   .     S
C156   C787    1.470   1_554 S
C157   C786    1.470   .     S
C159   C170    1.400   .     A
C160   O210    1.413   .     S
C160   H173    1.108   .     S
C160   H184    1.115   .     S
C160   H190    1.108   .     S
C161   O200    1.413   .     S
C161   H193    1.108   .     S
C161   H191    1.115   .     S
C161   H192    1.108   .     S
C162   H195    1.115   .     S
C162   O201    1.413   .     S
C162   H196    1.108   .     S
C162   H194    1.108   .     S
C163   O209    1.305   .     A
C163   O206    1.302   .     A
C164   H176    1.108   .     S
C164   O202    1.413   .     S
C164   H175    1.108   .     S
C164   H174    1.115   .     S
C165   O207    1.305   .     A
C165   O208    1.302   .     A
C166   N198    1.375   .     A
C166   O210    1.379   .     S
C166   C589    1.426   1_545 S
C167   O200    1.381   .     S
C167   N197    1.376   .     A
C167   C378    1.426   .     S
C168   N198    1.375   .     A
C168   O201    1.379   .     S
C168   C587    1.426   1_545 S
C169   N197    1.376   .     A
C169   O202    1.381   .     S
C169   C376    1.426   .     S
C170   H186    1.081   .     S
Cu171  O206    1.957   .     S
Cu171  Cu172   2.709   .     S
Cu171  N197    2.036   .     S
Cu171  O199    1.965   .     S
Cu171  O208    1.957   .     S
Cu171  O204    1.965   .     S
Cu172  N198    2.036   .     S
Cu172  O209    1.957   .     S
Cu172  O207    1.957   .     S
Cu172  O203    1.965   .     S
Cu172  O205    1.965   .     S
C211   O275    1.301   .     A
C211   O269    1.301   .     A
C211   C229    1.452   .     S
C212   H257    1.081   .     S
C212   C228    1.401   .     A
C212   C284    1.383   .     S
C213   C228    1.400   .     A
C213   H258    1.081   .     S
C213   C310    1.383   .     S
C214   H259    1.081   .     S
C214   C229    1.401   .     A
C214   C352    1.383   1_455 S
C215   C219    1.391   .     A
C215   H247    1.083   .     S
C215   C226    1.403   .     A
C216   C220    1.389   .     A
C216   H248    1.083   .     S
C216   C227    1.403   .     A
C217   C221    1.391   .     A
C217   H249    1.083   .     S
C217   C227    1.403   .     A
C218   C223    1.389   .     A
C218   C226    1.403   .     A
C218   H250    1.083   .     S
C219   C224    1.403   .     A
C219   H251    1.083   .     S
C220   H252    1.080   .     S
C220   C225    1.401   .     A
C221   H253    1.083   .     S
C221   C225    1.403   .     A
C222   O274    1.301   .     A
C222   C228    1.452   .     S
C222   O273    1.301   .     A
C223   C224    1.401   .     A
C223   H255    1.080   .     S
C224   C233    1.462   .     S
C225   C235    1.462   .     S
C226   C857    1.470   1_554 S
C227   C856    1.470   .     S
C229   C240    1.400   .     A
C230   O280    1.413   .     S
C230   H243    1.108   .     S
C230   H254    1.115   .     S
C230   H260    1.108   .     S
C231   O270    1.413   .     S
C231   H263    1.108   .     S
C231   H261    1.115   .     S
C231   H262    1.108   .     S
C232   H265    1.115   .     S
C232   O271    1.413   .     S
C232   H266    1.108   .     S
C232   H264    1.108   .     S
C233   O279    1.305   .     A
C233   O276    1.302   .     A
C234   H246    1.108   .     S
C234   O272    1.413   .     S
C234   H245    1.108   .     S
C234   H244    1.115   .     S
C235   O277    1.305   .     A
C235   O278    1.302   .     A
C236   N268    1.375   .     A
C236   O280    1.379   .     S
C237   O270    1.381   .     S
C237   N267    1.376   .     A
C237   C448    1.426   .     S
C238   N268    1.375   .     A
C238   O271    1.379   .     S
C239   N267    1.376   .     A
C239   O272    1.381   .     S
C239   C446    1.426   .     S
C240   H256    1.081   .     S
C240   C353    1.383   1_455 S
Cu241  O276    1.957   .     S
Cu241  Cu242   2.709   .     S
Cu241  N267    2.036   .     S
Cu241  O269    1.965   .     S
Cu241  O278    1.957   .     S
Cu241  O274    1.965   .     S
Cu242  N268    2.036   .     S
Cu242  O279    1.957   .     S
Cu242  O277    1.957   .     S
Cu242  O273    1.965   .     S
Cu242  O275    1.965   .     S
C281   O345    1.301   .     A
C281   O339    1.301   .     A
C281   C299    1.452   .     S
C282   H327    1.081   .     S
C282   C298    1.401   .     A
C282   C354    1.383   .     S
C283   C298    1.400   .     A
C283   H328    1.081   .     S
C283   C380    1.383   .     S
C284   H329    1.081   .     S
C284   C299    1.401   .     A
C285   C289    1.391   .     A
C285   H317    1.083   .     S
C285   C296    1.403   .     A
C286   C290    1.389   .     A
C286   H318    1.083   .     S
C286   C297    1.403   .     A
C287   C291    1.391   .     A
C287   H319    1.083   .     S
C287   C297    1.403   .     A
C288   C293    1.389   .     A
C288   C296    1.403   .     A
C288   H320    1.083   .     S
C289   C294    1.403   .     A
C289   H321    1.083   .     S
C290   H322    1.080   .     S
C290   C295    1.401   .     A
C291   H323    1.083   .     S
C291   C295    1.403   .     A
C292   O344    1.301   .     A
C292   C298    1.452   .     S
C292   O343    1.301   .     A
C293   C294    1.401   .     A
C293   H325    1.080   .     S
C294   C303    1.462   .     S
C295   C305    1.462   .     S
C296   C927    1.470   1_554 S
C297   C926    1.470   .     S
C299   C310    1.400   .     A
C300   O350    1.413   .     S
C300   H313    1.108   .     S
C300   H324    1.115   .     S
C300   H330    1.108   .     S
C301   O340    1.413   .     S
C301   H333    1.108   .     S
C301   H331    1.115   .     S
C301   H332    1.108   .     S
C302   H335    1.115   .     S
C302   O341    1.413   .     S
C302   H336    1.108   .     S
C302   H334    1.108   .     S
C303   O349    1.305   .     A
C303   O346    1.302   .     A
C304   H316    1.108   .     S
C304   O342    1.413   .     S
C304   H315    1.108   .     S
C304   H314    1.115   .     S
C305   O347    1.305   .     A
C305   O348    1.302   .     A
C306   N338    1.375   .     A
C306   O350    1.379   .     S
C307   O340    1.381   .     S
C307   N337    1.376   .     A
C307   C518    1.426   .     S
C308   N338    1.375   .     A
C308   O341    1.379   .     S
C309   N337    1.376   .     A
C309   O342    1.381   .     S
C309   C516    1.426   .     S
C310   H326    1.081   .     S
Cu311  O346    1.957   .     S
Cu311  Cu312   2.709   .     S
Cu311  N337    2.036   .     S
Cu311  O339    1.965   .     S
Cu311  O348    1.957   .     S
Cu311  O344    1.965   .     S
Cu312  N338    2.036   .     S
Cu312  O349    1.957   .     S
Cu312  O347    1.957   .     S
Cu312  O343    1.965   .     S
Cu312  O345    1.965   .     S
C351   O415    1.301   .     A
C351   O409    1.301   .     A
C351   C369    1.452   .     S
C352   H397    1.081   .     S
C352   C368    1.401   .     A
C352   C214    1.383   1_655 S
C353   C368    1.400   .     A
C353   H398    1.081   .     S
C353   C240    1.383   1_655 S
C354   H399    1.081   .     S
C354   C369    1.401   .     A
C355   C359    1.391   .     A
C355   H387    1.083   .     S
C355   C366    1.403   .     A
C356   C360    1.389   .     A
C356   H388    1.083   .     S
C356   C367    1.403   .     A
C357   C361    1.391   .     A
C357   H389    1.083   .     S
C357   C367    1.403   .     A
C358   C363    1.389   .     A
C358   C366    1.403   .     A
C358   H390    1.083   .     S
C359   C364    1.403   .     A
C359   H391    1.083   .     S
C360   H392    1.080   .     S
C360   C365    1.401   .     A
C361   H393    1.083   .     S
C361   C365    1.403   .     A
C362   O414    1.301   .     A
C362   C368    1.452   .     S
C362   O413    1.301   .     A
C363   C364    1.401   .     A
C363   H395    1.080   .     S
C364   C373    1.462   .     S
C365   C375    1.462   .     S
C366   C997    1.470   1_554 S
C367   C996    1.470   .     S
C369   C380    1.400   .     A
C370   O420    1.413   .     S
C370   H383    1.108   .     S
C370   H394    1.115   .     S
C370   H400    1.108   .     S
C371   O410    1.413   .     S
C371   H403    1.108   .     S
C371   H401    1.115   .     S
C371   H402    1.108   .     S
C372   H405    1.115   .     S
C372   O411    1.413   .     S
C372   H406    1.108   .     S
C372   H404    1.108   .     S
C373   O419    1.305   .     A
C373   O416    1.302   .     A
C374   H386    1.108   .     S
C374   O412    1.413   .     S
C374   H385    1.108   .     S
C374   H384    1.115   .     S
C375   O417    1.305   .     A
C375   O418    1.302   .     A
C376   N408    1.375   .     A
C376   O420    1.379   .     S
C377   O410    1.381   .     S
C377   N407    1.376   .     A
C377   C588    1.426   .     S
C378   N408    1.375   .     A
C378   O411    1.379   .     S
C379   N407    1.376   .     A
C379   O412    1.381   .     S
C379   C586    1.426   .     S
C380   H396    1.081   .     S
Cu381  O416    1.957   .     S
Cu381  Cu382   2.709   .     S
Cu381  N407    2.036   .     S
Cu381  O409    1.965   .     S
Cu381  O418    1.957   .     S
Cu381  O414    1.965   .     S
Cu382  N408    2.036   .     S
Cu382  O419    1.957   .     S
Cu382  O417    1.957   .     S
Cu382  O413    1.965   .     S
Cu382  O415    1.965   .     S
C421   O485    1.301   .     A
C421   O479    1.301   .     A
C421   C439    1.452   .     S
C422   H467    1.081   .     S
C422   C438    1.401   .     A
C422   C494    1.383   .     S
C423   C438    1.400   .     A
C423   H468    1.081   .     S
C423   C520    1.383   .     S
C424   H469    1.081   .     S
C424   C439    1.401   .     A
C424   C562    1.383   1_455 S
C425   C429    1.391   .     A
C425   H457    1.083   .     S
C425   C436    1.403   .     A
C426   C430    1.389   .     A
C426   H458    1.083   .     S
C426   C437    1.403   .     A
C427   C431    1.391   .     A
C427   H459    1.083   .     S
C427   C437    1.403   .     A
C428   C433    1.389   .     A
C428   C436    1.403   .     A
C428   H460    1.083   .     S
C429   C434    1.403   .     A
C429   H461    1.083   .     S
C430   H462    1.080   .     S
C430   C435    1.401   .     A
C431   H463    1.083   .     S
C431   C435    1.403   .     A
C432   O484    1.301   .     A
C432   C438    1.452   .     S
C432   O483    1.301   .     A
C433   C434    1.401   .     A
C433   H465    1.080   .     S
C434   C443    1.462   .     S
C435   C445    1.462   .     S
C436   C1067   1.470   1_554 S
C437   C1066   1.470   .     S
C439   C450    1.400   .     A
C440   O490    1.413   .     S
C440   H453    1.108   .     S
C440   H464    1.115   .     S
C440   H470    1.108   .     S
C441   O480    1.413   .     S
C441   H473    1.108   .     S
C441   H471    1.115   .     S
C441   H472    1.108   .     S
C442   H475    1.115   .     S
C442   O481    1.413   .     S
C442   H476    1.108   .     S
C442   H474    1.108   .     S
C443   O489    1.305   .     A
C443   O486    1.302   .     A
C444   H456    1.108   .     S
C444   O482    1.413   .     S
C444   H455    1.108   .     S
C444   H454    1.115   .     S
C445   O487    1.305   .     A
C445   O488    1.302   .     A
C446   N478    1.375   .     A
C446   O490    1.379   .     S
C447   O480    1.381   .     S
C447   N477    1.376   .     A
C447   C28     1.426   1_565 S
C448   N478    1.375   .     A
C448   O481    1.379   .     S
C449   N477    1.376   .     A
C449   O482    1.381   .     S
C449   C26     1.426   1_565 S
C450   H466    1.081   .     S
C450   C563    1.383   1_455 S
Cu451  O486    1.957   .     S
Cu451  Cu452   2.709   .     S
Cu451  N477    2.036   .     S
Cu451  O479    1.965   .     S
Cu451  O488    1.957   .     S
Cu451  O484    1.965   .     S
Cu452  N478    2.036   .     S
Cu452  O489    1.957   .     S
Cu452  O487    1.957   .     S
Cu452  O483    1.965   .     S
Cu452  O485    1.965   .     S
C491   O555    1.301   .     A
C491   O549    1.301   .     A
C491   C509    1.452   .     S
C492   H537    1.081   .     S
C492   C508    1.401   .     A
C492   C564    1.383   .     S
C493   C508    1.400   .     A
C493   H538    1.081   .     S
C493   C590    1.383   .     S
C494   H539    1.081   .     S
C494   C509    1.401   .     A
C495   C499    1.391   .     A
C495   H527    1.083   .     S
C495   C506    1.403   .     A
C496   C500    1.389   .     A
C496   H528    1.083   .     S
C496   C507    1.403   .     A
C497   C501    1.391   .     A
C497   H529    1.083   .     S
C497   C507    1.403   .     A
C498   C503    1.389   .     A
C498   C506    1.403   .     A
C498   H530    1.083   .     S
C499   C504    1.403   .     A
C499   H531    1.083   .     S
C500   H532    1.080   .     S
C500   C505    1.401   .     A
C501   H533    1.083   .     S
C501   C505    1.403   .     A
C502   O554    1.301   .     A
C502   C508    1.452   .     S
C502   O553    1.301   .     A
C503   C504    1.401   .     A
C503   H535    1.080   .     S
C504   C513    1.462   .     S
C505   C515    1.462   .     S
C506   C1137   1.470   1_554 S
C507   C1136   1.470   .     S
C509   C520    1.400   .     A
C510   O560    1.413   .     S
C510   H523    1.108   .     S
C510   H534    1.115   .     S
C510   H540    1.108   .     S
C511   O550    1.413   .     S
C511   H543    1.108   .     S
C511   H541    1.115   .     S
C511   H542    1.108   .     S
C512   H545    1.115   .     S
C512   O551    1.413   .     S
C512   H546    1.108   .     S
C512   H544    1.108   .     S
C513   O559    1.305   .     A
C513   O556    1.302   .     A
C514   H526    1.108   .     S
C514   O552    1.413   .     S
C514   H525    1.108   .     S
C514   H524    1.115   .     S
C515   O557    1.305   .     A
C515   O558    1.302   .     A
C516   N548    1.375   .     A
C516   O560    1.379   .     S
C517   O550    1.381   .     S
C517   N547    1.376   .     A
C517   C98     1.426   1_565 S
C518   N548    1.375   .     A
C518   O551    1.379   .     S
C519   N547    1.376   .     A
C519   O552    1.381   .     S
C519   C96     1.426   1_565 S
C520   H536    1.081   .     S
Cu521  O556    1.957   .     S
Cu521  Cu522   2.709   .     S
Cu521  N547    2.036   .     S
Cu521  O549    1.965   .     S
Cu521  O558    1.957   .     S
Cu521  O554    1.965   .     S
Cu522  N548    2.036   .     S
Cu522  O559    1.957   .     S
Cu522  O557    1.957   .     S
Cu522  O553    1.965   .     S
Cu522  O555    1.965   .     S
C561   O625    1.301   .     A
C561   O619    1.301   .     A
C561   C579    1.452   .     S
C562   H607    1.081   .     S
C562   C578    1.401   .     A
C562   C424    1.383   1_655 S
C563   C578    1.400   .     A
C563   H608    1.081   .     S
C563   C450    1.383   1_655 S
C564   H609    1.081   .     S
C564   C579    1.401   .     A
C565   C569    1.391   .     A
C565   H597    1.083   .     S
C565   C576    1.403   .     A
C566   C570    1.389   .     A
C566   H598    1.083   .     S
C566   C577    1.403   .     A
C567   C571    1.391   .     A
C567   H599    1.083   .     S
C567   C577    1.403   .     A
C568   C573    1.389   .     A
C568   C576    1.403   .     A
C568   H600    1.083   .     S
C569   C574    1.403   .     A
C569   H601    1.083   .     S
C570   H602    1.080   .     S
C570   C575    1.401   .     A
C571   H603    1.083   .     S
C571   C575    1.403   .     A
C572   O624    1.301   .     A
C572   C578    1.452   .     S
C572   O623    1.301   .     A
C573   C574    1.401   .     A
C573   H605    1.080   .     S
C574   C583    1.462   .     S
C575   C585    1.462   .     S
C576   C1207   1.470   1_554 S
C577   C1206   1.470   .     S
C579   C590    1.400   .     A
C580   O630    1.413   .     S
C580   H593    1.108   .     S
C580   H604    1.115   .     S
C580   H610    1.108   .     S
C581   O620    1.413   .     S
C581   H613    1.108   .     S
C581   H611    1.115   .     S
C581   H612    1.108   .     S
C582   H615    1.115   .     S
C582   O621    1.413   .     S
C582   H616    1.108   .     S
C582   H614    1.108   .     S
C583   O629    1.305   .     A
C583   O626    1.302   .     A
C584   H596    1.108   .     S
C584   O622    1.413   .     S
C584   H595    1.108   .     S
C584   H594    1.115   .     S
C585   O627    1.305   .     A
C585   O628    1.302   .     A
C586   N618    1.375   .     A
C586   O630    1.379   .     S
C587   O620    1.381   .     S
C587   N617    1.376   .     A
C587   C168    1.426   1_565 S
C588   N618    1.375   .     A
C588   O621    1.379   .     S
C589   N617    1.376   .     A
C589   O622    1.381   .     S
C589   C166    1.426   1_565 S
C590   H606    1.081   .     S
Cu591  O626    1.957   .     S
Cu591  Cu592   2.709   .     S
Cu591  N617    2.036   .     S
Cu591  O619    1.965   .     S
Cu591  O628    1.957   .     S
Cu591  O624    1.965   .     S
Cu592  N618    2.036   .     S
Cu592  O629    1.957   .     S
Cu592  O627    1.957   .     S
Cu592  O623    1.965   .     S
Cu592  O625    1.965   .     S
C631   O695    1.301   .     A
C631   O689    1.301   .     A
C631   C649    1.452   .     S
C632   H677    1.081   .     S
C632   C648    1.401   .     A
C632   C704    1.383   .     S
C633   C648    1.400   .     A
C633   H678    1.081   .     S
C633   C730    1.383   .     S
C634   H679    1.081   .     S
C634   C649    1.401   .     A
C634   C772    1.383   1_455 S
C635   C639    1.391   .     A
C635   H667    1.083   .     S
C635   C646    1.403   .     A
C636   C640    1.389   .     A
C636   H668    1.083   .     S
C636   C647    1.403   .     A
C637   C641    1.391   .     A
C637   H669    1.083   .     S
C637   C647    1.403   .     A
C638   C643    1.389   .     A
C638   C646    1.403   .     A
C638   H670    1.083   .     S
C639   C644    1.403   .     A
C639   H671    1.083   .     S
C640   H672    1.080   .     S
C640   C645    1.401   .     A
C641   H673    1.083   .     S
C641   C645    1.403   .     A
C642   O694    1.301   .     A
C642   C648    1.452   .     S
C642   O693    1.301   .     A
C643   C644    1.401   .     A
C643   H675    1.080   .     S
C644   C653    1.462   .     S
C645   C655    1.462   .     S
C647   C16     1.470   1_556 S
C649   C660    1.400   .     A
C650   O700    1.413   .     S
C650   H663    1.108   .     S
C650   H674    1.115   .     S
C650   H680    1.108   .     S
C651   O690    1.413   .     S
C651   H683    1.108   .     S
C651   H681    1.115   .     S
C651   H682    1.108   .     S
C652   H685    1.115   .     S
C652   O691    1.413   .     S
C652   H686    1.108   .     S
C652   H684    1.108   .     S
C653   O699    1.305   .     A
C653   O696    1.302   .     A
C654   H666    1.108   .     S
C654   O692    1.413   .     S
C654   H665    1.108   .     S
C654   H664    1.115   .     S
C655   O697    1.305   .     A
C655   O698    1.302   .     A
C656   N688    1.375   .     A
C656   O700    1.379   .     S
C656   C1079   1.426   1_545 S
C657   O690    1.381   .     S
C657   N687    1.376   .     A
C657   C868    1.426   .     S
C658   N688    1.375   .     A
C658   O691    1.379   .     S
C658   C1077   1.426   1_545 S
C659   N687    1.376   .     A
C659   O692    1.381   .     S
C659   C866    1.426   .     S
C660   H676    1.081   .     S
C660   C773    1.383   1_455 S
Cu661  O696    1.957   .     S
Cu661  Cu662   2.709   .     S
Cu661  N687    2.036   .     S
Cu661  O689    1.965   .     S
Cu661  O698    1.957   .     S
Cu661  O694    1.965   .     S
Cu662  N688    2.036   .     S
Cu662  O699    1.957   .     S
Cu662  O697    1.957   .     S
Cu662  O693    1.965   .     S
Cu662  O695    1.965   .     S
C701   O765    1.301   .     A
C701   O759    1.301   .     A
C701   C719    1.452   .     S
C702   H747    1.081   .     S
C702   C718    1.401   .     A
C702   C774    1.383   .     S
C703   C718    1.400   .     A
C703   H748    1.081   .     S
C703   C800    1.383   .     S
C704   H749    1.081   .     S
C704   C719    1.401   .     A
C705   C709    1.391   .     A
C705   H737    1.083   .     S
C705   C716    1.403   .     A
C706   C710    1.389   .     A
C706   H738    1.083   .     S
C706   C717    1.403   .     A
C707   C711    1.391   .     A
C707   H739    1.083   .     S
C707   C717    1.403   .     A
C708   C713    1.389   .     A
C708   C716    1.403   .     A
C708   H740    1.083   .     S
C709   C714    1.403   .     A
C709   H741    1.083   .     S
C710   H742    1.080   .     S
C710   C715    1.401   .     A
C711   H743    1.083   .     S
C711   C715    1.403   .     A
C712   O764    1.301   .     A
C712   C718    1.452   .     S
C712   O763    1.301   .     A
C713   C714    1.401   .     A
C713   H745    1.080   .     S
C714   C723    1.462   .     S
C715   C725    1.462   .     S
C717   C86     1.470   1_556 S
C719   C730    1.400   .     A
C720   O770    1.413   .     S
C720   H733    1.108   .     S
C720   H744    1.115   .     S
C720   H750    1.108   .     S
C721   O760    1.413   .     S
C721   H753    1.108   .     S
C721   H751    1.115   .     S
C721   H752    1.108   .     S
C722   H755    1.115   .     S
C722   O761    1.413   .     S
C722   H756    1.108   .     S
C722   H754    1.108   .     S
C723   O769    1.305   .     A
C723   O766    1.302   .     A
C724   H736    1.108   .     S
C724   O762    1.413   .     S
C724   H735    1.108   .     S
C724   H734    1.115   .     S
C725   O767    1.305   .     A
C725   O768    1.302   .     A
C726   N758    1.375   .     A
C726   O770    1.379   .     S
C726   C1149   1.426   1_545 S
C727   O760    1.381   .     S
C727   N757    1.376   .     A
C727   C938    1.426   .     S
C728   N758    1.375   .     A
C728   O761    1.379   .     S
C728   C1147   1.426   1_545 S
C729   N757    1.376   .     A
C729   O762    1.381   .     S
C729   C936    1.426   .     S
C730   H746    1.081   .     S
Cu731  O766    1.957   .     S
Cu731  Cu732   2.709   .     S
Cu731  N757    2.036   .     S
Cu731  O759    1.965   .     S
Cu731  O768    1.957   .     S
Cu731  O764    1.965   .     S
Cu732  N758    2.036   .     S
Cu732  O769    1.957   .     S
Cu732  O767    1.957   .     S
Cu732  O763    1.965   .     S
Cu732  O765    1.965   .     S
C771   O835    1.301   .     A
C771   O829    1.301   .     A
C771   C789    1.452   .     S
C772   H817    1.081   .     S
C772   C788    1.401   .     A
C772   C634    1.383   1_655 S
C773   C788    1.400   .     A
C773   H818    1.081   .     S
C773   C660    1.383   1_655 S
C774   H819    1.081   .     S
C774   C789    1.401   .     A
C775   C779    1.391   .     A
C775   H807    1.083   .     S
C775   C786    1.403   .     A
C776   C780    1.389   .     A
C776   H808    1.083   .     S
C776   C787    1.403   .     A
C777   C781    1.391   .     A
C777   H809    1.083   .     S
C777   C787    1.403   .     A
C778   C783    1.389   .     A
C778   C786    1.403   .     A
C778   H810    1.083   .     S
C779   C784    1.403   .     A
C779   H811    1.083   .     S
C780   H812    1.080   .     S
C780   C785    1.401   .     A
C781   H813    1.083   .     S
C781   C785    1.403   .     A
C782   O834    1.301   .     A
C782   C788    1.452   .     S
C782   O833    1.301   .     A
C783   C784    1.401   .     A
C783   H815    1.080   .     S
C784   C793    1.462   .     S
C785   C795    1.462   .     S
C787   C156    1.470   1_556 S
C789   C800    1.400   .     A
C790   O840    1.413   .     S
C790   H803    1.108   .     S
C790   H814    1.115   .     S
C790   H820    1.108   .     S
C791   O830    1.413   .     S
C791   H823    1.108   .     S
C791   H821    1.115   .     S
C791   H822    1.108   .     S
C792   H825    1.115   .     S
C792   O831    1.413   .     S
C792   H826    1.108   .     S
C792   H824    1.108   .     S
C793   O839    1.305   .     A
C793   O836    1.302   .     A
C794   H806    1.108   .     S
C794   O832    1.413   .     S
C794   H805    1.108   .     S
C794   H804    1.115   .     S
C795   O837    1.305   .     A
C795   O838    1.302   .     A
C796   N828    1.375   .     A
C796   O840    1.379   .     S
C796   C1219   1.426   1_545 S
C797   O830    1.381   .     S
C797   N827    1.376   .     A
C797   C1008   1.426   .     S
C798   N828    1.375   .     A
C798   O831    1.379   .     S
C798   C1217   1.426   1_545 S
C799   N827    1.376   .     A
C799   O832    1.381   .     S
C799   C1006   1.426   .     S
C800   H816    1.081   .     S
Cu801  O836    1.957   .     S
Cu801  Cu802   2.709   .     S
Cu801  N827    2.036   .     S
Cu801  O829    1.965   .     S
Cu801  O838    1.957   .     S
Cu801  O834    1.965   .     S
Cu802  N828    2.036   .     S
Cu802  O839    1.957   .     S
Cu802  O837    1.957   .     S
Cu802  O833    1.965   .     S
Cu802  O835    1.965   .     S
C841   O905    1.301   .     A
C841   O899    1.301   .     A
C841   C859    1.452   .     S
C842   H887    1.081   .     S
C842   C858    1.401   .     A
C842   C914    1.383   .     S
C843   C858    1.400   .     A
C843   H888    1.081   .     S
C843   C940    1.383   .     S
C844   H889    1.081   .     S
C844   C859    1.401   .     A
C844   C982    1.383   1_455 S
C845   C849    1.391   .     A
C845   H877    1.083   .     S
C845   C856    1.403   .     A
C846   C850    1.389   .     A
C846   H878    1.083   .     S
C846   C857    1.403   .     A
C847   C851    1.391   .     A
C847   H879    1.083   .     S
C847   C857    1.403   .     A
C848   C853    1.389   .     A
C848   C856    1.403   .     A
C848   H880    1.083   .     S
C849   C854    1.403   .     A
C849   H881    1.083   .     S
C850   H882    1.080   .     S
C850   C855    1.401   .     A
C851   H883    1.083   .     S
C851   C855    1.403   .     A
C852   O904    1.301   .     A
C852   C858    1.452   .     S
C852   O903    1.301   .     A
C853   C854    1.401   .     A
C853   H885    1.080   .     S
C854   C863    1.462   .     S
C855   C865    1.462   .     S
C857   C226    1.470   1_556 S
C859   C870    1.400   .     A
C860   O910    1.413   .     S
C860   H873    1.108   .     S
C860   H884    1.115   .     S
C860   H890    1.108   .     S
C861   O900    1.413   .     S
C861   H893    1.108   .     S
C861   H891    1.115   .     S
C861   H892    1.108   .     S
C862   H895    1.115   .     S
C862   O901    1.413   .     S
C862   H896    1.108   .     S
C862   H894    1.108   .     S
C863   O909    1.305   .     A
C863   O906    1.302   .     A
C864   H876    1.108   .     S
C864   O902    1.413   .     S
C864   H875    1.108   .     S
C864   H874    1.115   .     S
C865   O907    1.305   .     A
C865   O908    1.302   .     A
C866   N898    1.375   .     A
C866   O910    1.379   .     S
C867   O900    1.381   .     S
C867   N897    1.376   .     A
C867   C1078   1.426   .     S
C868   N898    1.375   .     A
C868   O901    1.379   .     S
C869   N897    1.376   .     A
C869   O902    1.381   .     S
C869   C1076   1.426   .     S
C870   H886    1.081   .     S
C870   C983    1.383   1_455 S
Cu871  O906    1.957   .     S
Cu871  Cu872   2.709   .     S
Cu871  N897    2.036   .     S
Cu871  O899    1.965   .     S
Cu871  O908    1.957   .     S
Cu871  O904    1.965   .     S
Cu872  N898    2.036   .     S
Cu872  O909    1.957   .     S
Cu872  O907    1.957   .     S
Cu872  O903    1.965   .     S
Cu872  O905    1.965   .     S
C911   O975    1.301   .     A
C911   O969    1.301   .     A
C911   C929    1.452   .     S
C912   H957    1.081   .     S
C912   C928    1.401   .     A
C912   C984    1.383   .     S
C913   C928    1.400   .     A
C913   H958    1.081   .     S
C913   C1010   1.383   .     S
C914   H959    1.081   .     S
C914   C929    1.401   .     A
C915   C919    1.391   .     A
C915   H947    1.083   .     S
C915   C926    1.403   .     A
C916   C920    1.389   .     A
C916   H948    1.083   .     S
C916   C927    1.403   .     A
C917   C921    1.391   .     A
C917   H949    1.083   .     S
C917   C927    1.403   .     A
C918   C923    1.389   .     A
C918   C926    1.403   .     A
C918   H950    1.083   .     S
C919   C924    1.403   .     A
C919   H951    1.083   .     S
C920   H952    1.080   .     S
C920   C925    1.401   .     A
C921   H953    1.083   .     S
C921   C925    1.403   .     A
C922   O974    1.301   .     A
C922   C928    1.452   .     S
C922   O973    1.301   .     A
C923   C924    1.401   .     A
C923   H955    1.080   .     S
C924   C933    1.462   .     S
C925   C935    1.462   .     S
C927   C296    1.470   1_556 S
C929   C940    1.400   .     A
C930   O980    1.413   .     S
C930   H943    1.108   .     S
C930   H954    1.115   .     S
C930   H960    1.108   .     S
C931   O970    1.413   .     S
C931   H963    1.108   .     S
C931   H961    1.115   .     S
C931   H962    1.108   .     S
C932   H965    1.115   .     S
C932   O971    1.413   .     S
C932   H966    1.108   .     S
C932   H964    1.108   .     S
C933   O979    1.305   .     A
C933   O976    1.302   .     A
C934   H946    1.108   .     S
C934   O972    1.413   .     S
C934   H945    1.108   .     S
C934   H944    1.115   .     S
C935   O977    1.305   .     A
C935   O978    1.302   .     A
C936   N968    1.375   .     A
C936   O980    1.379   .     S
C937   O970    1.381   .     S
C937   N967    1.376   .     A
C937   C1148   1.426   .     S
C938   N968    1.375   .     A
C938   O971    1.379   .     S
C939   N967    1.376   .     A
C939   O972    1.381   .     S
C939   C1146   1.426   .     S
C940   H956    1.081   .     S
Cu941  O976    1.957   .     S
Cu941  Cu942   2.709   .     S
Cu941  N967    2.036   .     S
Cu941  O969    1.965   .     S
Cu941  O978    1.957   .     S
Cu941  O974    1.965   .     S
Cu942  N968    2.036   .     S
Cu942  O979    1.957   .     S
Cu942  O977    1.957   .     S
Cu942  O973    1.965   .     S
Cu942  O975    1.965   .     S
C981   O1045   1.301   .     A
C981   O1039   1.301   .     A
C981   C999    1.452   .     S
C982   H1027   1.081   .     S
C982   C998    1.401   .     A
C982   C844    1.383   1_655 S
C983   C998    1.400   .     A
C983   H1028   1.081   .     S
C983   C870    1.383   1_655 S
C984   H1029   1.081   .     S
C984   C999    1.401   .     A
C985   C989    1.391   .     A
C985   H1017   1.083   .     S
C985   C996    1.403   .     A
C986   C990    1.389   .     A
C986   H1018   1.083   .     S
C986   C997    1.403   .     A
C987   C991    1.391   .     A
C987   H1019   1.083   .     S
C987   C997    1.403   .     A
C988   C993    1.389   .     A
C988   C996    1.403   .     A
C988   H1020   1.083   .     S
C989   C994    1.403   .     A
C989   H1021   1.083   .     S
C990   H1022   1.080   .     S
C990   C995    1.401   .     A
C991   H1023   1.083   .     S
C991   C995    1.403   .     A
C992   O1044   1.301   .     A
C992   C998    1.452   .     S
C992   O1043   1.301   .     A
C993   C994    1.401   .     A
C993   H1025   1.080   .     S
C994   C1003   1.462   .     S
C995   C1005   1.462   .     S
C997   C366    1.470   1_556 S
C999   C1010   1.400   .     A
C1000  O1050   1.413   .     S
C1000  H1013   1.108   .     S
C1000  H1024   1.115   .     S
C1000  H1030   1.108   .     S
C1001  O1040   1.413   .     S
C1001  H1033   1.108   .     S
C1001  H1031   1.115   .     S
C1001  H1032   1.108   .     S
C1002  H1035   1.115   .     S
C1002  O1041   1.413   .     S
C1002  H1036   1.108   .     S
C1002  H1034   1.108   .     S
C1003  O1049   1.305   .     A
C1003  O1046   1.302   .     A
C1004  H1016   1.108   .     S
C1004  O1042   1.413   .     S
C1004  H1015   1.108   .     S
C1004  H1014   1.115   .     S
C1005  O1047   1.305   .     A
C1005  O1048   1.302   .     A
C1006  N1038   1.375   .     A
C1006  O1050   1.379   .     S
C1007  O1040   1.381   .     S
C1007  N1037   1.376   .     A
C1007  C1218   1.426   .     S
C1008  N1038   1.375   .     A
C1008  O1041   1.379   .     S
C1009  N1037   1.376   .     A
C1009  O1042   1.381   .     S
C1009  C1216   1.426   .     S
C1010  H1026   1.081   .     S
Cu1011 O1046   1.957   .     S
Cu1011 Cu1012  2.709   .     S
Cu1011 N1037   2.036   .     S
Cu1011 O1039   1.965   .     S
Cu1011 O1048   1.957   .     S
Cu1011 O1044   1.965   .     S
Cu1012 N1038   2.036   .     S
Cu1012 O1049   1.957   .     S
Cu1012 O1047   1.957   .     S
Cu1012 O1043   1.965   .     S
Cu1012 O1045   1.965   .     S
C1051  O1115   1.301   .     A
C1051  O1109   1.301   .     A
C1051  C1069   1.452   .     S
C1052  H1097   1.081   .     S
C1052  C1068   1.401   .     A
C1052  C1124   1.383   .     S
C1053  C1068   1.400   .     A
C1053  H1098   1.081   .     S
C1053  C1150   1.383   .     S
C1054  H1099   1.081   .     S
C1054  C1069   1.401   .     A
C1054  C1192   1.383   1_455 S
C1055  C1059   1.391   .     A
C1055  H1087   1.083   .     S
C1055  C1066   1.403   .     A
C1056  C1060   1.389   .     A
C1056  H1088   1.083   .     S
C1056  C1067   1.403   .     A
C1057  C1061   1.391   .     A
C1057  H1089   1.083   .     S
C1057  C1067   1.403   .     A
C1058  C1063   1.389   .     A
C1058  C1066   1.403   .     A
C1058  H1090   1.083   .     S
C1059  C1064   1.403   .     A
C1059  H1091   1.083   .     S
C1060  H1092   1.080   .     S
C1060  C1065   1.401   .     A
C1061  H1093   1.083   .     S
C1061  C1065   1.403   .     A
C1062  O1114   1.301   .     A
C1062  C1068   1.452   .     S
C1062  O1113   1.301   .     A
C1063  C1064   1.401   .     A
C1063  H1095   1.080   .     S
C1064  C1073   1.462   .     S
C1065  C1075   1.462   .     S
C1067  C436    1.470   1_556 S
C1069  C1080   1.400   .     A
C1070  O1120   1.413   .     S
C1070  H1083   1.108   .     S
C1070  H1094   1.115   .     S
C1070  H1100   1.108   .     S
C1071  O1110   1.413   .     S
C1071  H1103   1.108   .     S
C1071  H1101   1.115   .     S
C1071  H1102   1.108   .     S
C1072  H1105   1.115   .     S
C1072  O1111   1.413   .     S
C1072  H1106   1.108   .     S
C1072  H1104   1.108   .     S
C1073  O1119   1.305   .     A
C1073  O1116   1.302   .     A
C1074  H1086   1.108   .     S
C1074  O1112   1.413   .     S
C1074  H1085   1.108   .     S
C1074  H1084   1.115   .     S
C1075  O1117   1.305   .     A
C1075  O1118   1.302   .     A
C1076  N1108   1.375   .     A
C1076  O1120   1.379   .     S
C1077  O1110   1.381   .     S
C1077  N1107   1.376   .     A
C1077  C658    1.426   1_565 S
C1078  N1108   1.375   .     A
C1078  O1111   1.379   .     S
C1079  N1107   1.376   .     A
C1079  O1112   1.381   .     S
C1079  C656    1.426   1_565 S
C1080  H1096   1.081   .     S
C1080  C1193   1.383   1_455 S
Cu1081 O1116   1.957   .     S
Cu1081 Cu1082  2.709   .     S
Cu1081 N1107   2.036   .     S
Cu1081 O1109   1.965   .     S
Cu1081 O1118   1.957   .     S
Cu1081 O1114   1.965   .     S
Cu1082 N1108   2.036   .     S
Cu1082 O1119   1.957   .     S
Cu1082 O1117   1.957   .     S
Cu1082 O1113   1.965   .     S
Cu1082 O1115   1.965   .     S
C1121  O1185   1.301   .     A
C1121  O1179   1.301   .     A
C1121  C1139   1.452   .     S
C1122  H1167   1.081   .     S
C1122  C1138   1.401   .     A
C1122  C1194   1.383   .     S
C1123  C1138   1.400   .     A
C1123  H1168   1.081   .     S
C1123  C1220   1.383   .     S
C1124  H1169   1.081   .     S
C1124  C1139   1.401   .     A
C1125  C1129   1.391   .     A
C1125  H1157   1.083   .     S
C1125  C1136   1.403   .     A
C1126  C1130   1.389   .     A
C1126  H1158   1.083   .     S
C1126  C1137   1.403   .     A
C1127  C1131   1.391   .     A
C1127  H1159   1.083   .     S
C1127  C1137   1.403   .     A
C1128  C1133   1.389   .     A
C1128  C1136   1.403   .     A
C1128  H1160   1.083   .     S
C1129  C1134   1.403   .     A
C1129  H1161   1.083   .     S
C1130  H1162   1.080   .     S
C1130  C1135   1.401   .     A
C1131  H1163   1.083   .     S
C1131  C1135   1.403   .     A
C1132  O1184   1.301   .     A
C1132  C1138   1.452   .     S
C1132  O1183   1.301   .     A
C1133  C1134   1.401   .     A
C1133  H1165   1.080   .     S
C1134  C1143   1.462   .     S
C1135  C1145   1.462   .     S
C1137  C506    1.470   1_556 S
C1139  C1150   1.400   .     A
C1140  O1190   1.413   .     S
C1140  H1153   1.108   .     S
C1140  H1164   1.115   .     S
C1140  H1170   1.108   .     S
C1141  O1180   1.413   .     S
C1141  H1173   1.108   .     S
C1141  H1171   1.115   .     S
C1141  H1172   1.108   .     S
C1142  H1175   1.115   .     S
C1142  O1181   1.413   .     S
C1142  H1176   1.108   .     S
C1142  H1174   1.108   .     S
C1143  O1189   1.305   .     A
C1143  O1186   1.302   .     A
C1144  H1156   1.108   .     S
C1144  O1182   1.413   .     S
C1144  H1155   1.108   .     S
C1144  H1154   1.115   .     S
C1145  O1187   1.305   .     A
C1145  O1188   1.302   .     A
C1146  N1178   1.375   .     A
C1146  O1190   1.379   .     S
C1147  O1180   1.381   .     S
C1147  N1177   1.376   .     A
C1147  C728    1.426   1_565 S
C1148  N1178   1.375   .     A
C1148  O1181   1.379   .     S
C1149  N1177   1.376   .     A
C1149  O1182   1.381   .     S
C1149  C726    1.426   1_565 S
C1150  H1166   1.081   .     S
Cu1151 O1186   1.957   .     S
Cu1151 Cu1152  2.709   .     S
Cu1151 N1177   2.036   .     S
Cu1151 O1179   1.965   .     S
Cu1151 O1188   1.957   .     S
Cu1151 O1184   1.965   .     S
Cu1152 N1178   2.036   .     S
Cu1152 O1189   1.957   .     S
Cu1152 O1187   1.957   .     S
Cu1152 O1183   1.965   .     S
Cu1152 O1185   1.965   .     S
C1191  O1255   1.301   .     A
C1191  O1249   1.301   .     A
C1191  C1209   1.452   .     S
C1192  H1237   1.081   .     S
C1192  C1208   1.401   .     A
C1192  C1054   1.383   1_655 S
C1193  C1208   1.400   .     A
C1193  H1238   1.081   .     S
C1193  C1080   1.383   1_655 S
C1194  H1239   1.081   .     S
C1194  C1209   1.401   .     A
C1195  C1199   1.391   .     A
C1195  H1227   1.083   .     S
C1195  C1206   1.403   .     A
C1196  C1200   1.389   .     A
C1196  H1228   1.083   .     S
C1196  C1207   1.403   .     A
C1197  C1201   1.391   .     A
C1197  H1229   1.083   .     S
C1197  C1207   1.403   .     A
C1198  C1203   1.389   .     A
C1198  C1206   1.403   .     A
C1198  H1230   1.083   .     S
C1199  C1204   1.403   .     A
C1199  H1231   1.083   .     S
C1200  H1232   1.080   .     S
C1200  C1205   1.401   .     A
C1201  H1233   1.083   .     S
C1201  C1205   1.403   .     A
C1202  O1254   1.301   .     A
C1202  C1208   1.452   .     S
C1202  O1253   1.301   .     A
C1203  C1204   1.401   .     A
C1203  H1235   1.080   .     S
C1204  C1213   1.462   .     S
C1205  C1215   1.462   .     S
C1207  C576    1.470   1_556 S
C1209  C1220   1.400   .     A
C1210  O1260   1.413   .     S
C1210  H1223   1.108   .     S
C1210  H1234   1.115   .     S
C1210  H1240   1.108   .     S
C1211  O1250   1.413   .     S
C1211  H1243   1.108   .     S
C1211  H1241   1.115   .     S
C1211  H1242   1.108   .     S
C1212  H1245   1.115   .     S
C1212  O1251   1.413   .     S
C1212  H1246   1.108   .     S
C1212  H1244   1.108   .     S
C1213  O1259   1.305   .     A
C1213  O1256   1.302   .     A
C1214  H1226   1.108   .     S
C1214  O1252   1.413   .     S
C1214  H1225   1.108   .     S
C1214  H1224   1.115   .     S
C1215  O1257   1.305   .     A
C1215  O1258   1.302   .     A
C1216  N1248   1.375   .     A
C1216  O1260   1.379   .     S
C1217  O1250   1.381   .     S
C1217  N1247   1.376   .     A
C1217  C798    1.426   1_565 S
C1218  N1248   1.375   .     A
C1218  O1251   1.379   .     S
C1219  N1247   1.376   .     A
C1219  O1252   1.381   .     S
C1219  C796    1.426   1_565 S
C1220  H1236   1.081   .     S
Cu1221 O1256   1.957   .     S
Cu1221 Cu1222  2.709   .     S
Cu1221 N1247   2.036   .     S
Cu1221 O1249   1.965   .     S
Cu1221 O1258   1.957   .     S
Cu1221 O1254   1.965   .     S
Cu1222 N1248   2.036   .     S
Cu1222 O1259   1.957   .     S
Cu1222 O1257   1.957   .     S
Cu1222 O1253   1.965   .     S
Cu1222 O1255   1.965   .     S
