data_str_m2_o5_o17_pcu_sym.19
_audit_creation_date              2020-01-03
_audit_creation_method            'Materials Studio'
_symmetry_space_group_name_H-M    'P1'
_symmetry_Int_Tables_number       1
_symmetry_cell_setting            triclinic
loop_
_symmetry_equiv_pos_as_xyz
  x,y,z
_cell_length_a                    30.1933
_cell_length_b                    27.3534
_cell_length_c                    23.3531
_cell_angle_alpha                 90.1844
_cell_angle_beta                  90.0007
_cell_angle_gamma                 89.9871
loop_
_atom_site_label
_atom_site_type_symbol
_atom_site_fract_x
_atom_site_fract_y
_atom_site_fract_z
_atom_site_U_iso_or_equiv
_atom_site_adp_type
_atom_site_occupancy
O1     O     0.25000   0.09613   0.21425   0.00000  Uiso   1.00
O2     O     0.25000   0.23720   0.11908   0.00000  Uiso   1.00
O3     O     0.25000   0.23720   0.21425   0.00000  Uiso   1.00
O4     O     0.25000   0.09613   0.11908   0.00000  Uiso   1.00
C5     C     0.25011   0.07333   0.16661   0.00000  Uiso   1.00
C6     C     0.25011   0.26001   0.16672   0.00000  Uiso   1.00
O7     O     0.18513   0.16667   0.21427   0.00000  Uiso   1.00
O8     O     0.31487   0.16667   0.11907   0.00000  Uiso   1.00
O9     O     0.31487   0.16667   0.21427   0.00000  Uiso   1.00
O10    O     0.18513   0.16667   0.11907   0.00000  Uiso   1.00
C11    C     0.16424   0.16669   0.16667   0.00000  Uiso   1.00
C12    C     0.33554   0.16665   0.16667   0.00000  Uiso   1.00
Cu13   Cu    0.25000   0.16667   0.22303   0.00000  Uiso   1.00
Cu14   Cu    0.25000   0.16667   0.11031   0.00000  Uiso   1.00
N15    N     0.25000   0.16667   0.02561   0.00000  Uiso   1.00
N16    N     0.25000   0.16667   0.30773   0.00000  Uiso   1.00
C17    C     0.40620   0.21015   0.17766   0.00000  Uiso   1.00
C18    C     0.09303   0.12899   0.13819   0.00000  Uiso   1.00
C19    C     0.40622   0.12311   0.15574   0.00000  Uiso   1.00
C20    C     0.09303   0.20435   0.19527   0.00000  Uiso   1.00
C21    C     0.38348   0.16664   0.16667   0.00000  Uiso   1.00
C22    C     0.11589   0.16668   0.16670   0.00000  Uiso   1.00
C23    C     0.45261   0.12438   0.14853   0.00000  Uiso   1.00
C24    C     0.04633   0.20717   0.19076   0.00000  Uiso   1.00
C25    C     0.45258   0.20886   0.18499   0.00000  Uiso   1.00
C26    C     0.04636   0.12612   0.14281   0.00000  Uiso   1.00
C27    C     0.47614   0.16662   0.16677   0.00000  Uiso   1.00
C28    C     0.02300   0.16663   0.16679   0.00000  Uiso   1.00
C29    C     0.47592   0.08471   0.12420   0.00000  Uiso   1.00
C30    C     0.02213   0.24870   0.21032   0.00000  Uiso   1.00
C31    C     0.47584   0.24850   0.20943   0.00000  Uiso   1.00
C32    C     0.02221   0.08454   0.12334   0.00000  Uiso   1.00
C33    C     0.25021   0.02177   0.16659   0.00000  Uiso   1.00
C34    C     0.25021   0.31156   0.16674   0.00000  Uiso   1.00
Cl35   Cl    0.44821   0.03749   0.08619   0.00000  Uiso   1.00
Cl36   Cl    0.04759   0.30440   0.23208   0.00000  Uiso   1.00
Cl37   Cl    0.44805   0.29563   0.24752   0.00000  Uiso   1.00
Cl38   Cl    0.04776   0.02882   0.10178   0.00000  Uiso   1.00
N39    N     0.38285   0.25544   0.17612   0.00000  Uiso   1.00
H40    H     0.35411   0.25619   0.19996   0.00000  Uiso   1.00
C41    C     0.37683   0.27456   0.11894   0.00000  Uiso   1.00
H42    H     0.36240   0.31178   0.12126   0.00000  Uiso   1.00
H43    H     0.35393   0.25097   0.09399   0.00000  Uiso   1.00
H44    H     0.40912   0.27646   0.09630   0.00000  Uiso   1.00
N45    N     0.11719   0.09416   0.10493   0.00000  Uiso   1.00
H46    H     0.14699   0.08264   0.12170   0.00000  Uiso   1.00
C47    C     0.11870   0.10426   0.04413   0.00000  Uiso   1.00
H48    H     0.13421   0.07295   0.02136   0.00000  Uiso   1.00
H49    H     0.13857   0.13751   0.03582   0.00000  Uiso   1.00
H50    H     0.08475   0.10953   0.02681   0.00000  Uiso   1.00
N51    N     0.38286   0.07784   0.15723   0.00000  Uiso   1.00
H52    H     0.35413   0.07712   0.13336   0.00000  Uiso   1.00
C53    C     0.37681   0.05869   0.21439   0.00000  Uiso   1.00
H54    H     0.40909   0.05673   0.23704   0.00000  Uiso   1.00
H55    H     0.36235   0.02149   0.21203   0.00000  Uiso   1.00
H56    H     0.35391   0.08229   0.23935   0.00000  Uiso   1.00
N57    N     0.11720   0.23931   0.22829   0.00000  Uiso   1.00
H58    H     0.14691   0.25090   0.21133   0.00000  Uiso   1.00
C59    C     0.11891   0.22945   0.28914   0.00000  Uiso   1.00
H60    H     0.13348   0.26139   0.31180   0.00000  Uiso   1.00
H61    H     0.13978   0.19695   0.29764   0.00000  Uiso   1.00
H62    H     0.08510   0.22304   0.30644   0.00000  Uiso   1.00
O63    O     0.75000   0.09613   0.21425   0.00000  Uiso   1.00
O64    O     0.75000   0.23720   0.11908   0.00000  Uiso   1.00
O65    O     0.75000   0.23720   0.21425   0.00000  Uiso   1.00
O66    O     0.75000   0.09613   0.11908   0.00000  Uiso   1.00
C67    C     0.75011   0.07333   0.16661   0.00000  Uiso   1.00
C68    C     0.75011   0.26001   0.16672   0.00000  Uiso   1.00
O69    O     0.68513   0.16667   0.21427   0.00000  Uiso   1.00
O70    O     0.81487   0.16667   0.11907   0.00000  Uiso   1.00
O71    O     0.81487   0.16667   0.21427   0.00000  Uiso   1.00
O72    O     0.68513   0.16667   0.11907   0.00000  Uiso   1.00
C73    C     0.66424   0.16669   0.16667   0.00000  Uiso   1.00
C74    C     0.83554   0.16665   0.16667   0.00000  Uiso   1.00
Cu75   Cu    0.75000   0.16667   0.22303   0.00000  Uiso   1.00
Cu76   Cu    0.75000   0.16667   0.11031   0.00000  Uiso   1.00
N77    N     0.75000   0.16667   0.02561   0.00000  Uiso   1.00
N78    N     0.75000   0.16667   0.30773   0.00000  Uiso   1.00
C79    C     0.90620   0.21015   0.17766   0.00000  Uiso   1.00
C80    C     0.59303   0.12899   0.13819   0.00000  Uiso   1.00
C81    C     0.90622   0.12311   0.15574   0.00000  Uiso   1.00
C82    C     0.59303   0.20435   0.19527   0.00000  Uiso   1.00
C83    C     0.88348   0.16664   0.16667   0.00000  Uiso   1.00
C84    C     0.61589   0.16668   0.16670   0.00000  Uiso   1.00
C85    C     0.95261   0.12438   0.14853   0.00000  Uiso   1.00
C86    C     0.54633   0.20717   0.19076   0.00000  Uiso   1.00
C87    C     0.95258   0.20886   0.18499   0.00000  Uiso   1.00
C88    C     0.54636   0.12612   0.14281   0.00000  Uiso   1.00
C89    C     0.97614   0.16662   0.16677   0.00000  Uiso   1.00
C90    C     0.52300   0.16663   0.16679   0.00000  Uiso   1.00
C91    C     0.97592   0.08471   0.12420   0.00000  Uiso   1.00
C92    C     0.52213   0.24870   0.21032   0.00000  Uiso   1.00
C93    C     0.97584   0.24850   0.20943   0.00000  Uiso   1.00
C94    C     0.52221   0.08454   0.12334   0.00000  Uiso   1.00
C95    C     0.75021   0.02177   0.16659   0.00000  Uiso   1.00
C96    C     0.75021   0.31156   0.16674   0.00000  Uiso   1.00
Cl97   Cl    0.94821   0.03749   0.08619   0.00000  Uiso   1.00
Cl98   Cl    0.54759   0.30440   0.23208   0.00000  Uiso   1.00
Cl99   Cl    0.94805   0.29563   0.24752   0.00000  Uiso   1.00
Cl100  Cl    0.54776   0.02882   0.10178   0.00000  Uiso   1.00
N101   N     0.88285   0.25544   0.17612   0.00000  Uiso   1.00
H102   H     0.85411   0.25619   0.19996   0.00000  Uiso   1.00
C103   C     0.87683   0.27456   0.11894   0.00000  Uiso   1.00
H104   H     0.86240   0.31178   0.12126   0.00000  Uiso   1.00
H105   H     0.85393   0.25097   0.09399   0.00000  Uiso   1.00
H106   H     0.90912   0.27646   0.09630   0.00000  Uiso   1.00
N107   N     0.61719   0.09416   0.10493   0.00000  Uiso   1.00
H108   H     0.64699   0.08264   0.12170   0.00000  Uiso   1.00
C109   C     0.61870   0.10426   0.04413   0.00000  Uiso   1.00
H110   H     0.63421   0.07295   0.02136   0.00000  Uiso   1.00
H111   H     0.63857   0.13751   0.03582   0.00000  Uiso   1.00
H112   H     0.58475   0.10953   0.02681   0.00000  Uiso   1.00
N113   N     0.88286   0.07784   0.15723   0.00000  Uiso   1.00
H114   H     0.85413   0.07712   0.13336   0.00000  Uiso   1.00
C115   C     0.87681   0.05869   0.21439   0.00000  Uiso   1.00
H116   H     0.90909   0.05673   0.23704   0.00000  Uiso   1.00
H117   H     0.86235   0.02149   0.21203   0.00000  Uiso   1.00
H118   H     0.85391   0.08229   0.23935   0.00000  Uiso   1.00
N119   N     0.61720   0.23931   0.22829   0.00000  Uiso   1.00
H120   H     0.64691   0.25090   0.21133   0.00000  Uiso   1.00
C121   C     0.61891   0.22945   0.28914   0.00000  Uiso   1.00
H122   H     0.63348   0.26139   0.31180   0.00000  Uiso   1.00
H123   H     0.63978   0.19695   0.29764   0.00000  Uiso   1.00
H124   H     0.58510   0.22304   0.30644   0.00000  Uiso   1.00
O125   O     0.25000   0.42946   0.21425   0.00000  Uiso   1.00
O126   O     0.25000   0.57054   0.11908   0.00000  Uiso   1.00
O127   O     0.25000   0.57054   0.21425   0.00000  Uiso   1.00
O128   O     0.25000   0.42946   0.11908   0.00000  Uiso   1.00
C129   C     0.25011   0.40666   0.16661   0.00000  Uiso   1.00
C130   C     0.25011   0.59334   0.16672   0.00000  Uiso   1.00
O131   O     0.18513   0.50000   0.21427   0.00000  Uiso   1.00
O132   O     0.31487   0.50000   0.11907   0.00000  Uiso   1.00
O133   O     0.31487   0.50000   0.21427   0.00000  Uiso   1.00
O134   O     0.18513   0.50000   0.11907   0.00000  Uiso   1.00
C135   C     0.16424   0.50002   0.16667   0.00000  Uiso   1.00
C136   C     0.33554   0.49998   0.16667   0.00000  Uiso   1.00
Cu137  Cu    0.25000   0.50000   0.22303   0.00000  Uiso   1.00
Cu138  Cu    0.25000   0.50000   0.11031   0.00000  Uiso   1.00
N139   N     0.25000   0.50000   0.02561   0.00000  Uiso   1.00
N140   N     0.25000   0.50000   0.30773   0.00000  Uiso   1.00
C141   C     0.40620   0.54349   0.17766   0.00000  Uiso   1.00
C142   C     0.09303   0.46232   0.13819   0.00000  Uiso   1.00
C143   C     0.40622   0.45644   0.15574   0.00000  Uiso   1.00
C144   C     0.09303   0.53768   0.19527   0.00000  Uiso   1.00
C145   C     0.38348   0.49997   0.16667   0.00000  Uiso   1.00
C146   C     0.11589   0.50001   0.16670   0.00000  Uiso   1.00
C147   C     0.45261   0.45771   0.14853   0.00000  Uiso   1.00
C148   C     0.04633   0.54050   0.19076   0.00000  Uiso   1.00
C149   C     0.45258   0.54219   0.18499   0.00000  Uiso   1.00
C150   C     0.04636   0.45945   0.14281   0.00000  Uiso   1.00
C151   C     0.47614   0.49995   0.16677   0.00000  Uiso   1.00
C152   C     0.02300   0.49997   0.16679   0.00000  Uiso   1.00
C153   C     0.47592   0.41805   0.12420   0.00000  Uiso   1.00
C154   C     0.02213   0.58203   0.21032   0.00000  Uiso   1.00
C155   C     0.47584   0.58183   0.20943   0.00000  Uiso   1.00
C156   C     0.02221   0.41787   0.12334   0.00000  Uiso   1.00
C157   C     0.25021   0.35511   0.16659   0.00000  Uiso   1.00
C158   C     0.25021   0.64489   0.16674   0.00000  Uiso   1.00
Cl159  Cl    0.44821   0.37083   0.08619   0.00000  Uiso   1.00
Cl160  Cl    0.04759   0.63773   0.23208   0.00000  Uiso   1.00
Cl161  Cl    0.44805   0.62896   0.24752   0.00000  Uiso   1.00
Cl162  Cl    0.04776   0.36215   0.10178   0.00000  Uiso   1.00
N163   N     0.38285   0.58878   0.17612   0.00000  Uiso   1.00
H164   H     0.35411   0.58952   0.19996   0.00000  Uiso   1.00
C165   C     0.37683   0.60789   0.11894   0.00000  Uiso   1.00
H166   H     0.36240   0.64511   0.12126   0.00000  Uiso   1.00
H167   H     0.35393   0.58431   0.09399   0.00000  Uiso   1.00
H168   H     0.40912   0.60979   0.09630   0.00000  Uiso   1.00
N169   N     0.11719   0.42750   0.10493   0.00000  Uiso   1.00
H170   H     0.14699   0.41597   0.12170   0.00000  Uiso   1.00
C171   C     0.11870   0.43759   0.04413   0.00000  Uiso   1.00
H172   H     0.13421   0.40628   0.02136   0.00000  Uiso   1.00
H173   H     0.13857   0.47084   0.03582   0.00000  Uiso   1.00
H174   H     0.08475   0.44287   0.02681   0.00000  Uiso   1.00
N175   N     0.38286   0.41117   0.15723   0.00000  Uiso   1.00
H176   H     0.35413   0.41045   0.13336   0.00000  Uiso   1.00
C177   C     0.37681   0.39203   0.21439   0.00000  Uiso   1.00
H178   H     0.40909   0.39006   0.23704   0.00000  Uiso   1.00
H179   H     0.36235   0.35483   0.21203   0.00000  Uiso   1.00
H180   H     0.35391   0.41563   0.23935   0.00000  Uiso   1.00
N181   N     0.11720   0.57264   0.22829   0.00000  Uiso   1.00
H182   H     0.14691   0.58424   0.21133   0.00000  Uiso   1.00
C183   C     0.11891   0.56278   0.28914   0.00000  Uiso   1.00
H184   H     0.13348   0.59472   0.31180   0.00000  Uiso   1.00
H185   H     0.13978   0.53028   0.29764   0.00000  Uiso   1.00
H186   H     0.08510   0.55637   0.30644   0.00000  Uiso   1.00
O187   O     0.75000   0.42946   0.21425   0.00000  Uiso   1.00
O188   O     0.75000   0.57054   0.11908   0.00000  Uiso   1.00
O189   O     0.75000   0.57054   0.21425   0.00000  Uiso   1.00
O190   O     0.75000   0.42946   0.11908   0.00000  Uiso   1.00
C191   C     0.75011   0.40666   0.16661   0.00000  Uiso   1.00
C192   C     0.75011   0.59334   0.16672   0.00000  Uiso   1.00
O193   O     0.68513   0.50000   0.21427   0.00000  Uiso   1.00
O194   O     0.81487   0.50000   0.11907   0.00000  Uiso   1.00
O195   O     0.81487   0.50000   0.21427   0.00000  Uiso   1.00
O196   O     0.68513   0.50000   0.11907   0.00000  Uiso   1.00
C197   C     0.66424   0.50002   0.16667   0.00000  Uiso   1.00
C198   C     0.83554   0.49998   0.16667   0.00000  Uiso   1.00
Cu199  Cu    0.75000   0.50000   0.22303   0.00000  Uiso   1.00
Cu200  Cu    0.75000   0.50000   0.11031   0.00000  Uiso   1.00
N201   N     0.75000   0.50000   0.02561   0.00000  Uiso   1.00
N202   N     0.75000   0.50000   0.30773   0.00000  Uiso   1.00
C203   C     0.90620   0.54349   0.17766   0.00000  Uiso   1.00
C204   C     0.59303   0.46232   0.13819   0.00000  Uiso   1.00
C205   C     0.90622   0.45644   0.15574   0.00000  Uiso   1.00
C206   C     0.59303   0.53768   0.19527   0.00000  Uiso   1.00
C207   C     0.88348   0.49997   0.16667   0.00000  Uiso   1.00
C208   C     0.61589   0.50001   0.16670   0.00000  Uiso   1.00
C209   C     0.95261   0.45771   0.14853   0.00000  Uiso   1.00
C210   C     0.54633   0.54050   0.19076   0.00000  Uiso   1.00
C211   C     0.95258   0.54219   0.18499   0.00000  Uiso   1.00
C212   C     0.54636   0.45945   0.14281   0.00000  Uiso   1.00
C213   C     0.97614   0.49995   0.16677   0.00000  Uiso   1.00
C214   C     0.52300   0.49997   0.16679   0.00000  Uiso   1.00
C215   C     0.97592   0.41805   0.12420   0.00000  Uiso   1.00
C216   C     0.52213   0.58203   0.21032   0.00000  Uiso   1.00
C217   C     0.97584   0.58183   0.20943   0.00000  Uiso   1.00
C218   C     0.52221   0.41787   0.12334   0.00000  Uiso   1.00
C219   C     0.75021   0.35511   0.16659   0.00000  Uiso   1.00
C220   C     0.75021   0.64489   0.16674   0.00000  Uiso   1.00
Cl221  Cl    0.94821   0.37083   0.08619   0.00000  Uiso   1.00
Cl222  Cl    0.54759   0.63773   0.23208   0.00000  Uiso   1.00
Cl223  Cl    0.94805   0.62896   0.24752   0.00000  Uiso   1.00
Cl224  Cl    0.54776   0.36215   0.10178   0.00000  Uiso   1.00
N225   N     0.88285   0.58878   0.17612   0.00000  Uiso   1.00
H226   H     0.85411   0.58952   0.19996   0.00000  Uiso   1.00
C227   C     0.87683   0.60789   0.11894   0.00000  Uiso   1.00
H228   H     0.86240   0.64511   0.12126   0.00000  Uiso   1.00
H229   H     0.85393   0.58431   0.09399   0.00000  Uiso   1.00
H230   H     0.90912   0.60979   0.09630   0.00000  Uiso   1.00
N231   N     0.61719   0.42750   0.10493   0.00000  Uiso   1.00
H232   H     0.64699   0.41597   0.12170   0.00000  Uiso   1.00
C233   C     0.61870   0.43759   0.04413   0.00000  Uiso   1.00
H234   H     0.63421   0.40628   0.02136   0.00000  Uiso   1.00
H235   H     0.63857   0.47084   0.03582   0.00000  Uiso   1.00
H236   H     0.58475   0.44287   0.02681   0.00000  Uiso   1.00
N237   N     0.88286   0.41117   0.15723   0.00000  Uiso   1.00
H238   H     0.85413   0.41045   0.13336   0.00000  Uiso   1.00
C239   C     0.87681   0.39203   0.21439   0.00000  Uiso   1.00
H240   H     0.90909   0.39006   0.23704   0.00000  Uiso   1.00
H241   H     0.86235   0.35483   0.21203   0.00000  Uiso   1.00
H242   H     0.85391   0.41563   0.23935   0.00000  Uiso   1.00
N243   N     0.61720   0.57264   0.22829   0.00000  Uiso   1.00
H244   H     0.64691   0.58424   0.21133   0.00000  Uiso   1.00
C245   C     0.61891   0.56278   0.28914   0.00000  Uiso   1.00
H246   H     0.63348   0.59472   0.31180   0.00000  Uiso   1.00
H247   H     0.63978   0.53028   0.29764   0.00000  Uiso   1.00
H248   H     0.58510   0.55637   0.30644   0.00000  Uiso   1.00
O249   O     0.25000   0.76280   0.21425   0.00000  Uiso   1.00
O250   O     0.25000   0.90387   0.11908   0.00000  Uiso   1.00
O251   O     0.25000   0.90387   0.21425   0.00000  Uiso   1.00
O252   O     0.25000   0.76280   0.11908   0.00000  Uiso   1.00
C253   C     0.25011   0.73999   0.16661   0.00000  Uiso   1.00
C254   C     0.25011   0.92667   0.16672   0.00000  Uiso   1.00
O255   O     0.18513   0.83333   0.21427   0.00000  Uiso   1.00
O256   O     0.31487   0.83333   0.11907   0.00000  Uiso   1.00
O257   O     0.31487   0.83333   0.21427   0.00000  Uiso   1.00
O258   O     0.18513   0.83333   0.11907   0.00000  Uiso   1.00
C259   C     0.16424   0.83335   0.16667   0.00000  Uiso   1.00
C260   C     0.33554   0.83332   0.16667   0.00000  Uiso   1.00
Cu261  Cu    0.25000   0.83333   0.22303   0.00000  Uiso   1.00
Cu262  Cu    0.25000   0.83333   0.11031   0.00000  Uiso   1.00
N263   N     0.25000   0.83333   0.02561   0.00000  Uiso   1.00
N264   N     0.25000   0.83333   0.30773   0.00000  Uiso   1.00
C265   C     0.40620   0.87682   0.17766   0.00000  Uiso   1.00
C266   C     0.09303   0.79566   0.13819   0.00000  Uiso   1.00
C267   C     0.40622   0.78978   0.15574   0.00000  Uiso   1.00
C268   C     0.09303   0.87101   0.19527   0.00000  Uiso   1.00
C269   C     0.38348   0.83331   0.16667   0.00000  Uiso   1.00
C270   C     0.11589   0.83335   0.16670   0.00000  Uiso   1.00
C271   C     0.45261   0.79105   0.14853   0.00000  Uiso   1.00
C272   C     0.04633   0.87383   0.19076   0.00000  Uiso   1.00
C273   C     0.45258   0.87552   0.18499   0.00000  Uiso   1.00
C274   C     0.04636   0.79278   0.14281   0.00000  Uiso   1.00
C275   C     0.47614   0.83329   0.16677   0.00000  Uiso   1.00
C276   C     0.02300   0.83330   0.16679   0.00000  Uiso   1.00
C277   C     0.47592   0.75138   0.12420   0.00000  Uiso   1.00
C278   C     0.02213   0.91536   0.21032   0.00000  Uiso   1.00
C279   C     0.47584   0.91516   0.20943   0.00000  Uiso   1.00
C280   C     0.02221   0.75121   0.12334   0.00000  Uiso   1.00
C281   C     0.25021   0.68844   0.16659   0.00000  Uiso   1.00
C282   C     0.25021   0.97823   0.16674   0.00000  Uiso   1.00
Cl283  Cl    0.44821   0.70416   0.08619   0.00000  Uiso   1.00
Cl284  Cl    0.04759   0.97107   0.23208   0.00000  Uiso   1.00
Cl285  Cl    0.44805   0.96229   0.24752   0.00000  Uiso   1.00
Cl286  Cl    0.04776   0.69549   0.10178   0.00000  Uiso   1.00
N287   N     0.38285   0.92211   0.17612   0.00000  Uiso   1.00
H288   H     0.35411   0.92285   0.19996   0.00000  Uiso   1.00
C289   C     0.37683   0.94122   0.11894   0.00000  Uiso   1.00
H290   H     0.36240   0.97845   0.12126   0.00000  Uiso   1.00
H291   H     0.35393   0.91764   0.09399   0.00000  Uiso   1.00
H292   H     0.40912   0.94313   0.09630   0.00000  Uiso   1.00
N293   N     0.11719   0.76083   0.10493   0.00000  Uiso   1.00
H294   H     0.14699   0.74930   0.12170   0.00000  Uiso   1.00
C295   C     0.11870   0.77093   0.04413   0.00000  Uiso   1.00
H296   H     0.13421   0.73962   0.02136   0.00000  Uiso   1.00
H297   H     0.13857   0.80418   0.03582   0.00000  Uiso   1.00
H298   H     0.08475   0.77620   0.02681   0.00000  Uiso   1.00
N299   N     0.38286   0.74450   0.15723   0.00000  Uiso   1.00
H300   H     0.35413   0.74379   0.13336   0.00000  Uiso   1.00
C301   C     0.37681   0.72536   0.21439   0.00000  Uiso   1.00
H302   H     0.40909   0.72339   0.23704   0.00000  Uiso   1.00
H303   H     0.36235   0.68816   0.21203   0.00000  Uiso   1.00
H304   H     0.35391   0.74896   0.23935   0.00000  Uiso   1.00
N305   N     0.11720   0.90598   0.22829   0.00000  Uiso   1.00
H306   H     0.14691   0.91757   0.21133   0.00000  Uiso   1.00
C307   C     0.11891   0.89611   0.28914   0.00000  Uiso   1.00
H308   H     0.13348   0.92806   0.31180   0.00000  Uiso   1.00
H309   H     0.13978   0.86361   0.29764   0.00000  Uiso   1.00
H310   H     0.08510   0.88970   0.30644   0.00000  Uiso   1.00
O311   O     0.75000   0.76280   0.21425   0.00000  Uiso   1.00
O312   O     0.75000   0.90387   0.11908   0.00000  Uiso   1.00
O313   O     0.75000   0.90387   0.21425   0.00000  Uiso   1.00
O314   O     0.75000   0.76280   0.11908   0.00000  Uiso   1.00
C315   C     0.75011   0.73999   0.16661   0.00000  Uiso   1.00
C316   C     0.75011   0.92667   0.16672   0.00000  Uiso   1.00
O317   O     0.68513   0.83333   0.21427   0.00000  Uiso   1.00
O318   O     0.81487   0.83333   0.11907   0.00000  Uiso   1.00
O319   O     0.81487   0.83333   0.21427   0.00000  Uiso   1.00
O320   O     0.68513   0.83333   0.11907   0.00000  Uiso   1.00
C321   C     0.66424   0.83335   0.16667   0.00000  Uiso   1.00
C322   C     0.83554   0.83332   0.16667   0.00000  Uiso   1.00
Cu323  Cu    0.75000   0.83333   0.22303   0.00000  Uiso   1.00
Cu324  Cu    0.75000   0.83333   0.11031   0.00000  Uiso   1.00
N325   N     0.75000   0.83333   0.02561   0.00000  Uiso   1.00
N326   N     0.75000   0.83333   0.30773   0.00000  Uiso   1.00
C327   C     0.90620   0.87682   0.17766   0.00000  Uiso   1.00
C328   C     0.59303   0.79566   0.13819   0.00000  Uiso   1.00
C329   C     0.90622   0.78978   0.15574   0.00000  Uiso   1.00
C330   C     0.59303   0.87101   0.19527   0.00000  Uiso   1.00
C331   C     0.88348   0.83331   0.16667   0.00000  Uiso   1.00
C332   C     0.61589   0.83335   0.16670   0.00000  Uiso   1.00
C333   C     0.95261   0.79105   0.14853   0.00000  Uiso   1.00
C334   C     0.54633   0.87383   0.19076   0.00000  Uiso   1.00
C335   C     0.95258   0.87552   0.18499   0.00000  Uiso   1.00
C336   C     0.54636   0.79278   0.14281   0.00000  Uiso   1.00
C337   C     0.97614   0.83329   0.16677   0.00000  Uiso   1.00
C338   C     0.52300   0.83330   0.16679   0.00000  Uiso   1.00
C339   C     0.97592   0.75138   0.12420   0.00000  Uiso   1.00
C340   C     0.52213   0.91536   0.21032   0.00000  Uiso   1.00
C341   C     0.97584   0.91516   0.20943   0.00000  Uiso   1.00
C342   C     0.52221   0.75121   0.12334   0.00000  Uiso   1.00
C343   C     0.75021   0.68844   0.16659   0.00000  Uiso   1.00
C344   C     0.75021   0.97823   0.16674   0.00000  Uiso   1.00
Cl345  Cl    0.94821   0.70416   0.08619   0.00000  Uiso   1.00
Cl346  Cl    0.54759   0.97107   0.23208   0.00000  Uiso   1.00
Cl347  Cl    0.94805   0.96229   0.24752   0.00000  Uiso   1.00
Cl348  Cl    0.54776   0.69549   0.10178   0.00000  Uiso   1.00
N349   N     0.88285   0.92211   0.17612   0.00000  Uiso   1.00
H350   H     0.85411   0.92285   0.19996   0.00000  Uiso   1.00
C351   C     0.87683   0.94122   0.11894   0.00000  Uiso   1.00
H352   H     0.86240   0.97845   0.12126   0.00000  Uiso   1.00
H353   H     0.85393   0.91764   0.09399   0.00000  Uiso   1.00
H354   H     0.90912   0.94313   0.09630   0.00000  Uiso   1.00
N355   N     0.61719   0.76083   0.10493   0.00000  Uiso   1.00
H356   H     0.64699   0.74930   0.12170   0.00000  Uiso   1.00
C357   C     0.61870   0.77093   0.04413   0.00000  Uiso   1.00
H358   H     0.63421   0.73962   0.02136   0.00000  Uiso   1.00
H359   H     0.63857   0.80418   0.03582   0.00000  Uiso   1.00
H360   H     0.58475   0.77620   0.02681   0.00000  Uiso   1.00
N361   N     0.88286   0.74450   0.15723   0.00000  Uiso   1.00
H362   H     0.85413   0.74379   0.13336   0.00000  Uiso   1.00
C363   C     0.87681   0.72536   0.21439   0.00000  Uiso   1.00
H364   H     0.90909   0.72339   0.23704   0.00000  Uiso   1.00
H365   H     0.86235   0.68816   0.21203   0.00000  Uiso   1.00
H366   H     0.85391   0.74896   0.23935   0.00000  Uiso   1.00
N367   N     0.61720   0.90598   0.22829   0.00000  Uiso   1.00
H368   H     0.64691   0.91757   0.21133   0.00000  Uiso   1.00
C369   C     0.61891   0.89611   0.28914   0.00000  Uiso   1.00
H370   H     0.63348   0.92806   0.31180   0.00000  Uiso   1.00
H371   H     0.63978   0.86361   0.29764   0.00000  Uiso   1.00
H372   H     0.58510   0.88970   0.30644   0.00000  Uiso   1.00
O373   O     0.25000   0.09613   0.54759   0.00000  Uiso   1.00
O374   O     0.25000   0.23720   0.45241   0.00000  Uiso   1.00
O375   O     0.25000   0.23720   0.54759   0.00000  Uiso   1.00
O376   O     0.25000   0.09613   0.45241   0.00000  Uiso   1.00
C377   C     0.25011   0.07333   0.49994   0.00000  Uiso   1.00
C378   C     0.25011   0.26001   0.50006   0.00000  Uiso   1.00
O379   O     0.18513   0.16667   0.54760   0.00000  Uiso   1.00
O380   O     0.31487   0.16667   0.45240   0.00000  Uiso   1.00
O381   O     0.31487   0.16667   0.54760   0.00000  Uiso   1.00
O382   O     0.18513   0.16667   0.45240   0.00000  Uiso   1.00
C383   C     0.16424   0.16669   0.50000   0.00000  Uiso   1.00
C384   C     0.33554   0.16665   0.50000   0.00000  Uiso   1.00
Cu385  Cu    0.25000   0.16667   0.55636   0.00000  Uiso   1.00
Cu386  Cu    0.25000   0.16667   0.44364   0.00000  Uiso   1.00
N387   N     0.25000   0.16667   0.35894   0.00000  Uiso   1.00
N388   N     0.25000   0.16667   0.64106   0.00000  Uiso   1.00
C389   C     0.40620   0.21015   0.51100   0.00000  Uiso   1.00
C390   C     0.09303   0.12899   0.47152   0.00000  Uiso   1.00
C391   C     0.40622   0.12311   0.48908   0.00000  Uiso   1.00
C392   C     0.09303   0.20435   0.52860   0.00000  Uiso   1.00
C393   C     0.38348   0.16664   0.50001   0.00000  Uiso   1.00
C394   C     0.11589   0.16668   0.50003   0.00000  Uiso   1.00
C395   C     0.45261   0.12438   0.48186   0.00000  Uiso   1.00
C396   C     0.04633   0.20717   0.52409   0.00000  Uiso   1.00
C397   C     0.45258   0.20886   0.51833   0.00000  Uiso   1.00
C398   C     0.04636   0.12612   0.47615   0.00000  Uiso   1.00
C399   C     0.47614   0.16662   0.50011   0.00000  Uiso   1.00
C400   C     0.02300   0.16663   0.50012   0.00000  Uiso   1.00
C401   C     0.47592   0.08471   0.45753   0.00000  Uiso   1.00
C402   C     0.02213   0.24870   0.54365   0.00000  Uiso   1.00
C403   C     0.47584   0.24850   0.54276   0.00000  Uiso   1.00
C404   C     0.02221   0.08454   0.45667   0.00000  Uiso   1.00
C405   C     0.25021   0.02177   0.49992   0.00000  Uiso   1.00
C406   C     0.25021   0.31156   0.50008   0.00000  Uiso   1.00
Cl407  Cl    0.44821   0.03749   0.41952   0.00000  Uiso   1.00
Cl408  Cl    0.04759   0.30440   0.56541   0.00000  Uiso   1.00
Cl409  Cl    0.44805   0.29563   0.58086   0.00000  Uiso   1.00
Cl410  Cl    0.04776   0.02882   0.43511   0.00000  Uiso   1.00
N411   N     0.38285   0.25544   0.50946   0.00000  Uiso   1.00
H412   H     0.35411   0.25619   0.53330   0.00000  Uiso   1.00
C413   C     0.37683   0.27456   0.45228   0.00000  Uiso   1.00
H414   H     0.36240   0.31178   0.45460   0.00000  Uiso   1.00
H415   H     0.35393   0.25097   0.42733   0.00000  Uiso   1.00
H416   H     0.40912   0.27646   0.42964   0.00000  Uiso   1.00
N417   N     0.11719   0.09416   0.43826   0.00000  Uiso   1.00
H418   H     0.14699   0.08264   0.45503   0.00000  Uiso   1.00
C419   C     0.11870   0.10426   0.37746   0.00000  Uiso   1.00
H420   H     0.13421   0.07295   0.35469   0.00000  Uiso   1.00
H421   H     0.13857   0.13751   0.36916   0.00000  Uiso   1.00
H422   H     0.08475   0.10953   0.36014   0.00000  Uiso   1.00
N423   N     0.38286   0.07784   0.49056   0.00000  Uiso   1.00
H424   H     0.35413   0.07712   0.46669   0.00000  Uiso   1.00
C425   C     0.37681   0.05869   0.54772   0.00000  Uiso   1.00
H426   H     0.40909   0.05673   0.57037   0.00000  Uiso   1.00
H427   H     0.36235   0.02149   0.54536   0.00000  Uiso   1.00
H428   H     0.35391   0.08229   0.57268   0.00000  Uiso   1.00
N429   N     0.11720   0.23931   0.56163   0.00000  Uiso   1.00
H430   H     0.14691   0.25090   0.54466   0.00000  Uiso   1.00
C431   C     0.11891   0.22945   0.62247   0.00000  Uiso   1.00
H432   H     0.13348   0.26139   0.64513   0.00000  Uiso   1.00
H433   H     0.13978   0.19695   0.63097   0.00000  Uiso   1.00
H434   H     0.08510   0.22304   0.63978   0.00000  Uiso   1.00
O435   O     0.75000   0.09613   0.54759   0.00000  Uiso   1.00
O436   O     0.75000   0.23720   0.45241   0.00000  Uiso   1.00
O437   O     0.75000   0.23720   0.54759   0.00000  Uiso   1.00
O438   O     0.75000   0.09613   0.45241   0.00000  Uiso   1.00
C439   C     0.75011   0.07333   0.49994   0.00000  Uiso   1.00
C440   C     0.75011   0.26001   0.50006   0.00000  Uiso   1.00
O441   O     0.68513   0.16667   0.54760   0.00000  Uiso   1.00
O442   O     0.81487   0.16667   0.45240   0.00000  Uiso   1.00
O443   O     0.81487   0.16667   0.54760   0.00000  Uiso   1.00
O444   O     0.68513   0.16667   0.45240   0.00000  Uiso   1.00
C445   C     0.66424   0.16669   0.50000   0.00000  Uiso   1.00
C446   C     0.83554   0.16665   0.50000   0.00000  Uiso   1.00
Cu447  Cu    0.75000   0.16667   0.55636   0.00000  Uiso   1.00
Cu448  Cu    0.75000   0.16667   0.44364   0.00000  Uiso   1.00
N449   N     0.75000   0.16667   0.35894   0.00000  Uiso   1.00
N450   N     0.75000   0.16667   0.64106   0.00000  Uiso   1.00
C451   C     0.90620   0.21015   0.51100   0.00000  Uiso   1.00
C452   C     0.59303   0.12899   0.47152   0.00000  Uiso   1.00
C453   C     0.90622   0.12311   0.48908   0.00000  Uiso   1.00
C454   C     0.59303   0.20435   0.52860   0.00000  Uiso   1.00
C455   C     0.88348   0.16664   0.50001   0.00000  Uiso   1.00
C456   C     0.61589   0.16668   0.50003   0.00000  Uiso   1.00
C457   C     0.95261   0.12438   0.48186   0.00000  Uiso   1.00
C458   C     0.54633   0.20717   0.52409   0.00000  Uiso   1.00
C459   C     0.95258   0.20886   0.51833   0.00000  Uiso   1.00
C460   C     0.54636   0.12612   0.47615   0.00000  Uiso   1.00
C461   C     0.97614   0.16662   0.50011   0.00000  Uiso   1.00
C462   C     0.52300   0.16663   0.50012   0.00000  Uiso   1.00
C463   C     0.97592   0.08471   0.45753   0.00000  Uiso   1.00
C464   C     0.52213   0.24870   0.54365   0.00000  Uiso   1.00
C465   C     0.97584   0.24850   0.54276   0.00000  Uiso   1.00
C466   C     0.52221   0.08454   0.45667   0.00000  Uiso   1.00
C467   C     0.75021   0.02177   0.49992   0.00000  Uiso   1.00
C468   C     0.75021   0.31156   0.50008   0.00000  Uiso   1.00
Cl469  Cl    0.94821   0.03749   0.41952   0.00000  Uiso   1.00
Cl470  Cl    0.54759   0.30440   0.56541   0.00000  Uiso   1.00
Cl471  Cl    0.94805   0.29563   0.58086   0.00000  Uiso   1.00
Cl472  Cl    0.54776   0.02882   0.43511   0.00000  Uiso   1.00
N473   N     0.88285   0.25544   0.50946   0.00000  Uiso   1.00
H474   H     0.85411   0.25619   0.53330   0.00000  Uiso   1.00
C475   C     0.87683   0.27456   0.45228   0.00000  Uiso   1.00
H476   H     0.86240   0.31178   0.45460   0.00000  Uiso   1.00
H477   H     0.85393   0.25097   0.42733   0.00000  Uiso   1.00
H478   H     0.90912   0.27646   0.42964   0.00000  Uiso   1.00
N479   N     0.61719   0.09416   0.43826   0.00000  Uiso   1.00
H480   H     0.64699   0.08264   0.45503   0.00000  Uiso   1.00
C481   C     0.61870   0.10426   0.37746   0.00000  Uiso   1.00
H482   H     0.63421   0.07295   0.35469   0.00000  Uiso   1.00
H483   H     0.63857   0.13751   0.36916   0.00000  Uiso   1.00
H484   H     0.58475   0.10953   0.36014   0.00000  Uiso   1.00
N485   N     0.88286   0.07784   0.49056   0.00000  Uiso   1.00
H486   H     0.85413   0.07712   0.46669   0.00000  Uiso   1.00
C487   C     0.87681   0.05869   0.54772   0.00000  Uiso   1.00
H488   H     0.90909   0.05673   0.57037   0.00000  Uiso   1.00
H489   H     0.86235   0.02149   0.54536   0.00000  Uiso   1.00
H490   H     0.85391   0.08229   0.57268   0.00000  Uiso   1.00
N491   N     0.61720   0.23931   0.56163   0.00000  Uiso   1.00
H492   H     0.64691   0.25090   0.54466   0.00000  Uiso   1.00
C493   C     0.61891   0.22945   0.62247   0.00000  Uiso   1.00
H494   H     0.63348   0.26139   0.64513   0.00000  Uiso   1.00
H495   H     0.63978   0.19695   0.63097   0.00000  Uiso   1.00
H496   H     0.58510   0.22304   0.63978   0.00000  Uiso   1.00
O497   O     0.25000   0.42946   0.54759   0.00000  Uiso   1.00
O498   O     0.25000   0.57054   0.45241   0.00000  Uiso   1.00
O499   O     0.25000   0.57054   0.54759   0.00000  Uiso   1.00
O500   O     0.25000   0.42946   0.45241   0.00000  Uiso   1.00
C501   C     0.25011   0.40666   0.49994   0.00000  Uiso   1.00
C502   C     0.25011   0.59334   0.50006   0.00000  Uiso   1.00
O503   O     0.18513   0.50000   0.54760   0.00000  Uiso   1.00
O504   O     0.31487   0.50000   0.45240   0.00000  Uiso   1.00
O505   O     0.31487   0.50000   0.54760   0.00000  Uiso   1.00
O506   O     0.18513   0.50000   0.45240   0.00000  Uiso   1.00
C507   C     0.16424   0.50002   0.50000   0.00000  Uiso   1.00
C508   C     0.33554   0.49998   0.50000   0.00000  Uiso   1.00
Cu509  Cu    0.25000   0.50000   0.55636   0.00000  Uiso   1.00
Cu510  Cu    0.25000   0.50000   0.44364   0.00000  Uiso   1.00
N511   N     0.25000   0.50000   0.35894   0.00000  Uiso   1.00
N512   N     0.25000   0.50000   0.64106   0.00000  Uiso   1.00
C513   C     0.40620   0.54349   0.51100   0.00000  Uiso   1.00
C514   C     0.09303   0.46232   0.47152   0.00000  Uiso   1.00
C515   C     0.40622   0.45644   0.48908   0.00000  Uiso   1.00
C516   C     0.09303   0.53768   0.52860   0.00000  Uiso   1.00
C517   C     0.38348   0.49997   0.50001   0.00000  Uiso   1.00
C518   C     0.11589   0.50001   0.50003   0.00000  Uiso   1.00
C519   C     0.45261   0.45771   0.48186   0.00000  Uiso   1.00
C520   C     0.04633   0.54050   0.52409   0.00000  Uiso   1.00
C521   C     0.45258   0.54219   0.51833   0.00000  Uiso   1.00
C522   C     0.04636   0.45945   0.47615   0.00000  Uiso   1.00
C523   C     0.47614   0.49995   0.50011   0.00000  Uiso   1.00
C524   C     0.02300   0.49997   0.50012   0.00000  Uiso   1.00
C525   C     0.47592   0.41805   0.45753   0.00000  Uiso   1.00
C526   C     0.02213   0.58203   0.54365   0.00000  Uiso   1.00
C527   C     0.47584   0.58183   0.54276   0.00000  Uiso   1.00
C528   C     0.02221   0.41787   0.45667   0.00000  Uiso   1.00
C529   C     0.25021   0.35511   0.49992   0.00000  Uiso   1.00
C530   C     0.25021   0.64489   0.50008   0.00000  Uiso   1.00
Cl531  Cl    0.44821   0.37083   0.41952   0.00000  Uiso   1.00
Cl532  Cl    0.04759   0.63773   0.56541   0.00000  Uiso   1.00
Cl533  Cl    0.44805   0.62896   0.58086   0.00000  Uiso   1.00
Cl534  Cl    0.04776   0.36215   0.43511   0.00000  Uiso   1.00
N535   N     0.38285   0.58878   0.50946   0.00000  Uiso   1.00
H536   H     0.35411   0.58952   0.53330   0.00000  Uiso   1.00
C537   C     0.37683   0.60789   0.45228   0.00000  Uiso   1.00
H538   H     0.36240   0.64511   0.45460   0.00000  Uiso   1.00
H539   H     0.35393   0.58431   0.42733   0.00000  Uiso   1.00
H540   H     0.40912   0.60979   0.42964   0.00000  Uiso   1.00
N541   N     0.11719   0.42750   0.43826   0.00000  Uiso   1.00
H542   H     0.14699   0.41597   0.45503   0.00000  Uiso   1.00
C543   C     0.11870   0.43759   0.37746   0.00000  Uiso   1.00
H544   H     0.13421   0.40628   0.35469   0.00000  Uiso   1.00
H545   H     0.13857   0.47084   0.36916   0.00000  Uiso   1.00
H546   H     0.08475   0.44287   0.36014   0.00000  Uiso   1.00
N547   N     0.38286   0.41117   0.49056   0.00000  Uiso   1.00
H548   H     0.35413   0.41045   0.46669   0.00000  Uiso   1.00
C549   C     0.37681   0.39203   0.54772   0.00000  Uiso   1.00
H550   H     0.40909   0.39006   0.57037   0.00000  Uiso   1.00
H551   H     0.36235   0.35483   0.54536   0.00000  Uiso   1.00
H552   H     0.35391   0.41563   0.57268   0.00000  Uiso   1.00
N553   N     0.11720   0.57264   0.56163   0.00000  Uiso   1.00
H554   H     0.14691   0.58424   0.54466   0.00000  Uiso   1.00
C555   C     0.11891   0.56278   0.62247   0.00000  Uiso   1.00
H556   H     0.13348   0.59472   0.64513   0.00000  Uiso   1.00
H557   H     0.13978   0.53028   0.63097   0.00000  Uiso   1.00
H558   H     0.08510   0.55637   0.63978   0.00000  Uiso   1.00
O559   O     0.75000   0.42946   0.54759   0.00000  Uiso   1.00
O560   O     0.75000   0.57054   0.45241   0.00000  Uiso   1.00
O561   O     0.75000   0.57054   0.54759   0.00000  Uiso   1.00
O562   O     0.75000   0.42946   0.45241   0.00000  Uiso   1.00
C563   C     0.75011   0.40666   0.49994   0.00000  Uiso   1.00
C564   C     0.75011   0.59334   0.50006   0.00000  Uiso   1.00
O565   O     0.68513   0.50000   0.54760   0.00000  Uiso   1.00
O566   O     0.81487   0.50000   0.45240   0.00000  Uiso   1.00
O567   O     0.81487   0.50000   0.54760   0.00000  Uiso   1.00
O568   O     0.68513   0.50000   0.45240   0.00000  Uiso   1.00
C569   C     0.66424   0.50002   0.50000   0.00000  Uiso   1.00
C570   C     0.83554   0.49998   0.50000   0.00000  Uiso   1.00
Cu571  Cu    0.75000   0.50000   0.55636   0.00000  Uiso   1.00
Cu572  Cu    0.75000   0.50000   0.44364   0.00000  Uiso   1.00
N573   N     0.75000   0.50000   0.35894   0.00000  Uiso   1.00
N574   N     0.75000   0.50000   0.64106   0.00000  Uiso   1.00
C575   C     0.90620   0.54349   0.51100   0.00000  Uiso   1.00
C576   C     0.59303   0.46232   0.47152   0.00000  Uiso   1.00
C577   C     0.90622   0.45644   0.48908   0.00000  Uiso   1.00
C578   C     0.59303   0.53768   0.52860   0.00000  Uiso   1.00
C579   C     0.88348   0.49997   0.50001   0.00000  Uiso   1.00
C580   C     0.61589   0.50001   0.50003   0.00000  Uiso   1.00
C581   C     0.95261   0.45771   0.48186   0.00000  Uiso   1.00
C582   C     0.54633   0.54050   0.52409   0.00000  Uiso   1.00
C583   C     0.95258   0.54219   0.51833   0.00000  Uiso   1.00
C584   C     0.54636   0.45945   0.47615   0.00000  Uiso   1.00
C585   C     0.97614   0.49995   0.50011   0.00000  Uiso   1.00
C586   C     0.52300   0.49997   0.50012   0.00000  Uiso   1.00
C587   C     0.97592   0.41805   0.45753   0.00000  Uiso   1.00
C588   C     0.52213   0.58203   0.54365   0.00000  Uiso   1.00
C589   C     0.97584   0.58183   0.54276   0.00000  Uiso   1.00
C590   C     0.52221   0.41787   0.45667   0.00000  Uiso   1.00
C591   C     0.75021   0.35511   0.49992   0.00000  Uiso   1.00
C592   C     0.75021   0.64489   0.50008   0.00000  Uiso   1.00
Cl593  Cl    0.94821   0.37083   0.41952   0.00000  Uiso   1.00
Cl594  Cl    0.54759   0.63773   0.56541   0.00000  Uiso   1.00
Cl595  Cl    0.94805   0.62896   0.58086   0.00000  Uiso   1.00
Cl596  Cl    0.54776   0.36215   0.43511   0.00000  Uiso   1.00
N597   N     0.88285   0.58878   0.50946   0.00000  Uiso   1.00
H598   H     0.85411   0.58952   0.53330   0.00000  Uiso   1.00
C599   C     0.87683   0.60789   0.45228   0.00000  Uiso   1.00
H600   H     0.86240   0.64511   0.45460   0.00000  Uiso   1.00
H601   H     0.85393   0.58431   0.42733   0.00000  Uiso   1.00
H602   H     0.90912   0.60979   0.42964   0.00000  Uiso   1.00
N603   N     0.61719   0.42750   0.43826   0.00000  Uiso   1.00
H604   H     0.64699   0.41597   0.45503   0.00000  Uiso   1.00
C605   C     0.61870   0.43759   0.37746   0.00000  Uiso   1.00
H606   H     0.63421   0.40628   0.35469   0.00000  Uiso   1.00
H607   H     0.63857   0.47084   0.36916   0.00000  Uiso   1.00
H608   H     0.58475   0.44287   0.36014   0.00000  Uiso   1.00
N609   N     0.88286   0.41117   0.49056   0.00000  Uiso   1.00
H610   H     0.85413   0.41045   0.46669   0.00000  Uiso   1.00
C611   C     0.87681   0.39203   0.54772   0.00000  Uiso   1.00
H612   H     0.90909   0.39006   0.57037   0.00000  Uiso   1.00
H613   H     0.86235   0.35483   0.54536   0.00000  Uiso   1.00
H614   H     0.85391   0.41563   0.57268   0.00000  Uiso   1.00
N615   N     0.61720   0.57264   0.56163   0.00000  Uiso   1.00
H616   H     0.64691   0.58424   0.54466   0.00000  Uiso   1.00
C617   C     0.61891   0.56278   0.62247   0.00000  Uiso   1.00
H618   H     0.63348   0.59472   0.64513   0.00000  Uiso   1.00
H619   H     0.63978   0.53028   0.63097   0.00000  Uiso   1.00
H620   H     0.58510   0.55637   0.63978   0.00000  Uiso   1.00
O621   O     0.25000   0.76280   0.54759   0.00000  Uiso   1.00
O622   O     0.25000   0.90387   0.45241   0.00000  Uiso   1.00
O623   O     0.25000   0.90387   0.54759   0.00000  Uiso   1.00
O624   O     0.25000   0.76280   0.45241   0.00000  Uiso   1.00
C625   C     0.25011   0.73999   0.49994   0.00000  Uiso   1.00
C626   C     0.25011   0.92667   0.50006   0.00000  Uiso   1.00
O627   O     0.18513   0.83333   0.54760   0.00000  Uiso   1.00
O628   O     0.31487   0.83333   0.45240   0.00000  Uiso   1.00
O629   O     0.31487   0.83333   0.54760   0.00000  Uiso   1.00
O630   O     0.18513   0.83333   0.45240   0.00000  Uiso   1.00
C631   C     0.16424   0.83335   0.50000   0.00000  Uiso   1.00
C632   C     0.33554   0.83332   0.50000   0.00000  Uiso   1.00
Cu633  Cu    0.25000   0.83333   0.55636   0.00000  Uiso   1.00
Cu634  Cu    0.25000   0.83333   0.44364   0.00000  Uiso   1.00
N635   N     0.25000   0.83333   0.35894   0.00000  Uiso   1.00
N636   N     0.25000   0.83333   0.64106   0.00000  Uiso   1.00
C637   C     0.40620   0.87682   0.51100   0.00000  Uiso   1.00
C638   C     0.09303   0.79566   0.47152   0.00000  Uiso   1.00
C639   C     0.40622   0.78978   0.48908   0.00000  Uiso   1.00
C640   C     0.09303   0.87101   0.52860   0.00000  Uiso   1.00
C641   C     0.38348   0.83331   0.50001   0.00000  Uiso   1.00
C642   C     0.11589   0.83335   0.50003   0.00000  Uiso   1.00
C643   C     0.45261   0.79105   0.48186   0.00000  Uiso   1.00
C644   C     0.04633   0.87383   0.52409   0.00000  Uiso   1.00
C645   C     0.45258   0.87552   0.51833   0.00000  Uiso   1.00
C646   C     0.04636   0.79278   0.47615   0.00000  Uiso   1.00
C647   C     0.47614   0.83329   0.50011   0.00000  Uiso   1.00
C648   C     0.02300   0.83330   0.50012   0.00000  Uiso   1.00
C649   C     0.47592   0.75138   0.45753   0.00000  Uiso   1.00
C650   C     0.02213   0.91536   0.54365   0.00000  Uiso   1.00
C651   C     0.47584   0.91516   0.54276   0.00000  Uiso   1.00
C652   C     0.02221   0.75121   0.45667   0.00000  Uiso   1.00
C653   C     0.25021   0.68844   0.49992   0.00000  Uiso   1.00
C654   C     0.25021   0.97823   0.50008   0.00000  Uiso   1.00
Cl655  Cl    0.44821   0.70416   0.41952   0.00000  Uiso   1.00
Cl656  Cl    0.04759   0.97107   0.56541   0.00000  Uiso   1.00
Cl657  Cl    0.44805   0.96229   0.58086   0.00000  Uiso   1.00
Cl658  Cl    0.04776   0.69549   0.43511   0.00000  Uiso   1.00
N659   N     0.38285   0.92211   0.50946   0.00000  Uiso   1.00
H660   H     0.35411   0.92285   0.53330   0.00000  Uiso   1.00
C661   C     0.37683   0.94122   0.45228   0.00000  Uiso   1.00
H662   H     0.36240   0.97845   0.45460   0.00000  Uiso   1.00
H663   H     0.35393   0.91764   0.42733   0.00000  Uiso   1.00
H664   H     0.40912   0.94313   0.42964   0.00000  Uiso   1.00
N665   N     0.11719   0.76083   0.43826   0.00000  Uiso   1.00
H666   H     0.14699   0.74930   0.45503   0.00000  Uiso   1.00
C667   C     0.11870   0.77093   0.37746   0.00000  Uiso   1.00
H668   H     0.13421   0.73962   0.35469   0.00000  Uiso   1.00
H669   H     0.13857   0.80418   0.36916   0.00000  Uiso   1.00
H670   H     0.08475   0.77620   0.36014   0.00000  Uiso   1.00
N671   N     0.38286   0.74450   0.49056   0.00000  Uiso   1.00
H672   H     0.35413   0.74379   0.46669   0.00000  Uiso   1.00
C673   C     0.37681   0.72536   0.54772   0.00000  Uiso   1.00
H674   H     0.40909   0.72339   0.57037   0.00000  Uiso   1.00
H675   H     0.36235   0.68816   0.54536   0.00000  Uiso   1.00
H676   H     0.35391   0.74896   0.57268   0.00000  Uiso   1.00
N677   N     0.11720   0.90598   0.56163   0.00000  Uiso   1.00
H678   H     0.14691   0.91757   0.54466   0.00000  Uiso   1.00
C679   C     0.11891   0.89611   0.62247   0.00000  Uiso   1.00
H680   H     0.13348   0.92806   0.64513   0.00000  Uiso   1.00
H681   H     0.13978   0.86361   0.63097   0.00000  Uiso   1.00
H682   H     0.08510   0.88970   0.63978   0.00000  Uiso   1.00
O683   O     0.75000   0.76280   0.54759   0.00000  Uiso   1.00
O684   O     0.75000   0.90387   0.45241   0.00000  Uiso   1.00
O685   O     0.75000   0.90387   0.54759   0.00000  Uiso   1.00
O686   O     0.75000   0.76280   0.45241   0.00000  Uiso   1.00
C687   C     0.75011   0.73999   0.49994   0.00000  Uiso   1.00
C688   C     0.75011   0.92667   0.50006   0.00000  Uiso   1.00
O689   O     0.68513   0.83333   0.54760   0.00000  Uiso   1.00
O690   O     0.81487   0.83333   0.45240   0.00000  Uiso   1.00
O691   O     0.81487   0.83333   0.54760   0.00000  Uiso   1.00
O692   O     0.68513   0.83333   0.45240   0.00000  Uiso   1.00
C693   C     0.66424   0.83335   0.50000   0.00000  Uiso   1.00
C694   C     0.83554   0.83332   0.50000   0.00000  Uiso   1.00
Cu695  Cu    0.75000   0.83333   0.55636   0.00000  Uiso   1.00
Cu696  Cu    0.75000   0.83333   0.44364   0.00000  Uiso   1.00
N697   N     0.75000   0.83333   0.35894   0.00000  Uiso   1.00
N698   N     0.75000   0.83333   0.64106   0.00000  Uiso   1.00
C699   C     0.90620   0.87682   0.51100   0.00000  Uiso   1.00
C700   C     0.59303   0.79566   0.47152   0.00000  Uiso   1.00
C701   C     0.90622   0.78978   0.48908   0.00000  Uiso   1.00
C702   C     0.59303   0.87101   0.52860   0.00000  Uiso   1.00
C703   C     0.88348   0.83331   0.50001   0.00000  Uiso   1.00
C704   C     0.61589   0.83335   0.50003   0.00000  Uiso   1.00
C705   C     0.95261   0.79105   0.48186   0.00000  Uiso   1.00
C706   C     0.54633   0.87383   0.52409   0.00000  Uiso   1.00
C707   C     0.95258   0.87552   0.51833   0.00000  Uiso   1.00
C708   C     0.54636   0.79278   0.47615   0.00000  Uiso   1.00
C709   C     0.97614   0.83329   0.50011   0.00000  Uiso   1.00
C710   C     0.52300   0.83330   0.50012   0.00000  Uiso   1.00
C711   C     0.97592   0.75138   0.45753   0.00000  Uiso   1.00
C712   C     0.52213   0.91536   0.54365   0.00000  Uiso   1.00
C713   C     0.97584   0.91516   0.54276   0.00000  Uiso   1.00
C714   C     0.52221   0.75121   0.45667   0.00000  Uiso   1.00
C715   C     0.75021   0.68844   0.49992   0.00000  Uiso   1.00
C716   C     0.75021   0.97823   0.50008   0.00000  Uiso   1.00
Cl717  Cl    0.94821   0.70416   0.41952   0.00000  Uiso   1.00
Cl718  Cl    0.54759   0.97107   0.56541   0.00000  Uiso   1.00
Cl719  Cl    0.94805   0.96229   0.58086   0.00000  Uiso   1.00
Cl720  Cl    0.54776   0.69549   0.43511   0.00000  Uiso   1.00
N721   N     0.88285   0.92211   0.50946   0.00000  Uiso   1.00
H722   H     0.85411   0.92285   0.53330   0.00000  Uiso   1.00
C723   C     0.87683   0.94122   0.45228   0.00000  Uiso   1.00
H724   H     0.86240   0.97845   0.45460   0.00000  Uiso   1.00
H725   H     0.85393   0.91764   0.42733   0.00000  Uiso   1.00
H726   H     0.90912   0.94313   0.42964   0.00000  Uiso   1.00
N727   N     0.61719   0.76083   0.43826   0.00000  Uiso   1.00
H728   H     0.64699   0.74930   0.45503   0.00000  Uiso   1.00
C729   C     0.61870   0.77093   0.37746   0.00000  Uiso   1.00
H730   H     0.63421   0.73962   0.35469   0.00000  Uiso   1.00
H731   H     0.63857   0.80418   0.36916   0.00000  Uiso   1.00
H732   H     0.58475   0.77620   0.36014   0.00000  Uiso   1.00
N733   N     0.88286   0.74450   0.49056   0.00000  Uiso   1.00
H734   H     0.85413   0.74379   0.46669   0.00000  Uiso   1.00
C735   C     0.87681   0.72536   0.54772   0.00000  Uiso   1.00
H736   H     0.90909   0.72339   0.57037   0.00000  Uiso   1.00
H737   H     0.86235   0.68816   0.54536   0.00000  Uiso   1.00
H738   H     0.85391   0.74896   0.57268   0.00000  Uiso   1.00
N739   N     0.61720   0.90598   0.56163   0.00000  Uiso   1.00
H740   H     0.64691   0.91757   0.54466   0.00000  Uiso   1.00
C741   C     0.61891   0.89611   0.62247   0.00000  Uiso   1.00
H742   H     0.63348   0.92806   0.64513   0.00000  Uiso   1.00
H743   H     0.63978   0.86361   0.63097   0.00000  Uiso   1.00
H744   H     0.58510   0.88970   0.63978   0.00000  Uiso   1.00
O745   O     0.25000   0.09613   0.88092   0.00000  Uiso   1.00
O746   O     0.25000   0.23720   0.78575   0.00000  Uiso   1.00
O747   O     0.25000   0.23720   0.88092   0.00000  Uiso   1.00
O748   O     0.25000   0.09613   0.78575   0.00000  Uiso   1.00
C749   C     0.25011   0.07333   0.83328   0.00000  Uiso   1.00
C750   C     0.25011   0.26001   0.83339   0.00000  Uiso   1.00
O751   O     0.18513   0.16667   0.88093   0.00000  Uiso   1.00
O752   O     0.31487   0.16667   0.78573   0.00000  Uiso   1.00
O753   O     0.31487   0.16667   0.88093   0.00000  Uiso   1.00
O754   O     0.18513   0.16667   0.78573   0.00000  Uiso   1.00
C755   C     0.16424   0.16669   0.83334   0.00000  Uiso   1.00
C756   C     0.33554   0.16665   0.83333   0.00000  Uiso   1.00
Cu757  Cu    0.25000   0.16667   0.88969   0.00000  Uiso   1.00
Cu758  Cu    0.25000   0.16667   0.77697   0.00000  Uiso   1.00
N759   N     0.25000   0.16667   0.69227   0.00000  Uiso   1.00
N760   N     0.25000   0.16667   0.97439   0.00000  Uiso   1.00
C761   C     0.40620   0.21015   0.84433   0.00000  Uiso   1.00
C762   C     0.09303   0.12899   0.80485   0.00000  Uiso   1.00
C763   C     0.40622   0.12311   0.82241   0.00000  Uiso   1.00
C764   C     0.09303   0.20435   0.86193   0.00000  Uiso   1.00
C765   C     0.38348   0.16664   0.83334   0.00000  Uiso   1.00
C766   C     0.11589   0.16668   0.83336   0.00000  Uiso   1.00
C767   C     0.45261   0.12438   0.81520   0.00000  Uiso   1.00
C768   C     0.04633   0.20717   0.85742   0.00000  Uiso   1.00
C769   C     0.45258   0.20886   0.85166   0.00000  Uiso   1.00
C770   C     0.04636   0.12612   0.80948   0.00000  Uiso   1.00
C771   C     0.47614   0.16662   0.83344   0.00000  Uiso   1.00
C772   C     0.02300   0.16663   0.83346   0.00000  Uiso   1.00
C773   C     0.47592   0.08471   0.79086   0.00000  Uiso   1.00
C774   C     0.02213   0.24870   0.87698   0.00000  Uiso   1.00
C775   C     0.47584   0.24850   0.87609   0.00000  Uiso   1.00
C776   C     0.02221   0.08454   0.79001   0.00000  Uiso   1.00
C777   C     0.25021   0.02177   0.83326   0.00000  Uiso   1.00
C778   C     0.25021   0.31156   0.83341   0.00000  Uiso   1.00
Cl779  Cl    0.44821   0.03749   0.75285   0.00000  Uiso   1.00
Cl780  Cl    0.04759   0.30440   0.89874   0.00000  Uiso   1.00
Cl781  Cl    0.44805   0.29563   0.91419   0.00000  Uiso   1.00
Cl782  Cl    0.04776   0.02882   0.76844   0.00000  Uiso   1.00
N783   N     0.38285   0.25544   0.84279   0.00000  Uiso   1.00
H784   H     0.35411   0.25619   0.86663   0.00000  Uiso   1.00
C785   C     0.37683   0.27456   0.78561   0.00000  Uiso   1.00
H786   H     0.36240   0.31178   0.78793   0.00000  Uiso   1.00
H787   H     0.35393   0.25097   0.76066   0.00000  Uiso   1.00
H788   H     0.40912   0.27646   0.76297   0.00000  Uiso   1.00
N789   N     0.11719   0.09416   0.77159   0.00000  Uiso   1.00
H790   H     0.14699   0.08264   0.78836   0.00000  Uiso   1.00
C791   C     0.11870   0.10426   0.71079   0.00000  Uiso   1.00
H792   H     0.13421   0.07295   0.68802   0.00000  Uiso   1.00
H793   H     0.13857   0.13751   0.70249   0.00000  Uiso   1.00
H794   H     0.08475   0.10953   0.69347   0.00000  Uiso   1.00
N795   N     0.38286   0.07784   0.82389   0.00000  Uiso   1.00
H796   H     0.35413   0.07712   0.80002   0.00000  Uiso   1.00
C797   C     0.37681   0.05869   0.88105   0.00000  Uiso   1.00
H798   H     0.40909   0.05673   0.90370   0.00000  Uiso   1.00
H799   H     0.36235   0.02149   0.87869   0.00000  Uiso   1.00
H800   H     0.35391   0.08229   0.90601   0.00000  Uiso   1.00
N801   N     0.11720   0.23931   0.89496   0.00000  Uiso   1.00
H802   H     0.14691   0.25090   0.87800   0.00000  Uiso   1.00
C803   C     0.11891   0.22945   0.95581   0.00000  Uiso   1.00
H804   H     0.13348   0.26139   0.97846   0.00000  Uiso   1.00
H805   H     0.13978   0.19695   0.96430   0.00000  Uiso   1.00
H806   H     0.08510   0.22304   0.97311   0.00000  Uiso   1.00
O807   O     0.75000   0.09613   0.88092   0.00000  Uiso   1.00
O808   O     0.75000   0.23720   0.78575   0.00000  Uiso   1.00
O809   O     0.75000   0.23720   0.88092   0.00000  Uiso   1.00
O810   O     0.75000   0.09613   0.78575   0.00000  Uiso   1.00
C811   C     0.75011   0.07333   0.83328   0.00000  Uiso   1.00
C812   C     0.75011   0.26001   0.83339   0.00000  Uiso   1.00
O813   O     0.68513   0.16667   0.88093   0.00000  Uiso   1.00
O814   O     0.81487   0.16667   0.78573   0.00000  Uiso   1.00
O815   O     0.81487   0.16667   0.88093   0.00000  Uiso   1.00
O816   O     0.68513   0.16667   0.78573   0.00000  Uiso   1.00
C817   C     0.66424   0.16669   0.83334   0.00000  Uiso   1.00
C818   C     0.83554   0.16665   0.83333   0.00000  Uiso   1.00
Cu819  Cu    0.75000   0.16667   0.88969   0.00000  Uiso   1.00
Cu820  Cu    0.75000   0.16667   0.77697   0.00000  Uiso   1.00
N821   N     0.75000   0.16667   0.69227   0.00000  Uiso   1.00
N822   N     0.75000   0.16667   0.97439   0.00000  Uiso   1.00
C823   C     0.90620   0.21015   0.84433   0.00000  Uiso   1.00
C824   C     0.59303   0.12899   0.80485   0.00000  Uiso   1.00
C825   C     0.90622   0.12311   0.82241   0.00000  Uiso   1.00
C826   C     0.59303   0.20435   0.86193   0.00000  Uiso   1.00
C827   C     0.88348   0.16664   0.83334   0.00000  Uiso   1.00
C828   C     0.61589   0.16668   0.83336   0.00000  Uiso   1.00
C829   C     0.95261   0.12438   0.81520   0.00000  Uiso   1.00
C830   C     0.54633   0.20717   0.85742   0.00000  Uiso   1.00
C831   C     0.95258   0.20886   0.85166   0.00000  Uiso   1.00
C832   C     0.54636   0.12612   0.80948   0.00000  Uiso   1.00
C833   C     0.97614   0.16662   0.83344   0.00000  Uiso   1.00
C834   C     0.52300   0.16663   0.83346   0.00000  Uiso   1.00
C835   C     0.97592   0.08471   0.79086   0.00000  Uiso   1.00
C836   C     0.52213   0.24870   0.87698   0.00000  Uiso   1.00
C837   C     0.97584   0.24850   0.87609   0.00000  Uiso   1.00
C838   C     0.52221   0.08454   0.79001   0.00000  Uiso   1.00
C839   C     0.75021   0.02177   0.83326   0.00000  Uiso   1.00
C840   C     0.75021   0.31156   0.83341   0.00000  Uiso   1.00
Cl841  Cl    0.94821   0.03749   0.75285   0.00000  Uiso   1.00
Cl842  Cl    0.54759   0.30440   0.89874   0.00000  Uiso   1.00
Cl843  Cl    0.94805   0.29563   0.91419   0.00000  Uiso   1.00
Cl844  Cl    0.54776   0.02882   0.76844   0.00000  Uiso   1.00
N845   N     0.88285   0.25544   0.84279   0.00000  Uiso   1.00
H846   H     0.85411   0.25619   0.86663   0.00000  Uiso   1.00
C847   C     0.87683   0.27456   0.78561   0.00000  Uiso   1.00
H848   H     0.86240   0.31178   0.78793   0.00000  Uiso   1.00
H849   H     0.85393   0.25097   0.76066   0.00000  Uiso   1.00
H850   H     0.90912   0.27646   0.76297   0.00000  Uiso   1.00
N851   N     0.61719   0.09416   0.77159   0.00000  Uiso   1.00
H852   H     0.64699   0.08264   0.78836   0.00000  Uiso   1.00
C853   C     0.61870   0.10426   0.71079   0.00000  Uiso   1.00
H854   H     0.63421   0.07295   0.68802   0.00000  Uiso   1.00
H855   H     0.63857   0.13751   0.70249   0.00000  Uiso   1.00
H856   H     0.58475   0.10953   0.69347   0.00000  Uiso   1.00
N857   N     0.88286   0.07784   0.82389   0.00000  Uiso   1.00
H858   H     0.85413   0.07712   0.80002   0.00000  Uiso   1.00
C859   C     0.87681   0.05869   0.88105   0.00000  Uiso   1.00
H860   H     0.90909   0.05673   0.90370   0.00000  Uiso   1.00
H861   H     0.86235   0.02149   0.87869   0.00000  Uiso   1.00
H862   H     0.85391   0.08229   0.90601   0.00000  Uiso   1.00
N863   N     0.61720   0.23931   0.89496   0.00000  Uiso   1.00
H864   H     0.64691   0.25090   0.87800   0.00000  Uiso   1.00
C865   C     0.61891   0.22945   0.95581   0.00000  Uiso   1.00
H866   H     0.63348   0.26139   0.97846   0.00000  Uiso   1.00
H867   H     0.63978   0.19695   0.96430   0.00000  Uiso   1.00
H868   H     0.58510   0.22304   0.97311   0.00000  Uiso   1.00
O869   O     0.25000   0.42946   0.88092   0.00000  Uiso   1.00
O870   O     0.25000   0.57054   0.78575   0.00000  Uiso   1.00
O871   O     0.25000   0.57054   0.88092   0.00000  Uiso   1.00
O872   O     0.25000   0.42946   0.78575   0.00000  Uiso   1.00
C873   C     0.25011   0.40666   0.83328   0.00000  Uiso   1.00
C874   C     0.25011   0.59334   0.83339   0.00000  Uiso   1.00
O875   O     0.18513   0.50000   0.88093   0.00000  Uiso   1.00
O876   O     0.31487   0.50000   0.78573   0.00000  Uiso   1.00
O877   O     0.31487   0.50000   0.88093   0.00000  Uiso   1.00
O878   O     0.18513   0.50000   0.78573   0.00000  Uiso   1.00
C879   C     0.16424   0.50002   0.83334   0.00000  Uiso   1.00
C880   C     0.33554   0.49998   0.83333   0.00000  Uiso   1.00
Cu881  Cu    0.25000   0.50000   0.88969   0.00000  Uiso   1.00
Cu882  Cu    0.25000   0.50000   0.77697   0.00000  Uiso   1.00
N883   N     0.25000   0.50000   0.69227   0.00000  Uiso   1.00
N884   N     0.25000   0.50000   0.97439   0.00000  Uiso   1.00
C885   C     0.40620   0.54349   0.84433   0.00000  Uiso   1.00
C886   C     0.09303   0.46232   0.80485   0.00000  Uiso   1.00
C887   C     0.40622   0.45644   0.82241   0.00000  Uiso   1.00
C888   C     0.09303   0.53768   0.86193   0.00000  Uiso   1.00
C889   C     0.38348   0.49997   0.83334   0.00000  Uiso   1.00
C890   C     0.11589   0.50001   0.83336   0.00000  Uiso   1.00
C891   C     0.45261   0.45771   0.81520   0.00000  Uiso   1.00
C892   C     0.04633   0.54050   0.85742   0.00000  Uiso   1.00
C893   C     0.45258   0.54219   0.85166   0.00000  Uiso   1.00
C894   C     0.04636   0.45945   0.80948   0.00000  Uiso   1.00
C895   C     0.47614   0.49995   0.83344   0.00000  Uiso   1.00
C896   C     0.02300   0.49997   0.83346   0.00000  Uiso   1.00
C897   C     0.47592   0.41805   0.79086   0.00000  Uiso   1.00
C898   C     0.02213   0.58203   0.87698   0.00000  Uiso   1.00
C899   C     0.47584   0.58183   0.87609   0.00000  Uiso   1.00
C900   C     0.02221   0.41787   0.79001   0.00000  Uiso   1.00
C901   C     0.25021   0.35511   0.83326   0.00000  Uiso   1.00
C902   C     0.25021   0.64489   0.83341   0.00000  Uiso   1.00
Cl903  Cl    0.44821   0.37083   0.75285   0.00000  Uiso   1.00
Cl904  Cl    0.04759   0.63773   0.89874   0.00000  Uiso   1.00
Cl905  Cl    0.44805   0.62896   0.91419   0.00000  Uiso   1.00
Cl906  Cl    0.04776   0.36215   0.76844   0.00000  Uiso   1.00
N907   N     0.38285   0.58878   0.84279   0.00000  Uiso   1.00
H908   H     0.35411   0.58952   0.86663   0.00000  Uiso   1.00
C909   C     0.37683   0.60789   0.78561   0.00000  Uiso   1.00
H910   H     0.36240   0.64511   0.78793   0.00000  Uiso   1.00
H911   H     0.35393   0.58431   0.76066   0.00000  Uiso   1.00
H912   H     0.40912   0.60979   0.76297   0.00000  Uiso   1.00
N913   N     0.11719   0.42750   0.77159   0.00000  Uiso   1.00
H914   H     0.14699   0.41597   0.78836   0.00000  Uiso   1.00
C915   C     0.11870   0.43759   0.71079   0.00000  Uiso   1.00
H916   H     0.13421   0.40628   0.68802   0.00000  Uiso   1.00
H917   H     0.13857   0.47084   0.70249   0.00000  Uiso   1.00
H918   H     0.08475   0.44287   0.69347   0.00000  Uiso   1.00
N919   N     0.38286   0.41117   0.82389   0.00000  Uiso   1.00
H920   H     0.35413   0.41045   0.80002   0.00000  Uiso   1.00
C921   C     0.37681   0.39203   0.88105   0.00000  Uiso   1.00
H922   H     0.40909   0.39006   0.90370   0.00000  Uiso   1.00
H923   H     0.36235   0.35483   0.87869   0.00000  Uiso   1.00
H924   H     0.35391   0.41563   0.90601   0.00000  Uiso   1.00
N925   N     0.11720   0.57264   0.89496   0.00000  Uiso   1.00
H926   H     0.14691   0.58424   0.87800   0.00000  Uiso   1.00
C927   C     0.11891   0.56278   0.95581   0.00000  Uiso   1.00
H928   H     0.13348   0.59472   0.97846   0.00000  Uiso   1.00
H929   H     0.13978   0.53028   0.96430   0.00000  Uiso   1.00
H930   H     0.08510   0.55637   0.97311   0.00000  Uiso   1.00
O931   O     0.75000   0.42946   0.88092   0.00000  Uiso   1.00
O932   O     0.75000   0.57054   0.78575   0.00000  Uiso   1.00
O933   O     0.75000   0.57054   0.88092   0.00000  Uiso   1.00
O934   O     0.75000   0.42946   0.78575   0.00000  Uiso   1.00
C935   C     0.75011   0.40666   0.83328   0.00000  Uiso   1.00
C936   C     0.75011   0.59334   0.83339   0.00000  Uiso   1.00
O937   O     0.68513   0.50000   0.88093   0.00000  Uiso   1.00
O938   O     0.81487   0.50000   0.78573   0.00000  Uiso   1.00
O939   O     0.81487   0.50000   0.88093   0.00000  Uiso   1.00
O940   O     0.68513   0.50000   0.78573   0.00000  Uiso   1.00
C941   C     0.66424   0.50002   0.83334   0.00000  Uiso   1.00
C942   C     0.83554   0.49998   0.83333   0.00000  Uiso   1.00
Cu943  Cu    0.75000   0.50000   0.88969   0.00000  Uiso   1.00
Cu944  Cu    0.75000   0.50000   0.77697   0.00000  Uiso   1.00
N945   N     0.75000   0.50000   0.69227   0.00000  Uiso   1.00
N946   N     0.75000   0.50000   0.97439   0.00000  Uiso   1.00
C947   C     0.90620   0.54349   0.84433   0.00000  Uiso   1.00
C948   C     0.59303   0.46232   0.80485   0.00000  Uiso   1.00
C949   C     0.90622   0.45644   0.82241   0.00000  Uiso   1.00
C950   C     0.59303   0.53768   0.86193   0.00000  Uiso   1.00
C951   C     0.88348   0.49997   0.83334   0.00000  Uiso   1.00
C952   C     0.61589   0.50001   0.83336   0.00000  Uiso   1.00
C953   C     0.95261   0.45771   0.81520   0.00000  Uiso   1.00
C954   C     0.54633   0.54050   0.85742   0.00000  Uiso   1.00
C955   C     0.95258   0.54219   0.85166   0.00000  Uiso   1.00
C956   C     0.54636   0.45945   0.80948   0.00000  Uiso   1.00
C957   C     0.97614   0.49995   0.83344   0.00000  Uiso   1.00
C958   C     0.52300   0.49997   0.83346   0.00000  Uiso   1.00
C959   C     0.97592   0.41805   0.79086   0.00000  Uiso   1.00
C960   C     0.52213   0.58203   0.87698   0.00000  Uiso   1.00
C961   C     0.97584   0.58183   0.87609   0.00000  Uiso   1.00
C962   C     0.52221   0.41787   0.79001   0.00000  Uiso   1.00
C963   C     0.75021   0.35511   0.83326   0.00000  Uiso   1.00
C964   C     0.75021   0.64489   0.83341   0.00000  Uiso   1.00
Cl965  Cl    0.94821   0.37083   0.75285   0.00000  Uiso   1.00
Cl966  Cl    0.54759   0.63773   0.89874   0.00000  Uiso   1.00
Cl967  Cl    0.94805   0.62896   0.91419   0.00000  Uiso   1.00
Cl968  Cl    0.54776   0.36215   0.76844   0.00000  Uiso   1.00
N969   N     0.88285   0.58878   0.84279   0.00000  Uiso   1.00
H970   H     0.85411   0.58952   0.86663   0.00000  Uiso   1.00
C971   C     0.87683   0.60789   0.78561   0.00000  Uiso   1.00
H972   H     0.86240   0.64511   0.78793   0.00000  Uiso   1.00
H973   H     0.85393   0.58431   0.76066   0.00000  Uiso   1.00
H974   H     0.90912   0.60979   0.76297   0.00000  Uiso   1.00
N975   N     0.61719   0.42750   0.77159   0.00000  Uiso   1.00
H976   H     0.64699   0.41597   0.78836   0.00000  Uiso   1.00
C977   C     0.61870   0.43759   0.71079   0.00000  Uiso   1.00
H978   H     0.63421   0.40628   0.68802   0.00000  Uiso   1.00
H979   H     0.63857   0.47084   0.70249   0.00000  Uiso   1.00
H980   H     0.58475   0.44287   0.69347   0.00000  Uiso   1.00
N981   N     0.88286   0.41117   0.82389   0.00000  Uiso   1.00
H982   H     0.85413   0.41045   0.80002   0.00000  Uiso   1.00
C983   C     0.87681   0.39203   0.88105   0.00000  Uiso   1.00
H984   H     0.90909   0.39006   0.90370   0.00000  Uiso   1.00
H985   H     0.86235   0.35483   0.87869   0.00000  Uiso   1.00
H986   H     0.85391   0.41563   0.90601   0.00000  Uiso   1.00
N987   N     0.61720   0.57264   0.89496   0.00000  Uiso   1.00
H988   H     0.64691   0.58424   0.87800   0.00000  Uiso   1.00
C989   C     0.61891   0.56278   0.95581   0.00000  Uiso   1.00
H990   H     0.63348   0.59472   0.97846   0.00000  Uiso   1.00
H991   H     0.63978   0.53028   0.96430   0.00000  Uiso   1.00
H992   H     0.58510   0.55637   0.97311   0.00000  Uiso   1.00
O993   O     0.25000   0.76280   0.88092   0.00000  Uiso   1.00
O994   O     0.25000   0.90387   0.78575   0.00000  Uiso   1.00
O995   O     0.25000   0.90387   0.88092   0.00000  Uiso   1.00
O996   O     0.25000   0.76280   0.78575   0.00000  Uiso   1.00
C997   C     0.25011   0.73999   0.83328   0.00000  Uiso   1.00
C998   C     0.25011   0.92667   0.83339   0.00000  Uiso   1.00
O999   O     0.18513   0.83333   0.88093   0.00000  Uiso   1.00
O1000  O     0.31487   0.83333   0.78573   0.00000  Uiso   1.00
O1001  O     0.31487   0.83333   0.88093   0.00000  Uiso   1.00
O1002  O     0.18513   0.83333   0.78573   0.00000  Uiso   1.00
C1003  C     0.16424   0.83335   0.83334   0.00000  Uiso   1.00
C1004  C     0.33554   0.83332   0.83333   0.00000  Uiso   1.00
Cu1005 Cu    0.25000   0.83333   0.88969   0.00000  Uiso   1.00
Cu1006 Cu    0.25000   0.83333   0.77697   0.00000  Uiso   1.00
N1007  N     0.25000   0.83333   0.69227   0.00000  Uiso   1.00
N1008  N     0.25000   0.83333   0.97439   0.00000  Uiso   1.00
C1009  C     0.40620   0.87682   0.84433   0.00000  Uiso   1.00
C1010  C     0.09303   0.79566   0.80485   0.00000  Uiso   1.00
C1011  C     0.40622   0.78978   0.82241   0.00000  Uiso   1.00
C1012  C     0.09303   0.87101   0.86193   0.00000  Uiso   1.00
C1013  C     0.38348   0.83331   0.83334   0.00000  Uiso   1.00
C1014  C     0.11589   0.83335   0.83336   0.00000  Uiso   1.00
C1015  C     0.45261   0.79105   0.81520   0.00000  Uiso   1.00
C1016  C     0.04633   0.87383   0.85742   0.00000  Uiso   1.00
C1017  C     0.45258   0.87552   0.85166   0.00000  Uiso   1.00
C1018  C     0.04636   0.79278   0.80948   0.00000  Uiso   1.00
C1019  C     0.47614   0.83329   0.83344   0.00000  Uiso   1.00
C1020  C     0.02300   0.83330   0.83346   0.00000  Uiso   1.00
C1021  C     0.47592   0.75138   0.79086   0.00000  Uiso   1.00
C1022  C     0.02213   0.91536   0.87698   0.00000  Uiso   1.00
C1023  C     0.47584   0.91516   0.87609   0.00000  Uiso   1.00
C1024  C     0.02221   0.75121   0.79001   0.00000  Uiso   1.00
C1025  C     0.25021   0.68844   0.83326   0.00000  Uiso   1.00
C1026  C     0.25021   0.97823   0.83341   0.00000  Uiso   1.00
Cl1027 Cl    0.44821   0.70416   0.75285   0.00000  Uiso   1.00
Cl1028 Cl    0.04759   0.97107   0.89874   0.00000  Uiso   1.00
Cl1029 Cl    0.44805   0.96229   0.91419   0.00000  Uiso   1.00
Cl1030 Cl    0.04776   0.69549   0.76844   0.00000  Uiso   1.00
N1031  N     0.38285   0.92211   0.84279   0.00000  Uiso   1.00
H1032  H     0.35411   0.92285   0.86663   0.00000  Uiso   1.00
C1033  C     0.37683   0.94122   0.78561   0.00000  Uiso   1.00
H1034  H     0.36240   0.97845   0.78793   0.00000  Uiso   1.00
H1035  H     0.35393   0.91764   0.76066   0.00000  Uiso   1.00
H1036  H     0.40912   0.94313   0.76297   0.00000  Uiso   1.00
N1037  N     0.11719   0.76083   0.77159   0.00000  Uiso   1.00
H1038  H     0.14699   0.74930   0.78836   0.00000  Uiso   1.00
C1039  C     0.11870   0.77093   0.71079   0.00000  Uiso   1.00
H1040  H     0.13421   0.73962   0.68802   0.00000  Uiso   1.00
H1041  H     0.13857   0.80418   0.70249   0.00000  Uiso   1.00
H1042  H     0.08475   0.77620   0.69347   0.00000  Uiso   1.00
N1043  N     0.38286   0.74450   0.82389   0.00000  Uiso   1.00
H1044  H     0.35413   0.74379   0.80002   0.00000  Uiso   1.00
C1045  C     0.37681   0.72536   0.88105   0.00000  Uiso   1.00
H1046  H     0.40909   0.72339   0.90370   0.00000  Uiso   1.00
H1047  H     0.36235   0.68816   0.87869   0.00000  Uiso   1.00
H1048  H     0.35391   0.74896   0.90601   0.00000  Uiso   1.00
N1049  N     0.11720   0.90598   0.89496   0.00000  Uiso   1.00
H1050  H     0.14691   0.91757   0.87800   0.00000  Uiso   1.00
C1051  C     0.11891   0.89611   0.95581   0.00000  Uiso   1.00
H1052  H     0.13348   0.92806   0.97846   0.00000  Uiso   1.00
H1053  H     0.13978   0.86361   0.96430   0.00000  Uiso   1.00
H1054  H     0.08510   0.88970   0.97311   0.00000  Uiso   1.00
O1055  O     0.75000   0.76280   0.88092   0.00000  Uiso   1.00
O1056  O     0.75000   0.90387   0.78575   0.00000  Uiso   1.00
O1057  O     0.75000   0.90387   0.88092   0.00000  Uiso   1.00
O1058  O     0.75000   0.76280   0.78575   0.00000  Uiso   1.00
C1059  C     0.75011   0.73999   0.83328   0.00000  Uiso   1.00
C1060  C     0.75011   0.92667   0.83339   0.00000  Uiso   1.00
O1061  O     0.68513   0.83333   0.88093   0.00000  Uiso   1.00
O1062  O     0.81487   0.83333   0.78573   0.00000  Uiso   1.00
O1063  O     0.81487   0.83333   0.88093   0.00000  Uiso   1.00
O1064  O     0.68513   0.83333   0.78573   0.00000  Uiso   1.00
C1065  C     0.66424   0.83335   0.83334   0.00000  Uiso   1.00
C1066  C     0.83554   0.83332   0.83333   0.00000  Uiso   1.00
Cu1067 Cu    0.75000   0.83333   0.88969   0.00000  Uiso   1.00
Cu1068 Cu    0.75000   0.83333   0.77697   0.00000  Uiso   1.00
N1069  N     0.75000   0.83333   0.69227   0.00000  Uiso   1.00
N1070  N     0.75000   0.83333   0.97439   0.00000  Uiso   1.00
C1071  C     0.90620   0.87682   0.84433   0.00000  Uiso   1.00
C1072  C     0.59303   0.79566   0.80485   0.00000  Uiso   1.00
C1073  C     0.90622   0.78978   0.82241   0.00000  Uiso   1.00
C1074  C     0.59303   0.87101   0.86193   0.00000  Uiso   1.00
C1075  C     0.88348   0.83331   0.83334   0.00000  Uiso   1.00
C1076  C     0.61589   0.83335   0.83336   0.00000  Uiso   1.00
C1077  C     0.95261   0.79105   0.81520   0.00000  Uiso   1.00
C1078  C     0.54633   0.87383   0.85742   0.00000  Uiso   1.00
C1079  C     0.95258   0.87552   0.85166   0.00000  Uiso   1.00
C1080  C     0.54636   0.79278   0.80948   0.00000  Uiso   1.00
C1081  C     0.97614   0.83329   0.83344   0.00000  Uiso   1.00
C1082  C     0.52300   0.83330   0.83346   0.00000  Uiso   1.00
C1083  C     0.97592   0.75138   0.79086   0.00000  Uiso   1.00
C1084  C     0.52213   0.91536   0.87698   0.00000  Uiso   1.00
C1085  C     0.97584   0.91516   0.87609   0.00000  Uiso   1.00
C1086  C     0.52221   0.75121   0.79001   0.00000  Uiso   1.00
C1087  C     0.75021   0.68844   0.83326   0.00000  Uiso   1.00
C1088  C     0.75021   0.97823   0.83341   0.00000  Uiso   1.00
Cl1089 Cl    0.94821   0.70416   0.75285   0.00000  Uiso   1.00
Cl1090 Cl    0.54759   0.97107   0.89874   0.00000  Uiso   1.00
Cl1091 Cl    0.94805   0.96229   0.91419   0.00000  Uiso   1.00
Cl1092 Cl    0.54776   0.69549   0.76844   0.00000  Uiso   1.00
N1093  N     0.88285   0.92211   0.84279   0.00000  Uiso   1.00
H1094  H     0.85411   0.92285   0.86663   0.00000  Uiso   1.00
C1095  C     0.87683   0.94122   0.78561   0.00000  Uiso   1.00
H1096  H     0.86240   0.97845   0.78793   0.00000  Uiso   1.00
H1097  H     0.85393   0.91764   0.76066   0.00000  Uiso   1.00
H1098  H     0.90912   0.94313   0.76297   0.00000  Uiso   1.00
N1099  N     0.61719   0.76083   0.77159   0.00000  Uiso   1.00
H1100  H     0.64699   0.74930   0.78836   0.00000  Uiso   1.00
C1101  C     0.61870   0.77093   0.71079   0.00000  Uiso   1.00
H1102  H     0.63421   0.73962   0.68802   0.00000  Uiso   1.00
H1103  H     0.63857   0.80418   0.70249   0.00000  Uiso   1.00
H1104  H     0.58475   0.77620   0.69347   0.00000  Uiso   1.00
N1105  N     0.88286   0.74450   0.82389   0.00000  Uiso   1.00
H1106  H     0.85413   0.74379   0.80002   0.00000  Uiso   1.00
C1107  C     0.87681   0.72536   0.88105   0.00000  Uiso   1.00
H1108  H     0.90909   0.72339   0.90370   0.00000  Uiso   1.00
H1109  H     0.86235   0.68816   0.87869   0.00000  Uiso   1.00
H1110  H     0.85391   0.74896   0.90601   0.00000  Uiso   1.00
N1111  N     0.61720   0.90598   0.89496   0.00000  Uiso   1.00
H1112  H     0.64691   0.91757   0.87800   0.00000  Uiso   1.00
C1113  C     0.61891   0.89611   0.95581   0.00000  Uiso   1.00
H1114  H     0.63348   0.92806   0.97846   0.00000  Uiso   1.00
H1115  H     0.63978   0.86361   0.96430   0.00000  Uiso   1.00
H1116  H     0.58510   0.88970   0.97311   0.00000  Uiso   1.00
loop_
_geom_bond_atom_site_label_1
_geom_bond_atom_site_label_2
_geom_bond_distance
_geom_bond_site_symmetry_2
_ccdc_geom_bond_type
O1     C5      1.274   .     A
O1     Cu13    1.940   .     S
O2     C6      1.274   .     A
O2     Cu14    1.940   .     S
O3     Cu13    1.941   .     S
O3     C6      1.275   .     A
O4     Cu14    1.941   .     S
O4     C5      1.275   .     A
C5     C33     1.410   .     S
C6     C34     1.410   .     S
O7     C11     1.278   .     A
O7     Cu13    1.969   .     S
O8     C12     1.275   .     A
O8     Cu14    1.969   .     S
O9     C12     1.275   .     A
O9     Cu13    1.969   .     S
O10    C11     1.278   .     A
O10    Cu14    1.969   .     S
C11    C22     1.460   .     S
C12    C21     1.448   .     S
Cu13   N16     1.978   .     S
Cu13   Cu14    2.632   .     S
Cu14   N15     1.978   .     S
N15    N760    1.196   1_554 S
N16    N387    1.196   .     S
C17    C25     1.411   .     A
C17    N39     1.426   .     S
C17    C21     1.397   .     A
C18    C26     1.416   .     A
C18    N45     1.427   .     S
C18    C22     1.406   .     A
C19    C23     1.411   .     A
C19    C21     1.397   .     A
C19    N51     1.426   .     S
C20    C22     1.407   .     A
C20    N57     1.427   .     S
C20    C24     1.416   .     A
C23    C27     1.421   .     A
C23    C29     1.411   .     A
C24    C28     1.427   .     A
C24    C30     1.425   .     A
C25    C31     1.411   .     A
C25    C27     1.421   .     A
C26    C32     1.424   .     A
C26    C28     1.427   .     A
C27    C90     1.415   .     S
C28    C89     1.415   1_455 S
C29    Cl35    1.775   .     S
C29    C94     1.398   .     S
C30    Cl36    1.779   .     S
C30    C93     1.398   1_455 S
C31    Cl37    1.775   .     S
C31    C92     1.398   .     S
C32    Cl38    1.779   .     S
C32    C91     1.398   1_455 S
C33    C282    1.191   1_545 S
C34    C157    1.191   .     S
N39    C41     1.447   .     S
N39    H40     1.031   .     S
C41    H42     1.109   .     S
C41    H44     1.110   .     S
C41    H43     1.110   .     S
N45    C47     1.448   .     S
N45    H46     1.031   .     S
C47    H48     1.110   .     S
C47    H49     1.107   .     S
C47    H50     1.111   .     S
N51    H52     1.031   .     S
N51    C53     1.447   .     S
C53    H55     1.109   .     S
C53    H56     1.110   .     S
C53    H54     1.110   .     S
N57    H58     1.031   .     S
N57    C59     1.448   .     S
C59    H60     1.111   .     S
C59    H61     1.108   .     S
C59    H62     1.112   .     S
O63    C67     1.274   .     A
O63    Cu75    1.940   .     S
O64    C68     1.274   .     A
O64    Cu76    1.940   .     S
O65    Cu75    1.941   .     S
O65    C68     1.275   .     A
O66    Cu76    1.941   .     S
O66    C67     1.275   .     A
C67    C95     1.410   .     S
C68    C96     1.410   .     S
O69    C73     1.278   .     A
O69    Cu75    1.969   .     S
O70    C74     1.275   .     A
O70    Cu76    1.969   .     S
O71    C74     1.275   .     A
O71    Cu75    1.969   .     S
O72    C73     1.278   .     A
O72    Cu76    1.969   .     S
C73    C84     1.460   .     S
C74    C83     1.448   .     S
Cu75   N78     1.978   .     S
Cu75   Cu76    2.632   .     S
Cu76   N77     1.978   .     S
N77    N822    1.196   1_554 S
N78    N449    1.196   .     S
C79    C87     1.411   .     A
C79    N101    1.426   .     S
C79    C83     1.397   .     A
C80    C88     1.416   .     A
C80    N107    1.427   .     S
C80    C84     1.406   .     A
C81    C85     1.411   .     A
C81    C83     1.397   .     A
C81    N113    1.426   .     S
C82    C84     1.407   .     A
C82    N119    1.427   .     S
C82    C86     1.416   .     A
C85    C89     1.421   .     A
C85    C91     1.411   .     A
C86    C90     1.427   .     A
C86    C92     1.425   .     A
C87    C93     1.411   .     A
C87    C89     1.421   .     A
C88    C94     1.424   .     A
C88    C90     1.427   .     A
C89    C28     1.415   1_655 S
C91    Cl97    1.775   .     S
C91    C32     1.398   1_655 S
C92    Cl98    1.779   .     S
C93    Cl99    1.775   .     S
C93    C30     1.398   1_655 S
C94    Cl100   1.779   .     S
C95    C344    1.191   1_545 S
C96    C219    1.191   .     S
N101   C103    1.447   .     S
N101   H102    1.031   .     S
C103   H104    1.109   .     S
C103   H106    1.110   .     S
C103   H105    1.110   .     S
N107   C109    1.448   .     S
N107   H108    1.031   .     S
C109   H110    1.110   .     S
C109   H111    1.107   .     S
C109   H112    1.111   .     S
N113   H114    1.031   .     S
N113   C115    1.447   .     S
C115   H117    1.109   .     S
C115   H118    1.110   .     S
C115   H116    1.110   .     S
N119   H120    1.031   .     S
N119   C121    1.448   .     S
C121   H122    1.111   .     S
C121   H123    1.108   .     S
C121   H124    1.112   .     S
O125   C129    1.274   .     A
O125   Cu137   1.940   .     S
O126   C130    1.274   .     A
O126   Cu138   1.940   .     S
O127   Cu137   1.941   .     S
O127   C130    1.275   .     A
O128   Cu138   1.941   .     S
O128   C129    1.275   .     A
C129   C157    1.410   .     S
C130   C158    1.410   .     S
O131   C135    1.278   .     A
O131   Cu137   1.969   .     S
O132   C136    1.275   .     A
O132   Cu138   1.969   .     S
O133   C136    1.275   .     A
O133   Cu137   1.969   .     S
O134   C135    1.278   .     A
O134   Cu138   1.969   .     S
C135   C146    1.460   .     S
C136   C145    1.448   .     S
Cu137  N140    1.978   .     S
Cu137  Cu138   2.632   .     S
Cu138  N139    1.978   .     S
N139   N884    1.196   1_554 S
N140   N511    1.196   .     S
C141   C149    1.411   .     A
C141   N163    1.426   .     S
C141   C145    1.397   .     A
C142   C150    1.416   .     A
C142   N169    1.427   .     S
C142   C146    1.406   .     A
C143   C147    1.411   .     A
C143   C145    1.397   .     A
C143   N175    1.426   .     S
C144   C146    1.407   .     A
C144   N181    1.427   .     S
C144   C148    1.416   .     A
C147   C151    1.421   .     A
C147   C153    1.411   .     A
C148   C152    1.427   .     A
C148   C154    1.425   .     A
C149   C155    1.411   .     A
C149   C151    1.421   .     A
C150   C156    1.424   .     A
C150   C152    1.427   .     A
C151   C214    1.415   .     S
C152   C213    1.415   1_455 S
C153   Cl159   1.775   .     S
C153   C218    1.398   .     S
C154   Cl160   1.779   .     S
C154   C217    1.398   1_455 S
C155   Cl161   1.775   .     S
C155   C216    1.398   .     S
C156   Cl162   1.779   .     S
C156   C215    1.398   1_455 S
C158   C281    1.191   .     S
N163   C165    1.447   .     S
N163   H164    1.031   .     S
C165   H166    1.109   .     S
C165   H168    1.110   .     S
C165   H167    1.110   .     S
N169   C171    1.448   .     S
N169   H170    1.031   .     S
C171   H172    1.110   .     S
C171   H173    1.107   .     S
C171   H174    1.111   .     S
N175   H176    1.031   .     S
N175   C177    1.447   .     S
C177   H179    1.109   .     S
C177   H180    1.110   .     S
C177   H178    1.110   .     S
N181   H182    1.031   .     S
N181   C183    1.448   .     S
C183   H184    1.111   .     S
C183   H185    1.108   .     S
C183   H186    1.112   .     S
O187   C191    1.274   .     A
O187   Cu199   1.940   .     S
O188   C192    1.274   .     A
O188   Cu200   1.940   .     S
O189   Cu199   1.941   .     S
O189   C192    1.275   .     A
O190   Cu200   1.941   .     S
O190   C191    1.275   .     A
C191   C219    1.410   .     S
C192   C220    1.410   .     S
O193   C197    1.278   .     A
O193   Cu199   1.969   .     S
O194   C198    1.275   .     A
O194   Cu200   1.969   .     S
O195   C198    1.275   .     A
O195   Cu199   1.969   .     S
O196   C197    1.278   .     A
O196   Cu200   1.969   .     S
C197   C208    1.460   .     S
C198   C207    1.448   .     S
Cu199  N202    1.978   .     S
Cu199  Cu200   2.632   .     S
Cu200  N201    1.978   .     S
N201   N946    1.196   1_554 S
N202   N573    1.196   .     S
C203   C211    1.411   .     A
C203   N225    1.426   .     S
C203   C207    1.397   .     A
C204   C212    1.416   .     A
C204   N231    1.427   .     S
C204   C208    1.406   .     A
C205   C209    1.411   .     A
C205   C207    1.397   .     A
C205   N237    1.426   .     S
C206   C208    1.407   .     A
C206   N243    1.427   .     S
C206   C210    1.416   .     A
C209   C213    1.421   .     A
C209   C215    1.411   .     A
C210   C214    1.427   .     A
C210   C216    1.425   .     A
C211   C217    1.411   .     A
C211   C213    1.421   .     A
C212   C218    1.424   .     A
C212   C214    1.427   .     A
C213   C152    1.415   1_655 S
C215   Cl221   1.775   .     S
C215   C156    1.398   1_655 S
C216   Cl222   1.779   .     S
C217   Cl223   1.775   .     S
C217   C154    1.398   1_655 S
C218   Cl224   1.779   .     S
C220   C343    1.191   .     S
N225   C227    1.447   .     S
N225   H226    1.031   .     S
C227   H228    1.109   .     S
C227   H230    1.110   .     S
C227   H229    1.110   .     S
N231   C233    1.448   .     S
N231   H232    1.031   .     S
C233   H234    1.110   .     S
C233   H235    1.107   .     S
C233   H236    1.111   .     S
N237   H238    1.031   .     S
N237   C239    1.447   .     S
C239   H241    1.109   .     S
C239   H242    1.110   .     S
C239   H240    1.110   .     S
N243   H244    1.031   .     S
N243   C245    1.448   .     S
C245   H246    1.111   .     S
C245   H247    1.108   .     S
C245   H248    1.112   .     S
O249   C253    1.274   .     A
O249   Cu261   1.940   .     S
O250   C254    1.274   .     A
O250   Cu262   1.940   .     S
O251   Cu261   1.941   .     S
O251   C254    1.275   .     A
O252   Cu262   1.941   .     S
O252   C253    1.275   .     A
C253   C281    1.410   .     S
C254   C282    1.410   .     S
O255   C259    1.278   .     A
O255   Cu261   1.969   .     S
O256   C260    1.275   .     A
O256   Cu262   1.969   .     S
O257   C260    1.275   .     A
O257   Cu261   1.969   .     S
O258   C259    1.278   .     A
O258   Cu262   1.969   .     S
C259   C270    1.460   .     S
C260   C269    1.448   .     S
Cu261  N264    1.978   .     S
Cu261  Cu262   2.632   .     S
Cu262  N263    1.978   .     S
N263   N1008   1.196   1_554 S
N264   N635    1.196   .     S
C265   C273    1.411   .     A
C265   N287    1.426   .     S
C265   C269    1.397   .     A
C266   C274    1.416   .     A
C266   N293    1.427   .     S
C266   C270    1.406   .     A
C267   C271    1.411   .     A
C267   C269    1.397   .     A
C267   N299    1.426   .     S
C268   C270    1.407   .     A
C268   N305    1.427   .     S
C268   C272    1.416   .     A
C271   C275    1.421   .     A
C271   C277    1.411   .     A
C272   C276    1.427   .     A
C272   C278    1.425   .     A
C273   C279    1.411   .     A
C273   C275    1.421   .     A
C274   C280    1.424   .     A
C274   C276    1.427   .     A
C275   C338    1.415   .     S
C276   C337    1.415   1_455 S
C277   Cl283   1.775   .     S
C277   C342    1.398   .     S
C278   Cl284   1.779   .     S
C278   C341    1.398   1_455 S
C279   Cl285   1.775   .     S
C279   C340    1.398   .     S
C280   Cl286   1.779   .     S
C280   C339    1.398   1_455 S
C282   C33     1.191   1_565 S
N287   C289    1.447   .     S
N287   H288    1.031   .     S
C289   H290    1.109   .     S
C289   H292    1.110   .     S
C289   H291    1.110   .     S
N293   C295    1.448   .     S
N293   H294    1.031   .     S
C295   H296    1.110   .     S
C295   H297    1.107   .     S
C295   H298    1.111   .     S
N299   H300    1.031   .     S
N299   C301    1.447   .     S
C301   H303    1.109   .     S
C301   H304    1.110   .     S
C301   H302    1.110   .     S
N305   H306    1.031   .     S
N305   C307    1.448   .     S
C307   H308    1.111   .     S
C307   H309    1.108   .     S
C307   H310    1.112   .     S
O311   C315    1.274   .     A
O311   Cu323   1.940   .     S
O312   C316    1.274   .     A
O312   Cu324   1.940   .     S
O313   Cu323   1.941   .     S
O313   C316    1.275   .     A
O314   Cu324   1.941   .     S
O314   C315    1.275   .     A
C315   C343    1.410   .     S
C316   C344    1.410   .     S
O317   C321    1.278   .     A
O317   Cu323   1.969   .     S
O318   C322    1.275   .     A
O318   Cu324   1.969   .     S
O319   C322    1.275   .     A
O319   Cu323   1.969   .     S
O320   C321    1.278   .     A
O320   Cu324   1.969   .     S
C321   C332    1.460   .     S
C322   C331    1.448   .     S
Cu323  N326    1.978   .     S
Cu323  Cu324   2.632   .     S
Cu324  N325    1.978   .     S
N325   N1070   1.196   1_554 S
N326   N697    1.196   .     S
C327   C335    1.411   .     A
C327   N349    1.426   .     S
C327   C331    1.397   .     A
C328   C336    1.416   .     A
C328   N355    1.427   .     S
C328   C332    1.406   .     A
C329   C333    1.411   .     A
C329   C331    1.397   .     A
C329   N361    1.426   .     S
C330   C332    1.407   .     A
C330   N367    1.427   .     S
C330   C334    1.416   .     A
C333   C337    1.421   .     A
C333   C339    1.411   .     A
C334   C338    1.427   .     A
C334   C340    1.425   .     A
C335   C341    1.411   .     A
C335   C337    1.421   .     A
C336   C342    1.424   .     A
C336   C338    1.427   .     A
C337   C276    1.415   1_655 S
C339   Cl345   1.775   .     S
C339   C280    1.398   1_655 S
C340   Cl346   1.779   .     S
C341   Cl347   1.775   .     S
C341   C278    1.398   1_655 S
C342   Cl348   1.779   .     S
C344   C95     1.191   1_565 S
N349   C351    1.447   .     S
N349   H350    1.031   .     S
C351   H352    1.109   .     S
C351   H354    1.110   .     S
C351   H353    1.110   .     S
N355   C357    1.448   .     S
N355   H356    1.031   .     S
C357   H358    1.110   .     S
C357   H359    1.107   .     S
C357   H360    1.111   .     S
N361   H362    1.031   .     S
N361   C363    1.447   .     S
C363   H365    1.109   .     S
C363   H366    1.110   .     S
C363   H364    1.110   .     S
N367   H368    1.031   .     S
N367   C369    1.448   .     S
C369   H370    1.111   .     S
C369   H371    1.108   .     S
C369   H372    1.112   .     S
O373   C377    1.274   .     A
O373   Cu385   1.940   .     S
O374   C378    1.274   .     A
O374   Cu386   1.940   .     S
O375   Cu385   1.941   .     S
O375   C378    1.275   .     A
O376   Cu386   1.941   .     S
O376   C377    1.275   .     A
C377   C405    1.410   .     S
C378   C406    1.410   .     S
O379   C383    1.278   .     A
O379   Cu385   1.969   .     S
O380   C384    1.275   .     A
O380   Cu386   1.969   .     S
O381   C384    1.275   .     A
O381   Cu385   1.969   .     S
O382   C383    1.278   .     A
O382   Cu386   1.969   .     S
C383   C394    1.460   .     S
C384   C393    1.448   .     S
Cu385  N388    1.978   .     S
Cu385  Cu386   2.632   .     S
Cu386  N387    1.978   .     S
N388   N759    1.196   .     S
C389   C397    1.411   .     A
C389   N411    1.426   .     S
C389   C393    1.397   .     A
C390   C398    1.416   .     A
C390   N417    1.427   .     S
C390   C394    1.406   .     A
C391   C395    1.411   .     A
C391   C393    1.397   .     A
C391   N423    1.426   .     S
C392   C394    1.407   .     A
C392   N429    1.427   .     S
C392   C396    1.416   .     A
C395   C399    1.421   .     A
C395   C401    1.411   .     A
C396   C400    1.427   .     A
C396   C402    1.425   .     A
C397   C403    1.411   .     A
C397   C399    1.421   .     A
C398   C404    1.424   .     A
C398   C400    1.427   .     A
C399   C462    1.415   .     S
C400   C461    1.415   1_455 S
C401   Cl407   1.775   .     S
C401   C466    1.398   .     S
C402   Cl408   1.779   .     S
C402   C465    1.398   1_455 S
C403   Cl409   1.775   .     S
C403   C464    1.398   .     S
C404   Cl410   1.779   .     S
C404   C463    1.398   1_455 S
C405   C654    1.191   1_545 S
C406   C529    1.191   .     S
N411   C413    1.447   .     S
N411   H412    1.031   .     S
C413   H414    1.109   .     S
C413   H416    1.110   .     S
C413   H415    1.110   .     S
N417   C419    1.448   .     S
N417   H418    1.031   .     S
C419   H420    1.110   .     S
C419   H421    1.107   .     S
C419   H422    1.111   .     S
N423   H424    1.031   .     S
N423   C425    1.447   .     S
C425   H427    1.109   .     S
C425   H428    1.110   .     S
C425   H426    1.110   .     S
N429   H430    1.031   .     S
N429   C431    1.448   .     S
C431   H432    1.111   .     S
C431   H433    1.108   .     S
C431   H434    1.112   .     S
O435   C439    1.274   .     A
O435   Cu447   1.940   .     S
O436   C440    1.274   .     A
O436   Cu448   1.940   .     S
O437   Cu447   1.941   .     S
O437   C440    1.275   .     A
O438   Cu448   1.941   .     S
O438   C439    1.275   .     A
C439   C467    1.410   .     S
C440   C468    1.410   .     S
O441   C445    1.278   .     A
O441   Cu447   1.969   .     S
O442   C446    1.275   .     A
O442   Cu448   1.969   .     S
O443   C446    1.275   .     A
O443   Cu447   1.969   .     S
O444   C445    1.278   .     A
O444   Cu448   1.969   .     S
C445   C456    1.460   .     S
C446   C455    1.448   .     S
Cu447  N450    1.978   .     S
Cu447  Cu448   2.632   .     S
Cu448  N449    1.978   .     S
N450   N821    1.196   .     S
C451   C459    1.411   .     A
C451   N473    1.426   .     S
C451   C455    1.397   .     A
C452   C460    1.416   .     A
C452   N479    1.427   .     S
C452   C456    1.406   .     A
C453   C457    1.411   .     A
C453   C455    1.397   .     A
C453   N485    1.426   .     S
C454   C456    1.407   .     A
C454   N491    1.427   .     S
C454   C458    1.416   .     A
C457   C461    1.421   .     A
C457   C463    1.411   .     A
C458   C462    1.427   .     A
C458   C464    1.425   .     A
C459   C465    1.411   .     A
C459   C461    1.421   .     A
C460   C466    1.424   .     A
C460   C462    1.427   .     A
C461   C400    1.415   1_655 S
C463   Cl469   1.775   .     S
C463   C404    1.398   1_655 S
C464   Cl470   1.779   .     S
C465   Cl471   1.775   .     S
C465   C402    1.398   1_655 S
C466   Cl472   1.779   .     S
C467   C716    1.191   1_545 S
C468   C591    1.191   .     S
N473   C475    1.447   .     S
N473   H474    1.031   .     S
C475   H476    1.109   .     S
C475   H478    1.110   .     S
C475   H477    1.110   .     S
N479   C481    1.448   .     S
N479   H480    1.031   .     S
C481   H482    1.110   .     S
C481   H483    1.107   .     S
C481   H484    1.111   .     S
N485   H486    1.031   .     S
N485   C487    1.447   .     S
C487   H489    1.109   .     S
C487   H490    1.110   .     S
C487   H488    1.110   .     S
N491   H492    1.031   .     S
N491   C493    1.448   .     S
C493   H494    1.111   .     S
C493   H495    1.108   .     S
C493   H496    1.112   .     S
O497   C501    1.274   .     A
O497   Cu509   1.940   .     S
O498   C502    1.274   .     A
O498   Cu510   1.940   .     S
O499   Cu509   1.941   .     S
O499   C502    1.275   .     A
O500   Cu510   1.941   .     S
O500   C501    1.275   .     A
C501   C529    1.410   .     S
C502   C530    1.410   .     S
O503   C507    1.278   .     A
O503   Cu509   1.969   .     S
O504   C508    1.275   .     A
O504   Cu510   1.969   .     S
O505   C508    1.275   .     A
O505   Cu509   1.969   .     S
O506   C507    1.278   .     A
O506   Cu510   1.969   .     S
C507   C518    1.460   .     S
C508   C517    1.448   .     S
Cu509  N512    1.978   .     S
Cu509  Cu510   2.632   .     S
Cu510  N511    1.978   .     S
N512   N883    1.196   .     S
C513   C521    1.411   .     A
C513   N535    1.426   .     S
C513   C517    1.397   .     A
C514   C522    1.416   .     A
C514   N541    1.427   .     S
C514   C518    1.406   .     A
C515   C519    1.411   .     A
C515   C517    1.397   .     A
C515   N547    1.426   .     S
C516   C518    1.407   .     A
C516   N553    1.427   .     S
C516   C520    1.416   .     A
C519   C523    1.421   .     A
C519   C525    1.411   .     A
C520   C524    1.427   .     A
C520   C526    1.425   .     A
C521   C527    1.411   .     A
C521   C523    1.421   .     A
C522   C528    1.424   .     A
C522   C524    1.427   .     A
C523   C586    1.415   .     S
C524   C585    1.415   1_455 S
C525   Cl531   1.775   .     S
C525   C590    1.398   .     S
C526   Cl532   1.779   .     S
C526   C589    1.398   1_455 S
C527   Cl533   1.775   .     S
C527   C588    1.398   .     S
C528   Cl534   1.779   .     S
C528   C587    1.398   1_455 S
C530   C653    1.191   .     S
N535   C537    1.447   .     S
N535   H536    1.031   .     S
C537   H538    1.109   .     S
C537   H540    1.110   .     S
C537   H539    1.110   .     S
N541   C543    1.448   .     S
N541   H542    1.031   .     S
C543   H544    1.110   .     S
C543   H545    1.107   .     S
C543   H546    1.111   .     S
N547   H548    1.031   .     S
N547   C549    1.447   .     S
C549   H551    1.109   .     S
C549   H552    1.110   .     S
C549   H550    1.110   .     S
N553   H554    1.031   .     S
N553   C555    1.448   .     S
C555   H556    1.111   .     S
C555   H557    1.108   .     S
C555   H558    1.112   .     S
O559   C563    1.274   .     A
O559   Cu571   1.940   .     S
O560   C564    1.274   .     A
O560   Cu572   1.940   .     S
O561   Cu571   1.941   .     S
O561   C564    1.275   .     A
O562   Cu572   1.941   .     S
O562   C563    1.275   .     A
C563   C591    1.410   .     S
C564   C592    1.410   .     S
O565   C569    1.278   .     A
O565   Cu571   1.969   .     S
O566   C570    1.275   .     A
O566   Cu572   1.969   .     S
O567   C570    1.275   .     A
O567   Cu571   1.969   .     S
O568   C569    1.278   .     A
O568   Cu572   1.969   .     S
C569   C580    1.460   .     S
C570   C579    1.448   .     S
Cu571  N574    1.978   .     S
Cu571  Cu572   2.632   .     S
Cu572  N573    1.978   .     S
N574   N945    1.196   .     S
C575   C583    1.411   .     A
C575   N597    1.426   .     S
C575   C579    1.397   .     A
C576   C584    1.416   .     A
C576   N603    1.427   .     S
C576   C580    1.406   .     A
C577   C581    1.411   .     A
C577   C579    1.397   .     A
C577   N609    1.426   .     S
C578   C580    1.407   .     A
C578   N615    1.427   .     S
C578   C582    1.416   .     A
C581   C585    1.421   .     A
C581   C587    1.411   .     A
C582   C586    1.427   .     A
C582   C588    1.425   .     A
C583   C589    1.411   .     A
C583   C585    1.421   .     A
C584   C590    1.424   .     A
C584   C586    1.427   .     A
C585   C524    1.415   1_655 S
C587   Cl593   1.775   .     S
C587   C528    1.398   1_655 S
C588   Cl594   1.779   .     S
C589   Cl595   1.775   .     S
C589   C526    1.398   1_655 S
C590   Cl596   1.779   .     S
C592   C715    1.191   .     S
N597   C599    1.447   .     S
N597   H598    1.031   .     S
C599   H600    1.109   .     S
C599   H602    1.110   .     S
C599   H601    1.110   .     S
N603   C605    1.448   .     S
N603   H604    1.031   .     S
C605   H606    1.110   .     S
C605   H607    1.107   .     S
C605   H608    1.111   .     S
N609   H610    1.031   .     S
N609   C611    1.447   .     S
C611   H613    1.109   .     S
C611   H614    1.110   .     S
C611   H612    1.110   .     S
N615   H616    1.031   .     S
N615   C617    1.448   .     S
C617   H618    1.111   .     S
C617   H619    1.108   .     S
C617   H620    1.112   .     S
O621   C625    1.274   .     A
O621   Cu633   1.940   .     S
O622   C626    1.274   .     A
O622   Cu634   1.940   .     S
O623   Cu633   1.941   .     S
O623   C626    1.275   .     A
O624   Cu634   1.941   .     S
O624   C625    1.275   .     A
C625   C653    1.410   .     S
C626   C654    1.410   .     S
O627   C631    1.278   .     A
O627   Cu633   1.969   .     S
O628   C632    1.275   .     A
O628   Cu634   1.969   .     S
O629   C632    1.275   .     A
O629   Cu633   1.969   .     S
O630   C631    1.278   .     A
O630   Cu634   1.969   .     S
C631   C642    1.460   .     S
C632   C641    1.448   .     S
Cu633  N636    1.978   .     S
Cu633  Cu634   2.632   .     S
Cu634  N635    1.978   .     S
N636   N1007   1.196   .     S
C637   C645    1.411   .     A
C637   N659    1.426   .     S
C637   C641    1.397   .     A
C638   C646    1.416   .     A
C638   N665    1.427   .     S
C638   C642    1.406   .     A
C639   C643    1.411   .     A
C639   C641    1.397   .     A
C639   N671    1.426   .     S
C640   C642    1.407   .     A
C640   N677    1.427   .     S
C640   C644    1.416   .     A
C643   C647    1.421   .     A
C643   C649    1.411   .     A
C644   C648    1.427   .     A
C644   C650    1.425   .     A
C645   C651    1.411   .     A
C645   C647    1.421   .     A
C646   C652    1.424   .     A
C646   C648    1.427   .     A
C647   C710    1.415   .     S
C648   C709    1.415   1_455 S
C649   Cl655   1.775   .     S
C649   C714    1.398   .     S
C650   Cl656   1.779   .     S
C650   C713    1.398   1_455 S
C651   Cl657   1.775   .     S
C651   C712    1.398   .     S
C652   Cl658   1.779   .     S
C652   C711    1.398   1_455 S
C654   C405    1.191   1_565 S
N659   C661    1.447   .     S
N659   H660    1.031   .     S
C661   H662    1.109   .     S
C661   H664    1.110   .     S
C661   H663    1.110   .     S
N665   C667    1.448   .     S
N665   H666    1.031   .     S
C667   H668    1.110   .     S
C667   H669    1.107   .     S
C667   H670    1.111   .     S
N671   H672    1.031   .     S
N671   C673    1.447   .     S
C673   H675    1.109   .     S
C673   H676    1.110   .     S
C673   H674    1.110   .     S
N677   H678    1.031   .     S
N677   C679    1.448   .     S
C679   H680    1.111   .     S
C679   H681    1.108   .     S
C679   H682    1.112   .     S
O683   C687    1.274   .     A
O683   Cu695   1.940   .     S
O684   C688    1.274   .     A
O684   Cu696   1.940   .     S
O685   Cu695   1.941   .     S
O685   C688    1.275   .     A
O686   Cu696   1.941   .     S
O686   C687    1.275   .     A
C687   C715    1.410   .     S
C688   C716    1.410   .     S
O689   C693    1.278   .     A
O689   Cu695   1.969   .     S
O690   C694    1.275   .     A
O690   Cu696   1.969   .     S
O691   C694    1.275   .     A
O691   Cu695   1.969   .     S
O692   C693    1.278   .     A
O692   Cu696   1.969   .     S
C693   C704    1.460   .     S
C694   C703    1.448   .     S
Cu695  N698    1.978   .     S
Cu695  Cu696   2.632   .     S
Cu696  N697    1.978   .     S
N698   N1069   1.196   .     S
C699   C707    1.411   .     A
C699   N721    1.426   .     S
C699   C703    1.397   .     A
C700   C708    1.416   .     A
C700   N727    1.427   .     S
C700   C704    1.406   .     A
C701   C705    1.411   .     A
C701   C703    1.397   .     A
C701   N733    1.426   .     S
C702   C704    1.407   .     A
C702   N739    1.427   .     S
C702   C706    1.416   .     A
C705   C709    1.421   .     A
C705   C711    1.411   .     A
C706   C710    1.427   .     A
C706   C712    1.425   .     A
C707   C713    1.411   .     A
C707   C709    1.421   .     A
C708   C714    1.424   .     A
C708   C710    1.427   .     A
C709   C648    1.415   1_655 S
C711   Cl717   1.775   .     S
C711   C652    1.398   1_655 S
C712   Cl718   1.779   .     S
C713   Cl719   1.775   .     S
C713   C650    1.398   1_655 S
C714   Cl720   1.779   .     S
C716   C467    1.191   1_565 S
N721   C723    1.447   .     S
N721   H722    1.031   .     S
C723   H724    1.109   .     S
C723   H726    1.110   .     S
C723   H725    1.110   .     S
N727   C729    1.448   .     S
N727   H728    1.031   .     S
C729   H730    1.110   .     S
C729   H731    1.107   .     S
C729   H732    1.111   .     S
N733   H734    1.031   .     S
N733   C735    1.447   .     S
C735   H737    1.109   .     S
C735   H738    1.110   .     S
C735   H736    1.110   .     S
N739   H740    1.031   .     S
N739   C741    1.448   .     S
C741   H742    1.111   .     S
C741   H743    1.108   .     S
C741   H744    1.112   .     S
O745   C749    1.274   .     A
O745   Cu757   1.940   .     S
O746   C750    1.274   .     A
O746   Cu758   1.940   .     S
O747   Cu757   1.941   .     S
O747   C750    1.275   .     A
O748   Cu758   1.941   .     S
O748   C749    1.275   .     A
C749   C777    1.410   .     S
C750   C778    1.410   .     S
O751   C755    1.278   .     A
O751   Cu757   1.969   .     S
O752   C756    1.275   .     A
O752   Cu758   1.969   .     S
O753   C756    1.275   .     A
O753   Cu757   1.969   .     S
O754   C755    1.278   .     A
O754   Cu758   1.969   .     S
C755   C766    1.460   .     S
C756   C765    1.448   .     S
Cu757  N760    1.978   .     S
Cu757  Cu758   2.632   .     S
Cu758  N759    1.978   .     S
N760   N15     1.196   1_556 S
C761   C769    1.411   .     A
C761   N783    1.426   .     S
C761   C765    1.397   .     A
C762   C770    1.416   .     A
C762   N789    1.427   .     S
C762   C766    1.406   .     A
C763   C767    1.411   .     A
C763   C765    1.397   .     A
C763   N795    1.426   .     S
C764   C766    1.407   .     A
C764   N801    1.427   .     S
C764   C768    1.416   .     A
C767   C771    1.421   .     A
C767   C773    1.411   .     A
C768   C772    1.427   .     A
C768   C774    1.425   .     A
C769   C775    1.411   .     A
C769   C771    1.421   .     A
C770   C776    1.424   .     A
C770   C772    1.427   .     A
C771   C834    1.415   .     S
C772   C833    1.415   1_455 S
C773   Cl779   1.775   .     S
C773   C838    1.398   .     S
C774   Cl780   1.779   .     S
C774   C837    1.398   1_455 S
C775   Cl781   1.775   .     S
C775   C836    1.398   .     S
C776   Cl782   1.779   .     S
C776   C835    1.398   1_455 S
C777   C1026   1.191   1_545 S
C778   C901    1.191   .     S
N783   C785    1.447   .     S
N783   H784    1.031   .     S
C785   H786    1.109   .     S
C785   H788    1.110   .     S
C785   H787    1.110   .     S
N789   C791    1.448   .     S
N789   H790    1.031   .     S
C791   H792    1.110   .     S
C791   H793    1.107   .     S
C791   H794    1.111   .     S
N795   H796    1.031   .     S
N795   C797    1.447   .     S
C797   H799    1.109   .     S
C797   H800    1.110   .     S
C797   H798    1.110   .     S
N801   H802    1.031   .     S
N801   C803    1.448   .     S
C803   H804    1.111   .     S
C803   H805    1.108   .     S
C803   H806    1.112   .     S
O807   C811    1.274   .     A
O807   Cu819   1.940   .     S
O808   C812    1.274   .     A
O808   Cu820   1.940   .     S
O809   Cu819   1.941   .     S
O809   C812    1.275   .     A
O810   Cu820   1.941   .     S
O810   C811    1.275   .     A
C811   C839    1.410   .     S
C812   C840    1.410   .     S
O813   C817    1.278   .     A
O813   Cu819   1.969   .     S
O814   C818    1.275   .     A
O814   Cu820   1.969   .     S
O815   C818    1.275   .     A
O815   Cu819   1.969   .     S
O816   C817    1.278   .     A
O816   Cu820   1.969   .     S
C817   C828    1.460   .     S
C818   C827    1.448   .     S
Cu819  N822    1.978   .     S
Cu819  Cu820   2.632   .     S
Cu820  N821    1.978   .     S
N822   N77     1.196   1_556 S
C823   C831    1.411   .     A
C823   N845    1.426   .     S
C823   C827    1.397   .     A
C824   C832    1.416   .     A
C824   N851    1.427   .     S
C824   C828    1.406   .     A
C825   C829    1.411   .     A
C825   C827    1.397   .     A
C825   N857    1.426   .     S
C826   C828    1.407   .     A
C826   N863    1.427   .     S
C826   C830    1.416   .     A
C829   C833    1.421   .     A
C829   C835    1.411   .     A
C830   C834    1.427   .     A
C830   C836    1.425   .     A
C831   C837    1.411   .     A
C831   C833    1.421   .     A
C832   C838    1.424   .     A
C832   C834    1.427   .     A
C833   C772    1.415   1_655 S
C835   Cl841   1.775   .     S
C835   C776    1.398   1_655 S
C836   Cl842   1.779   .     S
C837   Cl843   1.775   .     S
C837   C774    1.398   1_655 S
C838   Cl844   1.779   .     S
C839   C1088   1.191   1_545 S
C840   C963    1.191   .     S
N845   C847    1.447   .     S
N845   H846    1.031   .     S
C847   H848    1.109   .     S
C847   H850    1.110   .     S
C847   H849    1.110   .     S
N851   C853    1.448   .     S
N851   H852    1.031   .     S
C853   H854    1.110   .     S
C853   H855    1.107   .     S
C853   H856    1.111   .     S
N857   H858    1.031   .     S
N857   C859    1.447   .     S
C859   H861    1.109   .     S
C859   H862    1.110   .     S
C859   H860    1.110   .     S
N863   H864    1.031   .     S
N863   C865    1.448   .     S
C865   H866    1.111   .     S
C865   H867    1.108   .     S
C865   H868    1.112   .     S
O869   C873    1.274   .     A
O869   Cu881   1.940   .     S
O870   C874    1.274   .     A
O870   Cu882   1.940   .     S
O871   Cu881   1.941   .     S
O871   C874    1.275   .     A
O872   Cu882   1.941   .     S
O872   C873    1.275   .     A
C873   C901    1.410   .     S
C874   C902    1.410   .     S
O875   C879    1.278   .     A
O875   Cu881   1.969   .     S
O876   C880    1.275   .     A
O876   Cu882   1.969   .     S
O877   C880    1.275   .     A
O877   Cu881   1.969   .     S
O878   C879    1.278   .     A
O878   Cu882   1.969   .     S
C879   C890    1.460   .     S
C880   C889    1.448   .     S
Cu881  N884    1.978   .     S
Cu881  Cu882   2.632   .     S
Cu882  N883    1.978   .     S
N884   N139    1.196   1_556 S
C885   C893    1.411   .     A
C885   N907    1.426   .     S
C885   C889    1.397   .     A
C886   C894    1.416   .     A
C886   N913    1.427   .     S
C886   C890    1.406   .     A
C887   C891    1.411   .     A
C887   C889    1.397   .     A
C887   N919    1.426   .     S
C888   C890    1.407   .     A
C888   N925    1.427   .     S
C888   C892    1.416   .     A
C891   C895    1.421   .     A
C891   C897    1.411   .     A
C892   C896    1.427   .     A
C892   C898    1.425   .     A
C893   C899    1.411   .     A
C893   C895    1.421   .     A
C894   C900    1.424   .     A
C894   C896    1.427   .     A
C895   C958    1.415   .     S
C896   C957    1.415   1_455 S
C897   Cl903   1.775   .     S
C897   C962    1.398   .     S
C898   Cl904   1.779   .     S
C898   C961    1.398   1_455 S
C899   Cl905   1.775   .     S
C899   C960    1.398   .     S
C900   Cl906   1.779   .     S
C900   C959    1.398   1_455 S
C902   C1025   1.191   .     S
N907   C909    1.447   .     S
N907   H908    1.031   .     S
C909   H910    1.109   .     S
C909   H912    1.110   .     S
C909   H911    1.110   .     S
N913   C915    1.448   .     S
N913   H914    1.031   .     S
C915   H916    1.110   .     S
C915   H917    1.107   .     S
C915   H918    1.111   .     S
N919   H920    1.031   .     S
N919   C921    1.447   .     S
C921   H923    1.109   .     S
C921   H924    1.110   .     S
C921   H922    1.110   .     S
N925   H926    1.031   .     S
N925   C927    1.448   .     S
C927   H928    1.111   .     S
C927   H929    1.108   .     S
C927   H930    1.112   .     S
O931   C935    1.274   .     A
O931   Cu943   1.940   .     S
O932   C936    1.274   .     A
O932   Cu944   1.940   .     S
O933   Cu943   1.941   .     S
O933   C936    1.275   .     A
O934   Cu944   1.941   .     S
O934   C935    1.275   .     A
C935   C963    1.410   .     S
C936   C964    1.410   .     S
O937   C941    1.278   .     A
O937   Cu943   1.969   .     S
O938   C942    1.275   .     A
O938   Cu944   1.969   .     S
O939   C942    1.275   .     A
O939   Cu943   1.969   .     S
O940   C941    1.278   .     A
O940   Cu944   1.969   .     S
C941   C952    1.460   .     S
C942   C951    1.448   .     S
Cu943  N946    1.978   .     S
Cu943  Cu944   2.632   .     S
Cu944  N945    1.978   .     S
N946   N201    1.196   1_556 S
C947   C955    1.411   .     A
C947   N969    1.426   .     S
C947   C951    1.397   .     A
C948   C956    1.416   .     A
C948   N975    1.427   .     S
C948   C952    1.406   .     A
C949   C953    1.411   .     A
C949   C951    1.397   .     A
C949   N981    1.426   .     S
C950   C952    1.407   .     A
C950   N987    1.427   .     S
C950   C954    1.416   .     A
C953   C957    1.421   .     A
C953   C959    1.411   .     A
C954   C958    1.427   .     A
C954   C960    1.425   .     A
C955   C961    1.411   .     A
C955   C957    1.421   .     A
C956   C962    1.424   .     A
C956   C958    1.427   .     A
C957   C896    1.415   1_655 S
C959   Cl965   1.775   .     S
C959   C900    1.398   1_655 S
C960   Cl966   1.779   .     S
C961   Cl967   1.775   .     S
C961   C898    1.398   1_655 S
C962   Cl968   1.779   .     S
C964   C1087   1.191   .     S
N969   C971    1.447   .     S
N969   H970    1.031   .     S
C971   H972    1.109   .     S
C971   H974    1.110   .     S
C971   H973    1.110   .     S
N975   C977    1.448   .     S
N975   H976    1.031   .     S
C977   H978    1.110   .     S
C977   H979    1.107   .     S
C977   H980    1.111   .     S
N981   H982    1.031   .     S
N981   C983    1.447   .     S
C983   H985    1.109   .     S
C983   H986    1.110   .     S
C983   H984    1.110   .     S
N987   H988    1.031   .     S
N987   C989    1.448   .     S
C989   H990    1.111   .     S
C989   H991    1.108   .     S
C989   H992    1.112   .     S
O993   C997    1.274   .     A
O993   Cu1005  1.940   .     S
O994   C998    1.274   .     A
O994   Cu1006  1.940   .     S
O995   Cu1005  1.941   .     S
O995   C998    1.275   .     A
O996   Cu1006  1.941   .     S
O996   C997    1.275   .     A
C997   C1025   1.410   .     S
C998   C1026   1.410   .     S
O999   C1003   1.278   .     A
O999   Cu1005  1.969   .     S
O1000  C1004   1.275   .     A
O1000  Cu1006  1.969   .     S
O1001  C1004   1.275   .     A
O1001  Cu1005  1.969   .     S
O1002  C1003   1.278   .     A
O1002  Cu1006  1.969   .     S
C1003  C1014   1.460   .     S
C1004  C1013   1.448   .     S
Cu1005 N1008   1.978   .     S
Cu1005 Cu1006  2.632   .     S
Cu1006 N1007   1.978   .     S
N1008  N263    1.196   1_556 S
C1009  C1017   1.411   .     A
C1009  N1031   1.426   .     S
C1009  C1013   1.397   .     A
C1010  C1018   1.416   .     A
C1010  N1037   1.427   .     S
C1010  C1014   1.406   .     A
C1011  C1015   1.411   .     A
C1011  C1013   1.397   .     A
C1011  N1043   1.426   .     S
C1012  C1014   1.407   .     A
C1012  N1049   1.427   .     S
C1012  C1016   1.416   .     A
C1015  C1019   1.421   .     A
C1015  C1021   1.411   .     A
C1016  C1020   1.427   .     A
C1016  C1022   1.425   .     A
C1017  C1023   1.411   .     A
C1017  C1019   1.421   .     A
C1018  C1024   1.424   .     A
C1018  C1020   1.427   .     A
C1019  C1082   1.415   .     S
C1020  C1081   1.415   1_455 S
C1021  Cl1027  1.775   .     S
C1021  C1086   1.398   .     S
C1022  Cl1028  1.779   .     S
C1022  C1085   1.398   1_455 S
C1023  Cl1029  1.775   .     S
C1023  C1084   1.398   .     S
C1024  Cl1030  1.779   .     S
C1024  C1083   1.398   1_455 S
C1026  C777    1.191   1_565 S
N1031  C1033   1.447   .     S
N1031  H1032   1.031   .     S
C1033  H1034   1.109   .     S
C1033  H1036   1.110   .     S
C1033  H1035   1.110   .     S
N1037  C1039   1.448   .     S
N1037  H1038   1.031   .     S
C1039  H1040   1.110   .     S
C1039  H1041   1.107   .     S
C1039  H1042   1.111   .     S
N1043  H1044   1.031   .     S
N1043  C1045   1.447   .     S
C1045  H1047   1.109   .     S
C1045  H1048   1.110   .     S
C1045  H1046   1.110   .     S
N1049  H1050   1.031   .     S
N1049  C1051   1.448   .     S
C1051  H1052   1.111   .     S
C1051  H1053   1.108   .     S
C1051  H1054   1.112   .     S
O1055  C1059   1.274   .     A
O1055  Cu1067  1.940   .     S
O1056  C1060   1.274   .     A
O1056  Cu1068  1.940   .     S
O1057  Cu1067  1.941   .     S
O1057  C1060   1.275   .     A
O1058  Cu1068  1.941   .     S
O1058  C1059   1.275   .     A
C1059  C1087   1.410   .     S
C1060  C1088   1.410   .     S
O1061  C1065   1.278   .     A
O1061  Cu1067  1.969   .     S
O1062  C1066   1.275   .     A
O1062  Cu1068  1.969   .     S
O1063  C1066   1.275   .     A
O1063  Cu1067  1.969   .     S
O1064  C1065   1.278   .     A
O1064  Cu1068  1.969   .     S
C1065  C1076   1.460   .     S
C1066  C1075   1.448   .     S
Cu1067 N1070   1.978   .     S
Cu1067 Cu1068  2.632   .     S
Cu1068 N1069   1.978   .     S
N1070  N325    1.196   1_556 S
C1071  C1079   1.411   .     A
C1071  N1093   1.426   .     S
C1071  C1075   1.397   .     A
C1072  C1080   1.416   .     A
C1072  N1099   1.427   .     S
C1072  C1076   1.406   .     A
C1073  C1077   1.411   .     A
C1073  C1075   1.397   .     A
C1073  N1105   1.426   .     S
C1074  C1076   1.407   .     A
C1074  N1111   1.427   .     S
C1074  C1078   1.416   .     A
C1077  C1081   1.421   .     A
C1077  C1083   1.411   .     A
C1078  C1082   1.427   .     A
C1078  C1084   1.425   .     A
C1079  C1085   1.411   .     A
C1079  C1081   1.421   .     A
C1080  C1086   1.424   .     A
C1080  C1082   1.427   .     A
C1081  C1020   1.415   1_655 S
C1083  Cl1089  1.775   .     S
C1083  C1024   1.398   1_655 S
C1084  Cl1090  1.779   .     S
C1085  Cl1091  1.775   .     S
C1085  C1022   1.398   1_655 S
C1086  Cl1092  1.779   .     S
C1088  C839    1.191   1_565 S
N1093  C1095   1.447   .     S
N1093  H1094   1.031   .     S
C1095  H1096   1.109   .     S
C1095  H1098   1.110   .     S
C1095  H1097   1.110   .     S
N1099  C1101   1.448   .     S
N1099  H1100   1.031   .     S
C1101  H1102   1.110   .     S
C1101  H1103   1.107   .     S
C1101  H1104   1.111   .     S
N1105  H1106   1.031   .     S
N1105  C1107   1.447   .     S
C1107  H1109   1.109   .     S
C1107  H1110   1.110   .     S
C1107  H1108   1.110   .     S
N1111  H1112   1.031   .     S
N1111  C1113   1.448   .     S
C1113  H1114   1.111   .     S
C1113  H1115   1.108   .     S
C1113  H1116   1.112   .     S
