data_str_m2_o10_o17_pcu_sym.18
_audit_creation_date              2020-01-03
_audit_creation_method            'Materials Studio'
_symmetry_space_group_name_H-M    'P1'
_symmetry_Int_Tables_number       1
_symmetry_cell_setting            triclinic
loop_
_symmetry_equiv_pos_as_xyz
  x,y,z
_cell_length_a                    30.1234
_cell_length_b                    26.0428
_cell_length_c                    22.5164
_cell_angle_alpha                 103.1762
_cell_angle_beta                  95.3840
_cell_angle_gamma                 93.5186
loop_
_atom_site_label
_atom_site_type_symbol
_atom_site_fract_x
_atom_site_fract_y
_atom_site_fract_z
_atom_site_U_iso_or_equiv
_atom_site_adp_type
_atom_site_occupancy
C1     C     0.24859   0.06657   0.15101   0.00000  Uiso   1.00
C2     C     0.08758   0.14581   0.11122   0.00000  Uiso   1.00
C3     C     0.38416   0.16849   0.16696   0.00000  Uiso   1.00
C4     C     0.11584   0.16485   0.16637   0.00000  Uiso   1.00
C5     C     0.40228   0.14965   0.11187   0.00000  Uiso   1.00
C6     C     0.09772   0.18368   0.22147   0.00000  Uiso   1.00
C7     C     0.44841   0.14862   0.11124   0.00000  Uiso   1.00
C8     C     0.05159   0.18471   0.22209   0.00000  Uiso   1.00
C9     C     0.47676   0.16720   0.16670   0.00000  Uiso   1.00
C10    C     0.02324   0.16613   0.16663   0.00000  Uiso   1.00
C11    C     0.45868   0.18687   0.22223   0.00000  Uiso   1.00
C12    C     0.25141   0.26676   0.18233   0.00000  Uiso   1.00
C13    C     0.04132   0.14646   0.11110   0.00000  Uiso   1.00
C14    C     0.46669   0.12900   0.05631   0.00000  Uiso   1.00
C15    C     0.03331   0.20433   0.27702   0.00000  Uiso   1.00
C16    C     0.20540   0.11538   0.30892   0.00000  Uiso   1.00
C17    C     0.29460   0.21795   0.02442   0.00000  Uiso   1.00
C18    C     0.01282   0.12790   0.05636   0.00000  Uiso   1.00
C19    C     0.48718   0.20544   0.27697   0.00000  Uiso   1.00
C20    C     0.24785   0.01048   0.14235   0.00000  Uiso   1.00
C21    C     0.25215   0.32285   0.19099   0.00000  Uiso   1.00
C22    C     0.16435   0.16581   0.16663   0.00000  Uiso   1.00
C23    C     0.33565   0.16753   0.16671   0.00000  Uiso   1.00
C24    C     0.41242   0.18752   0.22211   0.00000  Uiso   1.00
Cu25   Cu    0.25500   0.17246   0.22813   0.00000  Uiso   1.00
Cu26   Cu    0.24499   0.16087   0.10521   0.00000  Uiso   1.00
F27    F     0.39515   0.20726   0.27556   0.00000  Uiso   1.00
F28    F     0.10485   0.12607   0.05778   0.00000  Uiso   1.00
F29    F     0.44000   0.11083   0.00254   0.00000  Uiso   1.00
F30    F     0.06000   0.22250   0.33079   0.00000  Uiso   1.00
H31    H     0.38033   0.13502   0.06956   0.00000  Uiso   1.00
H32    H     0.11967   0.19831   0.26377   0.00000  Uiso   1.00
H33    H     0.02613   0.11263   0.01335   0.00000  Uiso   1.00
H34    H     0.47387   0.22070   0.31999   0.00000  Uiso   1.00
H35    H     0.24376   0.31968   0.09560   0.00000  Uiso   1.00
H36    H     0.25624   0.01366   0.23773   0.00000  Uiso   1.00
N37    N     0.23744   0.15214   0.01284   0.00000  Uiso   1.00
N38    N     0.26255   0.18119   0.32049   0.00000  Uiso   1.00
N39    N     0.17844   0.08448   0.27849   0.00000  Uiso   1.00
N40    N     0.32156   0.24886   0.05485   0.00000  Uiso   1.00
O41    O     0.25325   0.09538   0.20659   0.00000  Uiso   1.00
O42    O     0.24674   0.23796   0.12674   0.00000  Uiso   1.00
O43    O     0.24480   0.08559   0.10279   0.00000  Uiso   1.00
O44    O     0.25520   0.24774   0.23055   0.00000  Uiso   1.00
O45    O     0.18935   0.17155   0.21857   0.00000  Uiso   1.00
O46    O     0.31064   0.16179   0.11476   0.00000  Uiso   1.00
O47    O     0.18090   0.16176   0.11477   0.00000  Uiso   1.00
O48    O     0.31910   0.17157   0.21857   0.00000  Uiso   1.00
C49    C     0.74859   0.06657   0.15101   0.00000  Uiso   1.00
C50    C     0.58758   0.14581   0.11122   0.00000  Uiso   1.00
C51    C     0.88416   0.16849   0.16696   0.00000  Uiso   1.00
C52    C     0.61584   0.16485   0.16637   0.00000  Uiso   1.00
C53    C     0.90228   0.14965   0.11187   0.00000  Uiso   1.00
C54    C     0.59772   0.18368   0.22147   0.00000  Uiso   1.00
C55    C     0.94841   0.14862   0.11124   0.00000  Uiso   1.00
C56    C     0.55159   0.18471   0.22209   0.00000  Uiso   1.00
C57    C     0.97676   0.16720   0.16670   0.00000  Uiso   1.00
C58    C     0.52324   0.16613   0.16663   0.00000  Uiso   1.00
C59    C     0.95868   0.18687   0.22223   0.00000  Uiso   1.00
C60    C     0.75141   0.26676   0.18233   0.00000  Uiso   1.00
C61    C     0.54132   0.14646   0.11110   0.00000  Uiso   1.00
C62    C     0.96669   0.12900   0.05631   0.00000  Uiso   1.00
C63    C     0.53331   0.20433   0.27702   0.00000  Uiso   1.00
C64    C     0.70540   0.11538   0.30892   0.00000  Uiso   1.00
C65    C     0.79460   0.21795   0.02442   0.00000  Uiso   1.00
C66    C     0.51282   0.12790   0.05636   0.00000  Uiso   1.00
C67    C     0.98718   0.20544   0.27697   0.00000  Uiso   1.00
C68    C     0.74785   0.01048   0.14235   0.00000  Uiso   1.00
C69    C     0.75215   0.32285   0.19099   0.00000  Uiso   1.00
C70    C     0.66435   0.16581   0.16663   0.00000  Uiso   1.00
C71    C     0.83565   0.16753   0.16671   0.00000  Uiso   1.00
C72    C     0.91242   0.18752   0.22211   0.00000  Uiso   1.00
Cu73   Cu    0.75500   0.17246   0.22813   0.00000  Uiso   1.00
Cu74   Cu    0.74499   0.16087   0.10521   0.00000  Uiso   1.00
F75    F     0.89515   0.20726   0.27556   0.00000  Uiso   1.00
F76    F     0.60485   0.12607   0.05778   0.00000  Uiso   1.00
F77    F     0.94000   0.11083   0.00254   0.00000  Uiso   1.00
F78    F     0.56000   0.22250   0.33079   0.00000  Uiso   1.00
H79    H     0.88033   0.13502   0.06956   0.00000  Uiso   1.00
H80    H     0.61967   0.19831   0.26377   0.00000  Uiso   1.00
H81    H     0.52613   0.11263   0.01335   0.00000  Uiso   1.00
H82    H     0.97387   0.22070   0.31999   0.00000  Uiso   1.00
H83    H     0.74376   0.31968   0.09560   0.00000  Uiso   1.00
H84    H     0.75624   0.01366   0.23773   0.00000  Uiso   1.00
N85    N     0.73744   0.15214   0.01284   0.00000  Uiso   1.00
N86    N     0.76255   0.18119   0.32049   0.00000  Uiso   1.00
N87    N     0.67844   0.08448   0.27849   0.00000  Uiso   1.00
N88    N     0.82156   0.24886   0.05485   0.00000  Uiso   1.00
O89    O     0.75325   0.09538   0.20659   0.00000  Uiso   1.00
O90    O     0.74674   0.23796   0.12674   0.00000  Uiso   1.00
O91    O     0.74480   0.08559   0.10279   0.00000  Uiso   1.00
O92    O     0.75520   0.24774   0.23055   0.00000  Uiso   1.00
O93    O     0.68935   0.17155   0.21857   0.00000  Uiso   1.00
O94    O     0.81064   0.16179   0.11476   0.00000  Uiso   1.00
O95    O     0.68090   0.16176   0.11477   0.00000  Uiso   1.00
O96    O     0.81910   0.17157   0.21857   0.00000  Uiso   1.00
C97    C     0.24859   0.39991   0.15101   0.00000  Uiso   1.00
C98    C     0.08758   0.47915   0.11122   0.00000  Uiso   1.00
C99    C     0.38416   0.50182   0.16696   0.00000  Uiso   1.00
C100   C     0.11584   0.49818   0.16637   0.00000  Uiso   1.00
C101   C     0.40228   0.48298   0.11187   0.00000  Uiso   1.00
C102   C     0.09772   0.51702   0.22147   0.00000  Uiso   1.00
C103   C     0.44841   0.48195   0.11124   0.00000  Uiso   1.00
C104   C     0.05159   0.51805   0.22209   0.00000  Uiso   1.00
C105   C     0.47676   0.50054   0.16670   0.00000  Uiso   1.00
C106   C     0.02324   0.49947   0.16663   0.00000  Uiso   1.00
C107   C     0.45868   0.52020   0.22223   0.00000  Uiso   1.00
C108   C     0.25141   0.60009   0.18233   0.00000  Uiso   1.00
C109   C     0.04132   0.47980   0.11110   0.00000  Uiso   1.00
C110   C     0.46669   0.46233   0.05631   0.00000  Uiso   1.00
C111   C     0.03331   0.53767   0.27702   0.00000  Uiso   1.00
C112   C     0.20540   0.44872   0.30892   0.00000  Uiso   1.00
C113   C     0.29460   0.55128   0.02442   0.00000  Uiso   1.00
C114   C     0.01282   0.46123   0.05636   0.00000  Uiso   1.00
C115   C     0.48718   0.53877   0.27697   0.00000  Uiso   1.00
C116   C     0.24785   0.34381   0.14235   0.00000  Uiso   1.00
C117   C     0.25215   0.65619   0.19099   0.00000  Uiso   1.00
C118   C     0.16435   0.49914   0.16663   0.00000  Uiso   1.00
C119   C     0.33565   0.50086   0.16671   0.00000  Uiso   1.00
C120   C     0.41242   0.52086   0.22211   0.00000  Uiso   1.00
Cu121  Cu    0.25500   0.50579   0.22813   0.00000  Uiso   1.00
Cu122  Cu    0.24499   0.49421   0.10521   0.00000  Uiso   1.00
F123   F     0.39515   0.54059   0.27556   0.00000  Uiso   1.00
F124   F     0.10485   0.45941   0.05778   0.00000  Uiso   1.00
F125   F     0.44000   0.44416   0.00254   0.00000  Uiso   1.00
F126   F     0.06000   0.55584   0.33079   0.00000  Uiso   1.00
H127   H     0.38033   0.46836   0.06956   0.00000  Uiso   1.00
H128   H     0.11967   0.53164   0.26377   0.00000  Uiso   1.00
H129   H     0.02613   0.44596   0.01335   0.00000  Uiso   1.00
H130   H     0.47387   0.55404   0.31999   0.00000  Uiso   1.00
H131   H     0.24376   0.65301   0.09560   0.00000  Uiso   1.00
H132   H     0.25624   0.34699   0.23773   0.00000  Uiso   1.00
N133   N     0.23744   0.48547   0.01284   0.00000  Uiso   1.00
N134   N     0.26255   0.51453   0.32049   0.00000  Uiso   1.00
N135   N     0.17844   0.41781   0.27849   0.00000  Uiso   1.00
N136   N     0.32156   0.58219   0.05485   0.00000  Uiso   1.00
O137   O     0.25325   0.42871   0.20659   0.00000  Uiso   1.00
O138   O     0.24674   0.57129   0.12674   0.00000  Uiso   1.00
O139   O     0.24480   0.41892   0.10279   0.00000  Uiso   1.00
O140   O     0.25520   0.58108   0.23055   0.00000  Uiso   1.00
O141   O     0.18935   0.50488   0.21857   0.00000  Uiso   1.00
O142   O     0.31064   0.49512   0.11476   0.00000  Uiso   1.00
O143   O     0.18090   0.49510   0.11477   0.00000  Uiso   1.00
O144   O     0.31910   0.50490   0.21857   0.00000  Uiso   1.00
C145   C     0.74859   0.39991   0.15101   0.00000  Uiso   1.00
C146   C     0.58758   0.47915   0.11122   0.00000  Uiso   1.00
C147   C     0.88416   0.50182   0.16696   0.00000  Uiso   1.00
C148   C     0.61584   0.49818   0.16637   0.00000  Uiso   1.00
C149   C     0.90228   0.48298   0.11187   0.00000  Uiso   1.00
C150   C     0.59772   0.51702   0.22147   0.00000  Uiso   1.00
C151   C     0.94841   0.48195   0.11124   0.00000  Uiso   1.00
C152   C     0.55159   0.51805   0.22209   0.00000  Uiso   1.00
C153   C     0.97676   0.50054   0.16670   0.00000  Uiso   1.00
C154   C     0.52324   0.49947   0.16663   0.00000  Uiso   1.00
C155   C     0.95868   0.52020   0.22223   0.00000  Uiso   1.00
C156   C     0.75141   0.60009   0.18233   0.00000  Uiso   1.00
C157   C     0.54132   0.47980   0.11110   0.00000  Uiso   1.00
C158   C     0.96669   0.46233   0.05631   0.00000  Uiso   1.00
C159   C     0.53331   0.53767   0.27702   0.00000  Uiso   1.00
C160   C     0.70540   0.44872   0.30892   0.00000  Uiso   1.00
C161   C     0.79460   0.55128   0.02442   0.00000  Uiso   1.00
C162   C     0.51282   0.46123   0.05636   0.00000  Uiso   1.00
C163   C     0.98718   0.53877   0.27697   0.00000  Uiso   1.00
C164   C     0.74785   0.34381   0.14235   0.00000  Uiso   1.00
C165   C     0.75215   0.65619   0.19099   0.00000  Uiso   1.00
C166   C     0.66435   0.49914   0.16663   0.00000  Uiso   1.00
C167   C     0.83565   0.50086   0.16671   0.00000  Uiso   1.00
C168   C     0.91242   0.52086   0.22211   0.00000  Uiso   1.00
Cu169  Cu    0.75500   0.50579   0.22813   0.00000  Uiso   1.00
Cu170  Cu    0.74499   0.49421   0.10521   0.00000  Uiso   1.00
F171   F     0.89515   0.54059   0.27556   0.00000  Uiso   1.00
F172   F     0.60485   0.45941   0.05778   0.00000  Uiso   1.00
F173   F     0.94000   0.44416   0.00254   0.00000  Uiso   1.00
F174   F     0.56000   0.55584   0.33079   0.00000  Uiso   1.00
H175   H     0.88033   0.46836   0.06956   0.00000  Uiso   1.00
H176   H     0.61967   0.53164   0.26377   0.00000  Uiso   1.00
H177   H     0.52613   0.44596   0.01335   0.00000  Uiso   1.00
H178   H     0.97387   0.55404   0.31999   0.00000  Uiso   1.00
H179   H     0.74376   0.65301   0.09560   0.00000  Uiso   1.00
H180   H     0.75624   0.34699   0.23773   0.00000  Uiso   1.00
N181   N     0.73744   0.48547   0.01284   0.00000  Uiso   1.00
N182   N     0.76255   0.51453   0.32049   0.00000  Uiso   1.00
N183   N     0.67844   0.41781   0.27849   0.00000  Uiso   1.00
N184   N     0.82156   0.58219   0.05485   0.00000  Uiso   1.00
O185   O     0.75325   0.42871   0.20659   0.00000  Uiso   1.00
O186   O     0.74674   0.57129   0.12674   0.00000  Uiso   1.00
O187   O     0.74480   0.41892   0.10279   0.00000  Uiso   1.00
O188   O     0.75520   0.58108   0.23055   0.00000  Uiso   1.00
O189   O     0.68935   0.50488   0.21857   0.00000  Uiso   1.00
O190   O     0.81064   0.49512   0.11476   0.00000  Uiso   1.00
O191   O     0.68090   0.49510   0.11477   0.00000  Uiso   1.00
O192   O     0.81910   0.50490   0.21857   0.00000  Uiso   1.00
C193   C     0.24859   0.73324   0.15101   0.00000  Uiso   1.00
C194   C     0.08758   0.81248   0.11122   0.00000  Uiso   1.00
C195   C     0.38416   0.83516   0.16696   0.00000  Uiso   1.00
C196   C     0.11584   0.83151   0.16637   0.00000  Uiso   1.00
C197   C     0.40228   0.81632   0.11187   0.00000  Uiso   1.00
C198   C     0.09772   0.85035   0.22147   0.00000  Uiso   1.00
C199   C     0.44841   0.81529   0.11124   0.00000  Uiso   1.00
C200   C     0.05159   0.85138   0.22209   0.00000  Uiso   1.00
C201   C     0.47676   0.83387   0.16670   0.00000  Uiso   1.00
C202   C     0.02324   0.83280   0.16663   0.00000  Uiso   1.00
C203   C     0.45868   0.85354   0.22223   0.00000  Uiso   1.00
C204   C     0.25141   0.93343   0.18233   0.00000  Uiso   1.00
C205   C     0.04132   0.81313   0.11110   0.00000  Uiso   1.00
C206   C     0.46669   0.79567   0.05631   0.00000  Uiso   1.00
C207   C     0.03331   0.87100   0.27702   0.00000  Uiso   1.00
C208   C     0.20540   0.78205   0.30892   0.00000  Uiso   1.00
C209   C     0.29460   0.88462   0.02442   0.00000  Uiso   1.00
C210   C     0.01282   0.79456   0.05636   0.00000  Uiso   1.00
C211   C     0.48718   0.87210   0.27697   0.00000  Uiso   1.00
C212   C     0.24785   0.67715   0.14235   0.00000  Uiso   1.00
C213   C     0.25215   0.98952   0.19099   0.00000  Uiso   1.00
C214   C     0.16435   0.83247   0.16663   0.00000  Uiso   1.00
C215   C     0.33565   0.83419   0.16671   0.00000  Uiso   1.00
C216   C     0.41242   0.85419   0.22211   0.00000  Uiso   1.00
Cu217  Cu    0.25500   0.83913   0.22813   0.00000  Uiso   1.00
Cu218  Cu    0.24499   0.82754   0.10521   0.00000  Uiso   1.00
F219   F     0.39515   0.87393   0.27556   0.00000  Uiso   1.00
F220   F     0.10485   0.79274   0.05778   0.00000  Uiso   1.00
F221   F     0.44000   0.77750   0.00254   0.00000  Uiso   1.00
F222   F     0.06000   0.88917   0.33079   0.00000  Uiso   1.00
H223   H     0.38033   0.80169   0.06956   0.00000  Uiso   1.00
H224   H     0.11967   0.86498   0.26377   0.00000  Uiso   1.00
H225   H     0.02613   0.77930   0.01335   0.00000  Uiso   1.00
H226   H     0.47387   0.88737   0.31999   0.00000  Uiso   1.00
H227   H     0.24376   0.98634   0.09560   0.00000  Uiso   1.00
H228   H     0.25624   0.68032   0.23773   0.00000  Uiso   1.00
N229   N     0.23744   0.81881   0.01284   0.00000  Uiso   1.00
N230   N     0.26255   0.84786   0.32049   0.00000  Uiso   1.00
N231   N     0.17844   0.75114   0.27849   0.00000  Uiso   1.00
N232   N     0.32156   0.91552   0.05485   0.00000  Uiso   1.00
O233   O     0.25325   0.76204   0.20659   0.00000  Uiso   1.00
O234   O     0.24674   0.90462   0.12674   0.00000  Uiso   1.00
O235   O     0.24480   0.75226   0.10279   0.00000  Uiso   1.00
O236   O     0.25520   0.91441   0.23055   0.00000  Uiso   1.00
O237   O     0.18935   0.83821   0.21857   0.00000  Uiso   1.00
O238   O     0.31064   0.82845   0.11476   0.00000  Uiso   1.00
O239   O     0.18090   0.82843   0.11477   0.00000  Uiso   1.00
O240   O     0.31910   0.83824   0.21857   0.00000  Uiso   1.00
C241   C     0.74859   0.73324   0.15101   0.00000  Uiso   1.00
C242   C     0.58758   0.81248   0.11122   0.00000  Uiso   1.00
C243   C     0.88416   0.83516   0.16696   0.00000  Uiso   1.00
C244   C     0.61584   0.83151   0.16637   0.00000  Uiso   1.00
C245   C     0.90228   0.81632   0.11187   0.00000  Uiso   1.00
C246   C     0.59772   0.85035   0.22147   0.00000  Uiso   1.00
C247   C     0.94841   0.81529   0.11124   0.00000  Uiso   1.00
C248   C     0.55159   0.85138   0.22209   0.00000  Uiso   1.00
C249   C     0.97676   0.83387   0.16670   0.00000  Uiso   1.00
C250   C     0.52324   0.83280   0.16663   0.00000  Uiso   1.00
C251   C     0.95868   0.85354   0.22223   0.00000  Uiso   1.00
C252   C     0.75141   0.93343   0.18233   0.00000  Uiso   1.00
C253   C     0.54132   0.81313   0.11110   0.00000  Uiso   1.00
C254   C     0.96669   0.79567   0.05631   0.00000  Uiso   1.00
C255   C     0.53331   0.87100   0.27702   0.00000  Uiso   1.00
C256   C     0.70540   0.78205   0.30892   0.00000  Uiso   1.00
C257   C     0.79460   0.88462   0.02442   0.00000  Uiso   1.00
C258   C     0.51282   0.79456   0.05636   0.00000  Uiso   1.00
C259   C     0.98718   0.87210   0.27697   0.00000  Uiso   1.00
C260   C     0.74785   0.67715   0.14235   0.00000  Uiso   1.00
C261   C     0.75215   0.98952   0.19099   0.00000  Uiso   1.00
C262   C     0.66435   0.83247   0.16663   0.00000  Uiso   1.00
C263   C     0.83565   0.83419   0.16671   0.00000  Uiso   1.00
C264   C     0.91242   0.85419   0.22211   0.00000  Uiso   1.00
Cu265  Cu    0.75500   0.83913   0.22813   0.00000  Uiso   1.00
Cu266  Cu    0.74499   0.82754   0.10521   0.00000  Uiso   1.00
F267   F     0.89515   0.87393   0.27556   0.00000  Uiso   1.00
F268   F     0.60485   0.79274   0.05778   0.00000  Uiso   1.00
F269   F     0.94000   0.77750   0.00254   0.00000  Uiso   1.00
F270   F     0.56000   0.88917   0.33079   0.00000  Uiso   1.00
H271   H     0.88033   0.80169   0.06956   0.00000  Uiso   1.00
H272   H     0.61967   0.86498   0.26377   0.00000  Uiso   1.00
H273   H     0.52613   0.77930   0.01335   0.00000  Uiso   1.00
H274   H     0.97387   0.88737   0.31999   0.00000  Uiso   1.00
H275   H     0.74376   0.98634   0.09560   0.00000  Uiso   1.00
H276   H     0.75624   0.68032   0.23773   0.00000  Uiso   1.00
N277   N     0.73744   0.81881   0.01284   0.00000  Uiso   1.00
N278   N     0.76255   0.84786   0.32049   0.00000  Uiso   1.00
N279   N     0.67844   0.75114   0.27849   0.00000  Uiso   1.00
N280   N     0.82156   0.91552   0.05485   0.00000  Uiso   1.00
O281   O     0.75325   0.76204   0.20659   0.00000  Uiso   1.00
O282   O     0.74674   0.90462   0.12674   0.00000  Uiso   1.00
O283   O     0.74480   0.75226   0.10279   0.00000  Uiso   1.00
O284   O     0.75520   0.91441   0.23055   0.00000  Uiso   1.00
O285   O     0.68935   0.83821   0.21857   0.00000  Uiso   1.00
O286   O     0.81064   0.82845   0.11476   0.00000  Uiso   1.00
O287   O     0.68090   0.82843   0.11477   0.00000  Uiso   1.00
O288   O     0.81910   0.83824   0.21857   0.00000  Uiso   1.00
C289   C     0.24859   0.06657   0.48434   0.00000  Uiso   1.00
C290   C     0.08758   0.14581   0.44455   0.00000  Uiso   1.00
C291   C     0.38416   0.16849   0.50030   0.00000  Uiso   1.00
C292   C     0.11584   0.16485   0.49970   0.00000  Uiso   1.00
C293   C     0.40228   0.14965   0.44520   0.00000  Uiso   1.00
C294   C     0.09772   0.18368   0.55480   0.00000  Uiso   1.00
C295   C     0.44841   0.14862   0.44458   0.00000  Uiso   1.00
C296   C     0.05159   0.18471   0.55542   0.00000  Uiso   1.00
C297   C     0.47676   0.16720   0.50003   0.00000  Uiso   1.00
C298   C     0.02324   0.16613   0.49997   0.00000  Uiso   1.00
C299   C     0.45868   0.18687   0.55557   0.00000  Uiso   1.00
C300   C     0.25141   0.26676   0.51566   0.00000  Uiso   1.00
C301   C     0.04132   0.14646   0.44443   0.00000  Uiso   1.00
C302   C     0.46669   0.12900   0.38964   0.00000  Uiso   1.00
C303   C     0.03331   0.20433   0.61036   0.00000  Uiso   1.00
C304   C     0.20540   0.11538   0.64225   0.00000  Uiso   1.00
C305   C     0.29460   0.21795   0.35775   0.00000  Uiso   1.00
C306   C     0.01282   0.12790   0.38970   0.00000  Uiso   1.00
C307   C     0.48718   0.20544   0.61030   0.00000  Uiso   1.00
C308   C     0.24785   0.01048   0.47568   0.00000  Uiso   1.00
C309   C     0.25215   0.32285   0.52432   0.00000  Uiso   1.00
C310   C     0.16435   0.16581   0.49996   0.00000  Uiso   1.00
C311   C     0.33565   0.16753   0.50004   0.00000  Uiso   1.00
C312   C     0.41242   0.18752   0.55545   0.00000  Uiso   1.00
Cu313  Cu    0.25500   0.17246   0.56146   0.00000  Uiso   1.00
Cu314  Cu    0.24499   0.16087   0.43854   0.00000  Uiso   1.00
F315   F     0.39515   0.20726   0.60889   0.00000  Uiso   1.00
F316   F     0.10485   0.12607   0.39111   0.00000  Uiso   1.00
F317   F     0.44000   0.11083   0.33588   0.00000  Uiso   1.00
F318   F     0.06000   0.22250   0.66412   0.00000  Uiso   1.00
H319   H     0.38033   0.13502   0.40289   0.00000  Uiso   1.00
H320   H     0.11967   0.19831   0.59711   0.00000  Uiso   1.00
H321   H     0.02613   0.11263   0.34668   0.00000  Uiso   1.00
H322   H     0.47387   0.22070   0.65332   0.00000  Uiso   1.00
H323   H     0.24376   0.31968   0.42893   0.00000  Uiso   1.00
H324   H     0.25624   0.01366   0.57107   0.00000  Uiso   1.00
N325   N     0.23744   0.15214   0.34617   0.00000  Uiso   1.00
N326   N     0.26255   0.18119   0.65383   0.00000  Uiso   1.00
N327   N     0.17844   0.08448   0.61182   0.00000  Uiso   1.00
N328   N     0.32156   0.24886   0.38818   0.00000  Uiso   1.00
O329   O     0.25325   0.09538   0.53992   0.00000  Uiso   1.00
O330   O     0.24674   0.23796   0.46008   0.00000  Uiso   1.00
O331   O     0.24480   0.08559   0.43612   0.00000  Uiso   1.00
O332   O     0.25520   0.24774   0.56388   0.00000  Uiso   1.00
O333   O     0.18935   0.17155   0.55191   0.00000  Uiso   1.00
O334   O     0.31064   0.16179   0.44809   0.00000  Uiso   1.00
O335   O     0.18090   0.16176   0.44810   0.00000  Uiso   1.00
O336   O     0.31910   0.17157   0.55190   0.00000  Uiso   1.00
C337   C     0.74859   0.06657   0.48434   0.00000  Uiso   1.00
C338   C     0.58758   0.14581   0.44455   0.00000  Uiso   1.00
C339   C     0.88416   0.16849   0.50030   0.00000  Uiso   1.00
C340   C     0.61584   0.16485   0.49970   0.00000  Uiso   1.00
C341   C     0.90228   0.14965   0.44520   0.00000  Uiso   1.00
C342   C     0.59772   0.18368   0.55480   0.00000  Uiso   1.00
C343   C     0.94841   0.14862   0.44458   0.00000  Uiso   1.00
C344   C     0.55159   0.18471   0.55542   0.00000  Uiso   1.00
C345   C     0.97676   0.16720   0.50003   0.00000  Uiso   1.00
C346   C     0.52324   0.16613   0.49997   0.00000  Uiso   1.00
C347   C     0.95868   0.18687   0.55557   0.00000  Uiso   1.00
C348   C     0.75141   0.26676   0.51566   0.00000  Uiso   1.00
C349   C     0.54132   0.14646   0.44443   0.00000  Uiso   1.00
C350   C     0.96669   0.12900   0.38964   0.00000  Uiso   1.00
C351   C     0.53331   0.20433   0.61036   0.00000  Uiso   1.00
C352   C     0.70540   0.11538   0.64225   0.00000  Uiso   1.00
C353   C     0.79460   0.21795   0.35775   0.00000  Uiso   1.00
C354   C     0.51282   0.12790   0.38970   0.00000  Uiso   1.00
C355   C     0.98718   0.20544   0.61030   0.00000  Uiso   1.00
C356   C     0.74785   0.01048   0.47568   0.00000  Uiso   1.00
C357   C     0.75215   0.32285   0.52432   0.00000  Uiso   1.00
C358   C     0.66435   0.16581   0.49996   0.00000  Uiso   1.00
C359   C     0.83565   0.16753   0.50004   0.00000  Uiso   1.00
C360   C     0.91242   0.18752   0.55545   0.00000  Uiso   1.00
Cu361  Cu    0.75500   0.17246   0.56146   0.00000  Uiso   1.00
Cu362  Cu    0.74499   0.16087   0.43854   0.00000  Uiso   1.00
F363   F     0.89515   0.20726   0.60889   0.00000  Uiso   1.00
F364   F     0.60485   0.12607   0.39111   0.00000  Uiso   1.00
F365   F     0.94000   0.11083   0.33588   0.00000  Uiso   1.00
F366   F     0.56000   0.22250   0.66412   0.00000  Uiso   1.00
H367   H     0.88033   0.13502   0.40289   0.00000  Uiso   1.00
H368   H     0.61967   0.19831   0.59711   0.00000  Uiso   1.00
H369   H     0.52613   0.11263   0.34668   0.00000  Uiso   1.00
H370   H     0.97387   0.22070   0.65332   0.00000  Uiso   1.00
H371   H     0.74376   0.31968   0.42893   0.00000  Uiso   1.00
H372   H     0.75624   0.01366   0.57107   0.00000  Uiso   1.00
N373   N     0.73744   0.15214   0.34617   0.00000  Uiso   1.00
N374   N     0.76255   0.18119   0.65383   0.00000  Uiso   1.00
N375   N     0.67844   0.08448   0.61182   0.00000  Uiso   1.00
N376   N     0.82156   0.24886   0.38818   0.00000  Uiso   1.00
O377   O     0.75325   0.09538   0.53992   0.00000  Uiso   1.00
O378   O     0.74674   0.23796   0.46008   0.00000  Uiso   1.00
O379   O     0.74480   0.08559   0.43612   0.00000  Uiso   1.00
O380   O     0.75520   0.24774   0.56388   0.00000  Uiso   1.00
O381   O     0.68935   0.17155   0.55191   0.00000  Uiso   1.00
O382   O     0.81064   0.16179   0.44809   0.00000  Uiso   1.00
O383   O     0.68090   0.16176   0.44810   0.00000  Uiso   1.00
O384   O     0.81910   0.17157   0.55190   0.00000  Uiso   1.00
C385   C     0.24859   0.39991   0.48434   0.00000  Uiso   1.00
C386   C     0.08758   0.47915   0.44455   0.00000  Uiso   1.00
C387   C     0.38416   0.50182   0.50030   0.00000  Uiso   1.00
C388   C     0.11584   0.49818   0.49970   0.00000  Uiso   1.00
C389   C     0.40228   0.48298   0.44520   0.00000  Uiso   1.00
C390   C     0.09772   0.51702   0.55480   0.00000  Uiso   1.00
C391   C     0.44841   0.48195   0.44458   0.00000  Uiso   1.00
C392   C     0.05159   0.51805   0.55542   0.00000  Uiso   1.00
C393   C     0.47676   0.50054   0.50003   0.00000  Uiso   1.00
C394   C     0.02324   0.49947   0.49997   0.00000  Uiso   1.00
C395   C     0.45868   0.52020   0.55557   0.00000  Uiso   1.00
C396   C     0.25141   0.60009   0.51566   0.00000  Uiso   1.00
C397   C     0.04132   0.47980   0.44443   0.00000  Uiso   1.00
C398   C     0.46669   0.46233   0.38964   0.00000  Uiso   1.00
C399   C     0.03331   0.53767   0.61036   0.00000  Uiso   1.00
C400   C     0.20540   0.44872   0.64225   0.00000  Uiso   1.00
C401   C     0.29460   0.55128   0.35775   0.00000  Uiso   1.00
C402   C     0.01282   0.46123   0.38970   0.00000  Uiso   1.00
C403   C     0.48718   0.53877   0.61030   0.00000  Uiso   1.00
C404   C     0.24785   0.34381   0.47568   0.00000  Uiso   1.00
C405   C     0.25215   0.65619   0.52432   0.00000  Uiso   1.00
C406   C     0.16435   0.49914   0.49996   0.00000  Uiso   1.00
C407   C     0.33565   0.50086   0.50004   0.00000  Uiso   1.00
C408   C     0.41242   0.52086   0.55545   0.00000  Uiso   1.00
Cu409  Cu    0.25500   0.50579   0.56146   0.00000  Uiso   1.00
Cu410  Cu    0.24499   0.49421   0.43854   0.00000  Uiso   1.00
F411   F     0.39515   0.54059   0.60889   0.00000  Uiso   1.00
F412   F     0.10485   0.45941   0.39111   0.00000  Uiso   1.00
F413   F     0.44000   0.44416   0.33588   0.00000  Uiso   1.00
F414   F     0.06000   0.55584   0.66412   0.00000  Uiso   1.00
H415   H     0.38033   0.46836   0.40289   0.00000  Uiso   1.00
H416   H     0.11967   0.53164   0.59711   0.00000  Uiso   1.00
H417   H     0.02613   0.44596   0.34668   0.00000  Uiso   1.00
H418   H     0.47387   0.55404   0.65332   0.00000  Uiso   1.00
H419   H     0.24376   0.65301   0.42893   0.00000  Uiso   1.00
H420   H     0.25624   0.34699   0.57107   0.00000  Uiso   1.00
N421   N     0.23744   0.48547   0.34617   0.00000  Uiso   1.00
N422   N     0.26255   0.51453   0.65383   0.00000  Uiso   1.00
N423   N     0.17844   0.41781   0.61182   0.00000  Uiso   1.00
N424   N     0.32156   0.58219   0.38818   0.00000  Uiso   1.00
O425   O     0.25325   0.42871   0.53992   0.00000  Uiso   1.00
O426   O     0.24674   0.57129   0.46008   0.00000  Uiso   1.00
O427   O     0.24480   0.41892   0.43612   0.00000  Uiso   1.00
O428   O     0.25520   0.58108   0.56388   0.00000  Uiso   1.00
O429   O     0.18935   0.50488   0.55191   0.00000  Uiso   1.00
O430   O     0.31064   0.49512   0.44809   0.00000  Uiso   1.00
O431   O     0.18090   0.49510   0.44810   0.00000  Uiso   1.00
O432   O     0.31910   0.50490   0.55190   0.00000  Uiso   1.00
C433   C     0.74859   0.39991   0.48434   0.00000  Uiso   1.00
C434   C     0.58758   0.47915   0.44455   0.00000  Uiso   1.00
C435   C     0.88416   0.50182   0.50030   0.00000  Uiso   1.00
C436   C     0.61584   0.49818   0.49970   0.00000  Uiso   1.00
C437   C     0.90228   0.48298   0.44520   0.00000  Uiso   1.00
C438   C     0.59772   0.51702   0.55480   0.00000  Uiso   1.00
C439   C     0.94841   0.48195   0.44458   0.00000  Uiso   1.00
C440   C     0.55159   0.51805   0.55542   0.00000  Uiso   1.00
C441   C     0.97676   0.50054   0.50003   0.00000  Uiso   1.00
C442   C     0.52324   0.49947   0.49997   0.00000  Uiso   1.00
C443   C     0.95868   0.52020   0.55557   0.00000  Uiso   1.00
C444   C     0.75141   0.60009   0.51566   0.00000  Uiso   1.00
C445   C     0.54132   0.47980   0.44443   0.00000  Uiso   1.00
C446   C     0.96669   0.46233   0.38964   0.00000  Uiso   1.00
C447   C     0.53331   0.53767   0.61036   0.00000  Uiso   1.00
C448   C     0.70540   0.44872   0.64225   0.00000  Uiso   1.00
C449   C     0.79460   0.55128   0.35775   0.00000  Uiso   1.00
C450   C     0.51282   0.46123   0.38970   0.00000  Uiso   1.00
C451   C     0.98718   0.53877   0.61030   0.00000  Uiso   1.00
C452   C     0.74785   0.34381   0.47568   0.00000  Uiso   1.00
C453   C     0.75215   0.65619   0.52432   0.00000  Uiso   1.00
C454   C     0.66435   0.49914   0.49996   0.00000  Uiso   1.00
C455   C     0.83565   0.50086   0.50004   0.00000  Uiso   1.00
C456   C     0.91242   0.52086   0.55545   0.00000  Uiso   1.00
Cu457  Cu    0.75500   0.50579   0.56146   0.00000  Uiso   1.00
Cu458  Cu    0.74499   0.49421   0.43854   0.00000  Uiso   1.00
F459   F     0.89515   0.54059   0.60889   0.00000  Uiso   1.00
F460   F     0.60485   0.45941   0.39111   0.00000  Uiso   1.00
F461   F     0.94000   0.44416   0.33588   0.00000  Uiso   1.00
F462   F     0.56000   0.55584   0.66412   0.00000  Uiso   1.00
H463   H     0.88033   0.46836   0.40289   0.00000  Uiso   1.00
H464   H     0.61967   0.53164   0.59711   0.00000  Uiso   1.00
H465   H     0.52613   0.44596   0.34668   0.00000  Uiso   1.00
H466   H     0.97387   0.55404   0.65332   0.00000  Uiso   1.00
H467   H     0.74376   0.65301   0.42893   0.00000  Uiso   1.00
H468   H     0.75624   0.34699   0.57107   0.00000  Uiso   1.00
N469   N     0.73744   0.48547   0.34617   0.00000  Uiso   1.00
N470   N     0.76255   0.51453   0.65383   0.00000  Uiso   1.00
N471   N     0.67844   0.41781   0.61182   0.00000  Uiso   1.00
N472   N     0.82156   0.58219   0.38818   0.00000  Uiso   1.00
O473   O     0.75325   0.42871   0.53992   0.00000  Uiso   1.00
O474   O     0.74674   0.57129   0.46008   0.00000  Uiso   1.00
O475   O     0.74480   0.41892   0.43612   0.00000  Uiso   1.00
O476   O     0.75520   0.58108   0.56388   0.00000  Uiso   1.00
O477   O     0.68935   0.50488   0.55191   0.00000  Uiso   1.00
O478   O     0.81064   0.49512   0.44809   0.00000  Uiso   1.00
O479   O     0.68090   0.49510   0.44810   0.00000  Uiso   1.00
O480   O     0.81910   0.50490   0.55190   0.00000  Uiso   1.00
C481   C     0.24859   0.73324   0.48434   0.00000  Uiso   1.00
C482   C     0.08758   0.81248   0.44455   0.00000  Uiso   1.00
C483   C     0.38416   0.83516   0.50030   0.00000  Uiso   1.00
C484   C     0.11584   0.83151   0.49970   0.00000  Uiso   1.00
C485   C     0.40228   0.81632   0.44520   0.00000  Uiso   1.00
C486   C     0.09772   0.85035   0.55480   0.00000  Uiso   1.00
C487   C     0.44841   0.81529   0.44458   0.00000  Uiso   1.00
C488   C     0.05159   0.85138   0.55542   0.00000  Uiso   1.00
C489   C     0.47676   0.83387   0.50003   0.00000  Uiso   1.00
C490   C     0.02324   0.83280   0.49997   0.00000  Uiso   1.00
C491   C     0.45868   0.85354   0.55557   0.00000  Uiso   1.00
C492   C     0.25141   0.93343   0.51566   0.00000  Uiso   1.00
C493   C     0.04132   0.81313   0.44443   0.00000  Uiso   1.00
C494   C     0.46669   0.79567   0.38964   0.00000  Uiso   1.00
C495   C     0.03331   0.87100   0.61036   0.00000  Uiso   1.00
C496   C     0.20540   0.78205   0.64225   0.00000  Uiso   1.00
C497   C     0.29460   0.88462   0.35775   0.00000  Uiso   1.00
C498   C     0.01282   0.79456   0.38970   0.00000  Uiso   1.00
C499   C     0.48718   0.87210   0.61030   0.00000  Uiso   1.00
C500   C     0.24785   0.67715   0.47568   0.00000  Uiso   1.00
C501   C     0.25215   0.98952   0.52432   0.00000  Uiso   1.00
C502   C     0.16435   0.83247   0.49996   0.00000  Uiso   1.00
C503   C     0.33565   0.83419   0.50004   0.00000  Uiso   1.00
C504   C     0.41242   0.85419   0.55545   0.00000  Uiso   1.00
Cu505  Cu    0.25500   0.83913   0.56146   0.00000  Uiso   1.00
Cu506  Cu    0.24499   0.82754   0.43854   0.00000  Uiso   1.00
F507   F     0.39515   0.87393   0.60889   0.00000  Uiso   1.00
F508   F     0.10485   0.79274   0.39111   0.00000  Uiso   1.00
F509   F     0.44000   0.77750   0.33588   0.00000  Uiso   1.00
F510   F     0.06000   0.88917   0.66412   0.00000  Uiso   1.00
H511   H     0.38033   0.80169   0.40289   0.00000  Uiso   1.00
H512   H     0.11967   0.86498   0.59711   0.00000  Uiso   1.00
H513   H     0.02613   0.77930   0.34668   0.00000  Uiso   1.00
H514   H     0.47387   0.88737   0.65332   0.00000  Uiso   1.00
H515   H     0.24376   0.98634   0.42893   0.00000  Uiso   1.00
H516   H     0.25624   0.68032   0.57107   0.00000  Uiso   1.00
N517   N     0.23744   0.81881   0.34617   0.00000  Uiso   1.00
N518   N     0.26255   0.84786   0.65383   0.00000  Uiso   1.00
N519   N     0.17844   0.75114   0.61182   0.00000  Uiso   1.00
N520   N     0.32156   0.91552   0.38818   0.00000  Uiso   1.00
O521   O     0.25325   0.76204   0.53992   0.00000  Uiso   1.00
O522   O     0.24674   0.90462   0.46008   0.00000  Uiso   1.00
O523   O     0.24480   0.75226   0.43612   0.00000  Uiso   1.00
O524   O     0.25520   0.91441   0.56388   0.00000  Uiso   1.00
O525   O     0.18935   0.83821   0.55191   0.00000  Uiso   1.00
O526   O     0.31064   0.82845   0.44809   0.00000  Uiso   1.00
O527   O     0.18090   0.82843   0.44810   0.00000  Uiso   1.00
O528   O     0.31910   0.83824   0.55190   0.00000  Uiso   1.00
C529   C     0.74859   0.73324   0.48434   0.00000  Uiso   1.00
C530   C     0.58758   0.81248   0.44455   0.00000  Uiso   1.00
C531   C     0.88416   0.83516   0.50030   0.00000  Uiso   1.00
C532   C     0.61584   0.83151   0.49970   0.00000  Uiso   1.00
C533   C     0.90228   0.81632   0.44520   0.00000  Uiso   1.00
C534   C     0.59772   0.85035   0.55480   0.00000  Uiso   1.00
C535   C     0.94841   0.81529   0.44458   0.00000  Uiso   1.00
C536   C     0.55159   0.85138   0.55542   0.00000  Uiso   1.00
C537   C     0.97676   0.83387   0.50003   0.00000  Uiso   1.00
C538   C     0.52324   0.83280   0.49997   0.00000  Uiso   1.00
C539   C     0.95868   0.85354   0.55557   0.00000  Uiso   1.00
C540   C     0.75141   0.93343   0.51566   0.00000  Uiso   1.00
C541   C     0.54132   0.81313   0.44443   0.00000  Uiso   1.00
C542   C     0.96669   0.79567   0.38964   0.00000  Uiso   1.00
C543   C     0.53331   0.87100   0.61036   0.00000  Uiso   1.00
C544   C     0.70540   0.78205   0.64225   0.00000  Uiso   1.00
C545   C     0.79460   0.88462   0.35775   0.00000  Uiso   1.00
C546   C     0.51282   0.79456   0.38970   0.00000  Uiso   1.00
C547   C     0.98718   0.87210   0.61030   0.00000  Uiso   1.00
C548   C     0.74785   0.67715   0.47568   0.00000  Uiso   1.00
C549   C     0.75215   0.98952   0.52432   0.00000  Uiso   1.00
C550   C     0.66435   0.83247   0.49996   0.00000  Uiso   1.00
C551   C     0.83565   0.83419   0.50004   0.00000  Uiso   1.00
C552   C     0.91242   0.85419   0.55545   0.00000  Uiso   1.00
Cu553  Cu    0.75500   0.83913   0.56146   0.00000  Uiso   1.00
Cu554  Cu    0.74499   0.82754   0.43854   0.00000  Uiso   1.00
F555   F     0.89515   0.87393   0.60889   0.00000  Uiso   1.00
F556   F     0.60485   0.79274   0.39111   0.00000  Uiso   1.00
F557   F     0.94000   0.77750   0.33588   0.00000  Uiso   1.00
F558   F     0.56000   0.88917   0.66412   0.00000  Uiso   1.00
H559   H     0.88033   0.80169   0.40289   0.00000  Uiso   1.00
H560   H     0.61967   0.86498   0.59711   0.00000  Uiso   1.00
H561   H     0.52613   0.77930   0.34668   0.00000  Uiso   1.00
H562   H     0.97387   0.88737   0.65332   0.00000  Uiso   1.00
H563   H     0.74376   0.98634   0.42893   0.00000  Uiso   1.00
H564   H     0.75624   0.68032   0.57107   0.00000  Uiso   1.00
N565   N     0.73744   0.81881   0.34617   0.00000  Uiso   1.00
N566   N     0.76255   0.84786   0.65383   0.00000  Uiso   1.00
N567   N     0.67844   0.75114   0.61182   0.00000  Uiso   1.00
N568   N     0.82156   0.91552   0.38818   0.00000  Uiso   1.00
O569   O     0.75325   0.76204   0.53992   0.00000  Uiso   1.00
O570   O     0.74674   0.90462   0.46008   0.00000  Uiso   1.00
O571   O     0.74480   0.75226   0.43612   0.00000  Uiso   1.00
O572   O     0.75520   0.91441   0.56388   0.00000  Uiso   1.00
O573   O     0.68935   0.83821   0.55191   0.00000  Uiso   1.00
O574   O     0.81064   0.82845   0.44809   0.00000  Uiso   1.00
O575   O     0.68090   0.82843   0.44810   0.00000  Uiso   1.00
O576   O     0.81910   0.83824   0.55190   0.00000  Uiso   1.00
C577   C     0.24859   0.06657   0.81767   0.00000  Uiso   1.00
C578   C     0.08758   0.14581   0.77789   0.00000  Uiso   1.00
C579   C     0.38416   0.16849   0.83363   0.00000  Uiso   1.00
C580   C     0.11584   0.16485   0.83304   0.00000  Uiso   1.00
C581   C     0.40228   0.14965   0.77853   0.00000  Uiso   1.00
C582   C     0.09772   0.18368   0.88813   0.00000  Uiso   1.00
C583   C     0.44841   0.14862   0.77791   0.00000  Uiso   1.00
C584   C     0.05159   0.18471   0.88876   0.00000  Uiso   1.00
C585   C     0.47676   0.16720   0.83337   0.00000  Uiso   1.00
C586   C     0.02324   0.16613   0.83330   0.00000  Uiso   1.00
C587   C     0.45868   0.18687   0.88890   0.00000  Uiso   1.00
C588   C     0.25141   0.26676   0.84899   0.00000  Uiso   1.00
C589   C     0.04132   0.14646   0.77777   0.00000  Uiso   1.00
C590   C     0.46669   0.12900   0.72298   0.00000  Uiso   1.00
C591   C     0.03331   0.20433   0.94369   0.00000  Uiso   1.00
C592   C     0.20540   0.11538   0.97558   0.00000  Uiso   1.00
C593   C     0.29460   0.21795   0.69109   0.00000  Uiso   1.00
C594   C     0.01282   0.12790   0.72303   0.00000  Uiso   1.00
C595   C     0.48718   0.20544   0.94364   0.00000  Uiso   1.00
C596   C     0.24785   0.01048   0.80901   0.00000  Uiso   1.00
C597   C     0.25215   0.32285   0.85765   0.00000  Uiso   1.00
C598   C     0.16435   0.16581   0.83329   0.00000  Uiso   1.00
C599   C     0.33565   0.16753   0.83337   0.00000  Uiso   1.00
C600   C     0.41242   0.18752   0.88878   0.00000  Uiso   1.00
Cu601  Cu    0.25500   0.17246   0.89479   0.00000  Uiso   1.00
Cu602  Cu    0.24499   0.16087   0.77187   0.00000  Uiso   1.00
F603   F     0.39515   0.20726   0.94222   0.00000  Uiso   1.00
F604   F     0.10485   0.12607   0.72445   0.00000  Uiso   1.00
F605   F     0.44000   0.11083   0.66921   0.00000  Uiso   1.00
F606   F     0.06000   0.22250   0.99746   0.00000  Uiso   1.00
H607   H     0.38033   0.13502   0.73623   0.00000  Uiso   1.00
H608   H     0.11967   0.19831   0.93044   0.00000  Uiso   1.00
H609   H     0.02613   0.11263   0.68001   0.00000  Uiso   1.00
H610   H     0.47387   0.22070   0.98665   0.00000  Uiso   1.00
H611   H     0.24376   0.31968   0.76227   0.00000  Uiso   1.00
H612   H     0.25624   0.01366   0.90440   0.00000  Uiso   1.00
N613   N     0.23744   0.15214   0.67951   0.00000  Uiso   1.00
N614   N     0.26255   0.18119   0.98716   0.00000  Uiso   1.00
N615   N     0.17844   0.08448   0.94515   0.00000  Uiso   1.00
N616   N     0.32156   0.24886   0.72151   0.00000  Uiso   1.00
O617   O     0.25325   0.09538   0.87326   0.00000  Uiso   1.00
O618   O     0.24674   0.23796   0.79341   0.00000  Uiso   1.00
O619   O     0.24480   0.08559   0.76945   0.00000  Uiso   1.00
O620   O     0.25520   0.24774   0.89721   0.00000  Uiso   1.00
O621   O     0.18935   0.17155   0.88524   0.00000  Uiso   1.00
O622   O     0.31064   0.16179   0.78143   0.00000  Uiso   1.00
O623   O     0.18090   0.16176   0.78143   0.00000  Uiso   1.00
O624   O     0.31910   0.17157   0.88523   0.00000  Uiso   1.00
C625   C     0.74859   0.06657   0.81767   0.00000  Uiso   1.00
C626   C     0.58758   0.14581   0.77789   0.00000  Uiso   1.00
C627   C     0.88416   0.16849   0.83363   0.00000  Uiso   1.00
C628   C     0.61584   0.16485   0.83304   0.00000  Uiso   1.00
C629   C     0.90228   0.14965   0.77853   0.00000  Uiso   1.00
C630   C     0.59772   0.18368   0.88813   0.00000  Uiso   1.00
C631   C     0.94841   0.14862   0.77791   0.00000  Uiso   1.00
C632   C     0.55159   0.18471   0.88876   0.00000  Uiso   1.00
C633   C     0.97676   0.16720   0.83337   0.00000  Uiso   1.00
C634   C     0.52324   0.16613   0.83330   0.00000  Uiso   1.00
C635   C     0.95868   0.18687   0.88890   0.00000  Uiso   1.00
C636   C     0.75141   0.26676   0.84899   0.00000  Uiso   1.00
C637   C     0.54132   0.14646   0.77777   0.00000  Uiso   1.00
C638   C     0.96669   0.12900   0.72298   0.00000  Uiso   1.00
C639   C     0.53331   0.20433   0.94369   0.00000  Uiso   1.00
C640   C     0.70540   0.11538   0.97558   0.00000  Uiso   1.00
C641   C     0.79460   0.21795   0.69109   0.00000  Uiso   1.00
C642   C     0.51282   0.12790   0.72303   0.00000  Uiso   1.00
C643   C     0.98718   0.20544   0.94364   0.00000  Uiso   1.00
C644   C     0.74785   0.01048   0.80901   0.00000  Uiso   1.00
C645   C     0.75215   0.32285   0.85765   0.00000  Uiso   1.00
C646   C     0.66435   0.16581   0.83329   0.00000  Uiso   1.00
C647   C     0.83565   0.16753   0.83337   0.00000  Uiso   1.00
C648   C     0.91242   0.18752   0.88878   0.00000  Uiso   1.00
Cu649  Cu    0.75500   0.17246   0.89479   0.00000  Uiso   1.00
Cu650  Cu    0.74499   0.16087   0.77187   0.00000  Uiso   1.00
F651   F     0.89515   0.20726   0.94222   0.00000  Uiso   1.00
F652   F     0.60485   0.12607   0.72445   0.00000  Uiso   1.00
F653   F     0.94000   0.11083   0.66921   0.00000  Uiso   1.00
F654   F     0.56000   0.22250   0.99746   0.00000  Uiso   1.00
H655   H     0.88033   0.13502   0.73623   0.00000  Uiso   1.00
H656   H     0.61967   0.19831   0.93044   0.00000  Uiso   1.00
H657   H     0.52613   0.11263   0.68001   0.00000  Uiso   1.00
H658   H     0.97387   0.22070   0.98665   0.00000  Uiso   1.00
H659   H     0.74376   0.31968   0.76227   0.00000  Uiso   1.00
H660   H     0.75624   0.01366   0.90440   0.00000  Uiso   1.00
N661   N     0.73744   0.15214   0.67951   0.00000  Uiso   1.00
N662   N     0.76255   0.18119   0.98716   0.00000  Uiso   1.00
N663   N     0.67844   0.08448   0.94515   0.00000  Uiso   1.00
N664   N     0.82156   0.24886   0.72151   0.00000  Uiso   1.00
O665   O     0.75325   0.09538   0.87326   0.00000  Uiso   1.00
O666   O     0.74674   0.23796   0.79341   0.00000  Uiso   1.00
O667   O     0.74480   0.08559   0.76945   0.00000  Uiso   1.00
O668   O     0.75520   0.24774   0.89721   0.00000  Uiso   1.00
O669   O     0.68935   0.17155   0.88524   0.00000  Uiso   1.00
O670   O     0.81064   0.16179   0.78143   0.00000  Uiso   1.00
O671   O     0.68090   0.16176   0.78143   0.00000  Uiso   1.00
O672   O     0.81910   0.17157   0.88523   0.00000  Uiso   1.00
C673   C     0.24859   0.39991   0.81767   0.00000  Uiso   1.00
C674   C     0.08758   0.47915   0.77789   0.00000  Uiso   1.00
C675   C     0.38416   0.50182   0.83363   0.00000  Uiso   1.00
C676   C     0.11584   0.49818   0.83304   0.00000  Uiso   1.00
C677   C     0.40228   0.48298   0.77853   0.00000  Uiso   1.00
C678   C     0.09772   0.51702   0.88813   0.00000  Uiso   1.00
C679   C     0.44841   0.48195   0.77791   0.00000  Uiso   1.00
C680   C     0.05159   0.51805   0.88876   0.00000  Uiso   1.00
C681   C     0.47676   0.50054   0.83337   0.00000  Uiso   1.00
C682   C     0.02324   0.49947   0.83330   0.00000  Uiso   1.00
C683   C     0.45868   0.52020   0.88890   0.00000  Uiso   1.00
C684   C     0.25141   0.60009   0.84899   0.00000  Uiso   1.00
C685   C     0.04132   0.47980   0.77777   0.00000  Uiso   1.00
C686   C     0.46669   0.46233   0.72298   0.00000  Uiso   1.00
C687   C     0.03331   0.53767   0.94369   0.00000  Uiso   1.00
C688   C     0.20540   0.44872   0.97558   0.00000  Uiso   1.00
C689   C     0.29460   0.55128   0.69109   0.00000  Uiso   1.00
C690   C     0.01282   0.46123   0.72303   0.00000  Uiso   1.00
C691   C     0.48718   0.53877   0.94364   0.00000  Uiso   1.00
C692   C     0.24785   0.34381   0.80901   0.00000  Uiso   1.00
C693   C     0.25215   0.65619   0.85765   0.00000  Uiso   1.00
C694   C     0.16435   0.49914   0.83329   0.00000  Uiso   1.00
C695   C     0.33565   0.50086   0.83337   0.00000  Uiso   1.00
C696   C     0.41242   0.52086   0.88878   0.00000  Uiso   1.00
Cu697  Cu    0.25500   0.50579   0.89479   0.00000  Uiso   1.00
Cu698  Cu    0.24499   0.49421   0.77187   0.00000  Uiso   1.00
F699   F     0.39515   0.54059   0.94222   0.00000  Uiso   1.00
F700   F     0.10485   0.45941   0.72445   0.00000  Uiso   1.00
F701   F     0.44000   0.44416   0.66921   0.00000  Uiso   1.00
F702   F     0.06000   0.55584   0.99746   0.00000  Uiso   1.00
H703   H     0.38033   0.46836   0.73623   0.00000  Uiso   1.00
H704   H     0.11967   0.53164   0.93044   0.00000  Uiso   1.00
H705   H     0.02613   0.44596   0.68001   0.00000  Uiso   1.00
H706   H     0.47387   0.55404   0.98665   0.00000  Uiso   1.00
H707   H     0.24376   0.65301   0.76227   0.00000  Uiso   1.00
H708   H     0.25624   0.34699   0.90440   0.00000  Uiso   1.00
N709   N     0.23744   0.48547   0.67951   0.00000  Uiso   1.00
N710   N     0.26255   0.51453   0.98716   0.00000  Uiso   1.00
N711   N     0.17844   0.41781   0.94515   0.00000  Uiso   1.00
N712   N     0.32156   0.58219   0.72151   0.00000  Uiso   1.00
O713   O     0.25325   0.42871   0.87326   0.00000  Uiso   1.00
O714   O     0.24674   0.57129   0.79341   0.00000  Uiso   1.00
O715   O     0.24480   0.41892   0.76945   0.00000  Uiso   1.00
O716   O     0.25520   0.58108   0.89721   0.00000  Uiso   1.00
O717   O     0.18935   0.50488   0.88524   0.00000  Uiso   1.00
O718   O     0.31064   0.49512   0.78143   0.00000  Uiso   1.00
O719   O     0.18090   0.49510   0.78143   0.00000  Uiso   1.00
O720   O     0.31910   0.50490   0.88523   0.00000  Uiso   1.00
C721   C     0.74859   0.39991   0.81767   0.00000  Uiso   1.00
C722   C     0.58758   0.47915   0.77789   0.00000  Uiso   1.00
C723   C     0.88416   0.50182   0.83363   0.00000  Uiso   1.00
C724   C     0.61584   0.49818   0.83304   0.00000  Uiso   1.00
C725   C     0.90228   0.48298   0.77853   0.00000  Uiso   1.00
C726   C     0.59772   0.51702   0.88813   0.00000  Uiso   1.00
C727   C     0.94841   0.48195   0.77791   0.00000  Uiso   1.00
C728   C     0.55159   0.51805   0.88876   0.00000  Uiso   1.00
C729   C     0.97676   0.50054   0.83337   0.00000  Uiso   1.00
C730   C     0.52324   0.49947   0.83330   0.00000  Uiso   1.00
C731   C     0.95868   0.52020   0.88890   0.00000  Uiso   1.00
C732   C     0.75141   0.60009   0.84899   0.00000  Uiso   1.00
C733   C     0.54132   0.47980   0.77777   0.00000  Uiso   1.00
C734   C     0.96669   0.46233   0.72298   0.00000  Uiso   1.00
C735   C     0.53331   0.53767   0.94369   0.00000  Uiso   1.00
C736   C     0.70540   0.44872   0.97558   0.00000  Uiso   1.00
C737   C     0.79460   0.55128   0.69109   0.00000  Uiso   1.00
C738   C     0.51282   0.46123   0.72303   0.00000  Uiso   1.00
C739   C     0.98718   0.53877   0.94364   0.00000  Uiso   1.00
C740   C     0.74785   0.34381   0.80901   0.00000  Uiso   1.00
C741   C     0.75215   0.65619   0.85765   0.00000  Uiso   1.00
C742   C     0.66435   0.49914   0.83329   0.00000  Uiso   1.00
C743   C     0.83565   0.50086   0.83337   0.00000  Uiso   1.00
C744   C     0.91242   0.52086   0.88878   0.00000  Uiso   1.00
Cu745  Cu    0.75500   0.50579   0.89479   0.00000  Uiso   1.00
Cu746  Cu    0.74499   0.49421   0.77187   0.00000  Uiso   1.00
F747   F     0.89515   0.54059   0.94222   0.00000  Uiso   1.00
F748   F     0.60485   0.45941   0.72445   0.00000  Uiso   1.00
F749   F     0.94000   0.44416   0.66921   0.00000  Uiso   1.00
F750   F     0.56000   0.55584   0.99746   0.00000  Uiso   1.00
H751   H     0.88033   0.46836   0.73623   0.00000  Uiso   1.00
H752   H     0.61967   0.53164   0.93044   0.00000  Uiso   1.00
H753   H     0.52613   0.44596   0.68001   0.00000  Uiso   1.00
H754   H     0.97387   0.55404   0.98665   0.00000  Uiso   1.00
H755   H     0.74376   0.65301   0.76227   0.00000  Uiso   1.00
H756   H     0.75624   0.34699   0.90440   0.00000  Uiso   1.00
N757   N     0.73744   0.48547   0.67951   0.00000  Uiso   1.00
N758   N     0.76255   0.51453   0.98716   0.00000  Uiso   1.00
N759   N     0.67844   0.41781   0.94515   0.00000  Uiso   1.00
N760   N     0.82156   0.58219   0.72151   0.00000  Uiso   1.00
O761   O     0.75325   0.42871   0.87326   0.00000  Uiso   1.00
O762   O     0.74674   0.57129   0.79341   0.00000  Uiso   1.00
O763   O     0.74480   0.41892   0.76945   0.00000  Uiso   1.00
O764   O     0.75520   0.58108   0.89721   0.00000  Uiso   1.00
O765   O     0.68935   0.50488   0.88524   0.00000  Uiso   1.00
O766   O     0.81064   0.49512   0.78143   0.00000  Uiso   1.00
O767   O     0.68090   0.49510   0.78143   0.00000  Uiso   1.00
O768   O     0.81910   0.50490   0.88523   0.00000  Uiso   1.00
C769   C     0.24859   0.73324   0.81767   0.00000  Uiso   1.00
C770   C     0.08758   0.81248   0.77789   0.00000  Uiso   1.00
C771   C     0.38416   0.83516   0.83363   0.00000  Uiso   1.00
C772   C     0.11584   0.83151   0.83304   0.00000  Uiso   1.00
C773   C     0.40228   0.81632   0.77853   0.00000  Uiso   1.00
C774   C     0.09772   0.85035   0.88813   0.00000  Uiso   1.00
C775   C     0.44841   0.81529   0.77791   0.00000  Uiso   1.00
C776   C     0.05159   0.85138   0.88876   0.00000  Uiso   1.00
C777   C     0.47676   0.83387   0.83337   0.00000  Uiso   1.00
C778   C     0.02324   0.83280   0.83330   0.00000  Uiso   1.00
C779   C     0.45868   0.85354   0.88890   0.00000  Uiso   1.00
C780   C     0.25141   0.93343   0.84899   0.00000  Uiso   1.00
C781   C     0.04132   0.81313   0.77777   0.00000  Uiso   1.00
C782   C     0.46669   0.79567   0.72298   0.00000  Uiso   1.00
C783   C     0.03331   0.87100   0.94369   0.00000  Uiso   1.00
C784   C     0.20540   0.78205   0.97558   0.00000  Uiso   1.00
C785   C     0.29460   0.88462   0.69109   0.00000  Uiso   1.00
C786   C     0.01282   0.79456   0.72303   0.00000  Uiso   1.00
C787   C     0.48718   0.87210   0.94364   0.00000  Uiso   1.00
C788   C     0.24785   0.67715   0.80901   0.00000  Uiso   1.00
C789   C     0.25215   0.98952   0.85765   0.00000  Uiso   1.00
C790   C     0.16435   0.83247   0.83329   0.00000  Uiso   1.00
C791   C     0.33565   0.83419   0.83337   0.00000  Uiso   1.00
C792   C     0.41242   0.85419   0.88878   0.00000  Uiso   1.00
Cu793  Cu    0.25500   0.83913   0.89479   0.00000  Uiso   1.00
Cu794  Cu    0.24499   0.82754   0.77187   0.00000  Uiso   1.00
F795   F     0.39515   0.87393   0.94222   0.00000  Uiso   1.00
F796   F     0.10485   0.79274   0.72445   0.00000  Uiso   1.00
F797   F     0.44000   0.77750   0.66921   0.00000  Uiso   1.00
F798   F     0.06000   0.88917   0.99746   0.00000  Uiso   1.00
H799   H     0.38033   0.80169   0.73623   0.00000  Uiso   1.00
H800   H     0.11967   0.86498   0.93044   0.00000  Uiso   1.00
H801   H     0.02613   0.77930   0.68001   0.00000  Uiso   1.00
H802   H     0.47387   0.88737   0.98665   0.00000  Uiso   1.00
H803   H     0.24376   0.98634   0.76227   0.00000  Uiso   1.00
H804   H     0.25624   0.68032   0.90440   0.00000  Uiso   1.00
N805   N     0.23744   0.81881   0.67951   0.00000  Uiso   1.00
N806   N     0.26255   0.84786   0.98716   0.00000  Uiso   1.00
N807   N     0.17844   0.75114   0.94515   0.00000  Uiso   1.00
N808   N     0.32156   0.91552   0.72151   0.00000  Uiso   1.00
O809   O     0.25325   0.76204   0.87326   0.00000  Uiso   1.00
O810   O     0.24674   0.90462   0.79341   0.00000  Uiso   1.00
O811   O     0.24480   0.75226   0.76945   0.00000  Uiso   1.00
O812   O     0.25520   0.91441   0.89721   0.00000  Uiso   1.00
O813   O     0.18935   0.83821   0.88524   0.00000  Uiso   1.00
O814   O     0.31064   0.82845   0.78143   0.00000  Uiso   1.00
O815   O     0.18090   0.82843   0.78143   0.00000  Uiso   1.00
O816   O     0.31910   0.83824   0.88523   0.00000  Uiso   1.00
C817   C     0.74859   0.73324   0.81767   0.00000  Uiso   1.00
C818   C     0.58758   0.81248   0.77789   0.00000  Uiso   1.00
C819   C     0.88416   0.83516   0.83363   0.00000  Uiso   1.00
C820   C     0.61584   0.83151   0.83304   0.00000  Uiso   1.00
C821   C     0.90228   0.81632   0.77853   0.00000  Uiso   1.00
C822   C     0.59772   0.85035   0.88813   0.00000  Uiso   1.00
C823   C     0.94841   0.81529   0.77791   0.00000  Uiso   1.00
C824   C     0.55159   0.85138   0.88876   0.00000  Uiso   1.00
C825   C     0.97676   0.83387   0.83337   0.00000  Uiso   1.00
C826   C     0.52324   0.83280   0.83330   0.00000  Uiso   1.00
C827   C     0.95868   0.85354   0.88890   0.00000  Uiso   1.00
C828   C     0.75141   0.93343   0.84899   0.00000  Uiso   1.00
C829   C     0.54132   0.81313   0.77777   0.00000  Uiso   1.00
C830   C     0.96669   0.79567   0.72298   0.00000  Uiso   1.00
C831   C     0.53331   0.87100   0.94369   0.00000  Uiso   1.00
C832   C     0.70540   0.78205   0.97558   0.00000  Uiso   1.00
C833   C     0.79460   0.88462   0.69109   0.00000  Uiso   1.00
C834   C     0.51282   0.79456   0.72303   0.00000  Uiso   1.00
C835   C     0.98718   0.87210   0.94364   0.00000  Uiso   1.00
C836   C     0.74785   0.67715   0.80901   0.00000  Uiso   1.00
C837   C     0.75215   0.98952   0.85765   0.00000  Uiso   1.00
C838   C     0.66435   0.83247   0.83329   0.00000  Uiso   1.00
C839   C     0.83565   0.83419   0.83337   0.00000  Uiso   1.00
C840   C     0.91242   0.85419   0.88878   0.00000  Uiso   1.00
Cu841  Cu    0.75500   0.83913   0.89479   0.00000  Uiso   1.00
Cu842  Cu    0.74499   0.82754   0.77187   0.00000  Uiso   1.00
F843   F     0.89515   0.87393   0.94222   0.00000  Uiso   1.00
F844   F     0.60485   0.79274   0.72445   0.00000  Uiso   1.00
F845   F     0.94000   0.77750   0.66921   0.00000  Uiso   1.00
F846   F     0.56000   0.88917   0.99746   0.00000  Uiso   1.00
H847   H     0.88033   0.80169   0.73623   0.00000  Uiso   1.00
H848   H     0.61967   0.86498   0.93044   0.00000  Uiso   1.00
H849   H     0.52613   0.77930   0.68001   0.00000  Uiso   1.00
H850   H     0.97387   0.88737   0.98665   0.00000  Uiso   1.00
H851   H     0.74376   0.98634   0.76227   0.00000  Uiso   1.00
H852   H     0.75624   0.68032   0.90440   0.00000  Uiso   1.00
N853   N     0.73744   0.81881   0.67951   0.00000  Uiso   1.00
N854   N     0.76255   0.84786   0.98716   0.00000  Uiso   1.00
N855   N     0.67844   0.75114   0.94515   0.00000  Uiso   1.00
N856   N     0.82156   0.91552   0.72151   0.00000  Uiso   1.00
O857   O     0.75325   0.76204   0.87326   0.00000  Uiso   1.00
O858   O     0.74674   0.90462   0.79341   0.00000  Uiso   1.00
O859   O     0.74480   0.75226   0.76945   0.00000  Uiso   1.00
O860   O     0.75520   0.91441   0.89721   0.00000  Uiso   1.00
O861   O     0.68935   0.83821   0.88524   0.00000  Uiso   1.00
O862   O     0.81064   0.82845   0.78143   0.00000  Uiso   1.00
O863   O     0.68090   0.82843   0.78143   0.00000  Uiso   1.00
O864   O     0.81910   0.83824   0.88523   0.00000  Uiso   1.00
loop_
_geom_bond_atom_site_label_1
_geom_bond_atom_site_label_2
_geom_bond_distance
_geom_bond_site_symmetry_2
_ccdc_geom_bond_type
C1     C20     1.428   .     S
C1     O43     1.291   .     A
C1     O41     1.294   .     A
C2     C4      1.408   .     A
C2     F28     1.361   .     S
C2     C13     1.395   .     A
C3     C24     1.408   .     A
C3     C5      1.400   .     A
C3     C23     1.459   .     S
C4     C22     1.459   .     S
C4     C6      1.400   .     A
C5     C7      1.393   .     A
C5     H31     1.084   .     S
C6     H32     1.084   .     S
C6     C8      1.393   .     A
C7     C9      1.413   .     A
C7     C14     1.403   .     A
C8     C10     1.413   .     A
C8     C15     1.403   .     A
C9     C11     1.411   .     A
C9     C58     1.402   .     S
C10    C13     1.411   .     A
C10    C57     1.402   1_455 S
C11    C19     1.403   .     A
C11    C24     1.395   .     A
C12    O44     1.291   .     A
C12    O42     1.294   .     A
C12    C21     1.428   .     S
C13    C18     1.403   .     A
C14    F29     1.358   .     S
C14    C66     1.392   .     S
C15    F30     1.358   .     S
C15    C67     1.392   1_455 S
C16    N39     1.158   .     T
C16    N325    1.386   .     S
C17    N40     1.158   .     T
C17    N614    1.386   1_554 S
C18    H33     1.083   .     S
C18    C62     1.392   1_455 S
C19    H34     1.083   .     S
C19    C63     1.392   .     S
C20    C213    1.330   1_545 S
C20    H227    1.088   1_545 S
C21    C116    1.330   .     S
C21    H132    1.088   .     S
C22    O47     1.297   .     A
C22    O45     1.303   .     A
C23    O46     1.303   .     A
C23    O48     1.297   .     A
C24    F27     1.361   .     S
Cu25   N38     2.029   .     S
Cu25   O48     1.964   .     S
Cu25   O44     1.949   .     S
Cu25   O45     1.967   .     S
Cu25   O41     1.951   .     S
Cu25   Cu26    2.701   .     S
Cu26   N37     2.029   .     S
Cu26   O47     1.964   .     S
Cu26   O43     1.949   .     S
Cu26   O46     1.967   .     S
Cu26   O42     1.951   .     S
H35    C116    1.088   .     S
H36    C213    1.088   1_545 S
N37    C592    1.386   1_554 S
N37    N614    1.300   1_554 S
N38    N325    1.300   .     S
N38    C305    1.386   .     S
C49    C68     1.428   .     S
C49    O91     1.291   .     A
C49    O89     1.294   .     A
C50    C52     1.408   .     A
C50    F76     1.361   .     S
C50    C61     1.395   .     A
C51    C72     1.408   .     A
C51    C53     1.400   .     A
C51    C71     1.459   .     S
C52    C70     1.459   .     S
C52    C54     1.400   .     A
C53    C55     1.393   .     A
C53    H79     1.084   .     S
C54    H80     1.084   .     S
C54    C56     1.393   .     A
C55    C57     1.413   .     A
C55    C62     1.403   .     A
C56    C58     1.413   .     A
C56    C63     1.403   .     A
C57    C59     1.411   .     A
C57    C10     1.402   1_655 S
C58    C61     1.411   .     A
C59    C67     1.403   .     A
C59    C72     1.395   .     A
C60    O92     1.291   .     A
C60    O90     1.294   .     A
C60    C69     1.428   .     S
C61    C66     1.403   .     A
C62    F77     1.358   .     S
C62    C18     1.392   1_655 S
C63    F78     1.358   .     S
C64    N87     1.158   .     T
C64    N373    1.386   .     S
C65    N88     1.158   .     T
C65    N662    1.386   1_554 S
C66    H81     1.083   .     S
C67    H82     1.083   .     S
C67    C15     1.392   1_655 S
C68    C261    1.330   1_545 S
C68    H275    1.088   1_545 S
C69    C164    1.330   .     S
C69    H180    1.088   .     S
C70    O95     1.297   .     A
C70    O93     1.303   .     A
C71    O94     1.303   .     A
C71    O96     1.297   .     A
C72    F75     1.361   .     S
Cu73   N86     2.029   .     S
Cu73   O96     1.964   .     S
Cu73   O92     1.949   .     S
Cu73   O93     1.967   .     S
Cu73   O89     1.951   .     S
Cu73   Cu74    2.701   .     S
Cu74   N85     2.029   .     S
Cu74   O95     1.964   .     S
Cu74   O91     1.949   .     S
Cu74   O94     1.967   .     S
Cu74   O90     1.951   .     S
H83    C164    1.088   .     S
H84    C261    1.088   1_545 S
N85    C640    1.386   1_554 S
N85    N662    1.300   1_554 S
N86    N373    1.300   .     S
N86    C353    1.386   .     S
C97    C116    1.428   .     S
C97    O139    1.291   .     A
C97    O137    1.294   .     A
C98    C100    1.408   .     A
C98    F124    1.361   .     S
C98    C109    1.395   .     A
C99    C120    1.408   .     A
C99    C101    1.400   .     A
C99    C119    1.459   .     S
C100   C118    1.459   .     S
C100   C102    1.400   .     A
C101   C103    1.393   .     A
C101   H127    1.084   .     S
C102   H128    1.084   .     S
C102   C104    1.393   .     A
C103   C105    1.413   .     A
C103   C110    1.403   .     A
C104   C106    1.413   .     A
C104   C111    1.403   .     A
C105   C107    1.411   .     A
C105   C154    1.402   .     S
C106   C109    1.411   .     A
C106   C153    1.402   1_455 S
C107   C115    1.403   .     A
C107   C120    1.395   .     A
C108   O140    1.291   .     A
C108   O138    1.294   .     A
C108   C117    1.428   .     S
C109   C114    1.403   .     A
C110   F125    1.358   .     S
C110   C162    1.392   .     S
C111   F126    1.358   .     S
C111   C163    1.392   1_455 S
C112   N135    1.158   .     T
C112   N421    1.386   .     S
C113   N136    1.158   .     T
C113   N710    1.386   1_554 S
C114   H129    1.083   .     S
C114   C158    1.392   1_455 S
C115   H130    1.083   .     S
C115   C159    1.392   .     S
C117   C212    1.330   .     S
C117   H228    1.088   .     S
C118   O143    1.297   .     A
C118   O141    1.303   .     A
C119   O142    1.303   .     A
C119   O144    1.297   .     A
C120   F123    1.361   .     S
Cu121  N134    2.029   .     S
Cu121  O144    1.964   .     S
Cu121  O140    1.949   .     S
Cu121  O141    1.967   .     S
Cu121  O137    1.951   .     S
Cu121  Cu122   2.701   .     S
Cu122  N133    2.029   .     S
Cu122  O143    1.964   .     S
Cu122  O139    1.949   .     S
Cu122  O142    1.967   .     S
Cu122  O138    1.951   .     S
H131   C212    1.088   .     S
N133   C688    1.386   1_554 S
N133   N710    1.300   1_554 S
N134   N421    1.300   .     S
N134   C401    1.386   .     S
C145   C164    1.428   .     S
C145   O187    1.291   .     A
C145   O185    1.294   .     A
C146   C148    1.408   .     A
C146   F172    1.361   .     S
C146   C157    1.395   .     A
C147   C168    1.408   .     A
C147   C149    1.400   .     A
C147   C167    1.459   .     S
C148   C166    1.459   .     S
C148   C150    1.400   .     A
C149   C151    1.393   .     A
C149   H175    1.084   .     S
C150   H176    1.084   .     S
C150   C152    1.393   .     A
C151   C153    1.413   .     A
C151   C158    1.403   .     A
C152   C154    1.413   .     A
C152   C159    1.403   .     A
C153   C155    1.411   .     A
C153   C106    1.402   1_655 S
C154   C157    1.411   .     A
C155   C163    1.403   .     A
C155   C168    1.395   .     A
C156   O188    1.291   .     A
C156   O186    1.294   .     A
C156   C165    1.428   .     S
C157   C162    1.403   .     A
C158   F173    1.358   .     S
C158   C114    1.392   1_655 S
C159   F174    1.358   .     S
C160   N183    1.158   .     T
C160   N469    1.386   .     S
C161   N184    1.158   .     T
C161   N758    1.386   1_554 S
C162   H177    1.083   .     S
C163   H178    1.083   .     S
C163   C111    1.392   1_655 S
C165   C260    1.330   .     S
C165   H276    1.088   .     S
C166   O191    1.297   .     A
C166   O189    1.303   .     A
C167   O190    1.303   .     A
C167   O192    1.297   .     A
C168   F171    1.361   .     S
Cu169  N182    2.029   .     S
Cu169  O192    1.964   .     S
Cu169  O188    1.949   .     S
Cu169  O189    1.967   .     S
Cu169  O185    1.951   .     S
Cu169  Cu170   2.701   .     S
Cu170  N181    2.029   .     S
Cu170  O191    1.964   .     S
Cu170  O187    1.949   .     S
Cu170  O190    1.967   .     S
Cu170  O186    1.951   .     S
H179   C260    1.088   .     S
N181   C736    1.386   1_554 S
N181   N758    1.300   1_554 S
N182   N469    1.300   .     S
N182   C449    1.386   .     S
C193   C212    1.428   .     S
C193   O235    1.291   .     A
C193   O233    1.294   .     A
C194   C196    1.408   .     A
C194   F220    1.361   .     S
C194   C205    1.395   .     A
C195   C216    1.408   .     A
C195   C197    1.400   .     A
C195   C215    1.459   .     S
C196   C214    1.459   .     S
C196   C198    1.400   .     A
C197   C199    1.393   .     A
C197   H223    1.084   .     S
C198   H224    1.084   .     S
C198   C200    1.393   .     A
C199   C201    1.413   .     A
C199   C206    1.403   .     A
C200   C202    1.413   .     A
C200   C207    1.403   .     A
C201   C203    1.411   .     A
C201   C250    1.402   .     S
C202   C205    1.411   .     A
C202   C249    1.402   1_455 S
C203   C211    1.403   .     A
C203   C216    1.395   .     A
C204   O236    1.291   .     A
C204   O234    1.294   .     A
C204   C213    1.428   .     S
C205   C210    1.403   .     A
C206   F221    1.358   .     S
C206   C258    1.392   .     S
C207   F222    1.358   .     S
C207   C259    1.392   1_455 S
C208   N231    1.158   .     T
C208   N517    1.386   .     S
C209   N232    1.158   .     T
C209   N806    1.386   1_554 S
C210   H225    1.083   .     S
C210   C254    1.392   1_455 S
C211   H226    1.083   .     S
C211   C255    1.392   .     S
C213   C20     1.330   1_565 S
C213   H36     1.088   1_565 S
C214   O239    1.297   .     A
C214   O237    1.303   .     A
C215   O238    1.303   .     A
C215   O240    1.297   .     A
C216   F219    1.361   .     S
Cu217  N230    2.029   .     S
Cu217  O240    1.964   .     S
Cu217  O236    1.949   .     S
Cu217  O237    1.967   .     S
Cu217  O233    1.951   .     S
Cu217  Cu218   2.701   .     S
Cu218  N229    2.029   .     S
Cu218  O239    1.964   .     S
Cu218  O235    1.949   .     S
Cu218  O238    1.967   .     S
Cu218  O234    1.951   .     S
H227   C20     1.088   1_565 S
N229   C784    1.386   1_554 S
N229   N806    1.300   1_554 S
N230   N517    1.300   .     S
N230   C497    1.386   .     S
C241   C260    1.428   .     S
C241   O283    1.291   .     A
C241   O281    1.294   .     A
C242   C244    1.408   .     A
C242   F268    1.361   .     S
C242   C253    1.395   .     A
C243   C264    1.408   .     A
C243   C245    1.400   .     A
C243   C263    1.459   .     S
C244   C262    1.459   .     S
C244   C246    1.400   .     A
C245   C247    1.393   .     A
C245   H271    1.084   .     S
C246   H272    1.084   .     S
C246   C248    1.393   .     A
C247   C249    1.413   .     A
C247   C254    1.403   .     A
C248   C250    1.413   .     A
C248   C255    1.403   .     A
C249   C251    1.411   .     A
C249   C202    1.402   1_655 S
C250   C253    1.411   .     A
C251   C259    1.403   .     A
C251   C264    1.395   .     A
C252   O284    1.291   .     A
C252   O282    1.294   .     A
C252   C261    1.428   .     S
C253   C258    1.403   .     A
C254   F269    1.358   .     S
C254   C210    1.392   1_655 S
C255   F270    1.358   .     S
C256   N279    1.158   .     T
C256   N565    1.386   .     S
C257   N280    1.158   .     T
C257   N854    1.386   1_554 S
C258   H273    1.083   .     S
C259   H274    1.083   .     S
C259   C207    1.392   1_655 S
C261   C68     1.330   1_565 S
C261   H84     1.088   1_565 S
C262   O287    1.297   .     A
C262   O285    1.303   .     A
C263   O286    1.303   .     A
C263   O288    1.297   .     A
C264   F267    1.361   .     S
Cu265  N278    2.029   .     S
Cu265  O288    1.964   .     S
Cu265  O284    1.949   .     S
Cu265  O285    1.967   .     S
Cu265  O281    1.951   .     S
Cu265  Cu266   2.701   .     S
Cu266  N277    2.029   .     S
Cu266  O287    1.964   .     S
Cu266  O283    1.949   .     S
Cu266  O286    1.967   .     S
Cu266  O282    1.951   .     S
H275   C68     1.088   1_565 S
N277   C832    1.386   1_554 S
N277   N854    1.300   1_554 S
N278   N565    1.300   .     S
N278   C545    1.386   .     S
C289   C308    1.428   .     S
C289   O331    1.291   .     A
C289   O329    1.294   .     A
C290   C292    1.408   .     A
C290   F316    1.361   .     S
C290   C301    1.395   .     A
C291   C312    1.408   .     A
C291   C293    1.400   .     A
C291   C311    1.459   .     S
C292   C310    1.459   .     S
C292   C294    1.400   .     A
C293   C295    1.393   .     A
C293   H319    1.084   .     S
C294   H320    1.084   .     S
C294   C296    1.393   .     A
C295   C297    1.413   .     A
C295   C302    1.403   .     A
C296   C298    1.413   .     A
C296   C303    1.403   .     A
C297   C299    1.411   .     A
C297   C346    1.402   .     S
C298   C301    1.411   .     A
C298   C345    1.402   1_455 S
C299   C307    1.403   .     A
C299   C312    1.395   .     A
C300   O332    1.291   .     A
C300   O330    1.294   .     A
C300   C309    1.428   .     S
C301   C306    1.403   .     A
C302   F317    1.358   .     S
C302   C354    1.392   .     S
C303   F318    1.358   .     S
C303   C355    1.392   1_455 S
C304   N327    1.158   .     T
C304   N613    1.386   .     S
C305   N328    1.158   .     T
C306   H321    1.083   .     S
C306   C350    1.392   1_455 S
C307   H322    1.083   .     S
C307   C351    1.392   .     S
C308   C501    1.330   1_545 S
C308   H515    1.088   1_545 S
C309   C404    1.330   .     S
C309   H420    1.088   .     S
C310   O335    1.297   .     A
C310   O333    1.303   .     A
C311   O334    1.303   .     A
C311   O336    1.297   .     A
C312   F315    1.361   .     S
Cu313  N326    2.029   .     S
Cu313  O336    1.964   .     S
Cu313  O332    1.949   .     S
Cu313  O333    1.967   .     S
Cu313  O329    1.951   .     S
Cu313  Cu314   2.701   .     S
Cu314  N325    2.029   .     S
Cu314  O335    1.964   .     S
Cu314  O331    1.949   .     S
Cu314  O334    1.967   .     S
Cu314  O330    1.951   .     S
H323   C404    1.088   .     S
H324   C501    1.088   1_545 S
N326   N613    1.300   .     S
N326   C593    1.386   .     S
C337   C356    1.428   .     S
C337   O379    1.291   .     A
C337   O377    1.294   .     A
C338   C340    1.408   .     A
C338   F364    1.361   .     S
C338   C349    1.395   .     A
C339   C360    1.408   .     A
C339   C341    1.400   .     A
C339   C359    1.459   .     S
C340   C358    1.459   .     S
C340   C342    1.400   .     A
C341   C343    1.393   .     A
C341   H367    1.084   .     S
C342   H368    1.084   .     S
C342   C344    1.393   .     A
C343   C345    1.413   .     A
C343   C350    1.403   .     A
C344   C346    1.413   .     A
C344   C351    1.403   .     A
C345   C347    1.411   .     A
C345   C298    1.402   1_655 S
C346   C349    1.411   .     A
C347   C355    1.403   .     A
C347   C360    1.395   .     A
C348   O380    1.291   .     A
C348   O378    1.294   .     A
C348   C357    1.428   .     S
C349   C354    1.403   .     A
C350   F365    1.358   .     S
C350   C306    1.392   1_655 S
C351   F366    1.358   .     S
C352   N375    1.158   .     T
C352   N661    1.386   .     S
C353   N376    1.158   .     T
C354   H369    1.083   .     S
C355   H370    1.083   .     S
C355   C303    1.392   1_655 S
C356   C549    1.330   1_545 S
C356   H563    1.088   1_545 S
C357   C452    1.330   .     S
C357   H468    1.088   .     S
C358   O383    1.297   .     A
C358   O381    1.303   .     A
C359   O382    1.303   .     A
C359   O384    1.297   .     A
C360   F363    1.361   .     S
Cu361  N374    2.029   .     S
Cu361  O384    1.964   .     S
Cu361  O380    1.949   .     S
Cu361  O381    1.967   .     S
Cu361  O377    1.951   .     S
Cu361  Cu362   2.701   .     S
Cu362  N373    2.029   .     S
Cu362  O383    1.964   .     S
Cu362  O379    1.949   .     S
Cu362  O382    1.967   .     S
Cu362  O378    1.951   .     S
H371   C452    1.088   .     S
H372   C549    1.088   1_545 S
N374   N661    1.300   .     S
N374   C641    1.386   .     S
C385   C404    1.428   .     S
C385   O427    1.291   .     A
C385   O425    1.294   .     A
C386   C388    1.408   .     A
C386   F412    1.361   .     S
C386   C397    1.395   .     A
C387   C408    1.408   .     A
C387   C389    1.400   .     A
C387   C407    1.459   .     S
C388   C406    1.459   .     S
C388   C390    1.400   .     A
C389   C391    1.393   .     A
C389   H415    1.084   .     S
C390   H416    1.084   .     S
C390   C392    1.393   .     A
C391   C393    1.413   .     A
C391   C398    1.403   .     A
C392   C394    1.413   .     A
C392   C399    1.403   .     A
C393   C395    1.411   .     A
C393   C442    1.402   .     S
C394   C397    1.411   .     A
C394   C441    1.402   1_455 S
C395   C403    1.403   .     A
C395   C408    1.395   .     A
C396   O428    1.291   .     A
C396   O426    1.294   .     A
C396   C405    1.428   .     S
C397   C402    1.403   .     A
C398   F413    1.358   .     S
C398   C450    1.392   .     S
C399   F414    1.358   .     S
C399   C451    1.392   1_455 S
C400   N423    1.158   .     T
C400   N709    1.386   .     S
C401   N424    1.158   .     T
C402   H417    1.083   .     S
C402   C446    1.392   1_455 S
C403   H418    1.083   .     S
C403   C447    1.392   .     S
C405   C500    1.330   .     S
C405   H516    1.088   .     S
C406   O431    1.297   .     A
C406   O429    1.303   .     A
C407   O430    1.303   .     A
C407   O432    1.297   .     A
C408   F411    1.361   .     S
Cu409  N422    2.029   .     S
Cu409  O432    1.964   .     S
Cu409  O428    1.949   .     S
Cu409  O429    1.967   .     S
Cu409  O425    1.951   .     S
Cu409  Cu410   2.701   .     S
Cu410  N421    2.029   .     S
Cu410  O431    1.964   .     S
Cu410  O427    1.949   .     S
Cu410  O430    1.967   .     S
Cu410  O426    1.951   .     S
H419   C500    1.088   .     S
N422   N709    1.300   .     S
N422   C689    1.386   .     S
C433   C452    1.428   .     S
C433   O475    1.291   .     A
C433   O473    1.294   .     A
C434   C436    1.408   .     A
C434   F460    1.361   .     S
C434   C445    1.395   .     A
C435   C456    1.408   .     A
C435   C437    1.400   .     A
C435   C455    1.459   .     S
C436   C454    1.459   .     S
C436   C438    1.400   .     A
C437   C439    1.393   .     A
C437   H463    1.084   .     S
C438   H464    1.084   .     S
C438   C440    1.393   .     A
C439   C441    1.413   .     A
C439   C446    1.403   .     A
C440   C442    1.413   .     A
C440   C447    1.403   .     A
C441   C443    1.411   .     A
C441   C394    1.402   1_655 S
C442   C445    1.411   .     A
C443   C451    1.403   .     A
C443   C456    1.395   .     A
C444   O476    1.291   .     A
C444   O474    1.294   .     A
C444   C453    1.428   .     S
C445   C450    1.403   .     A
C446   F461    1.358   .     S
C446   C402    1.392   1_655 S
C447   F462    1.358   .     S
C448   N471    1.158   .     T
C448   N757    1.386   .     S
C449   N472    1.158   .     T
C450   H465    1.083   .     S
C451   H466    1.083   .     S
C451   C399    1.392   1_655 S
C453   C548    1.330   .     S
C453   H564    1.088   .     S
C454   O479    1.297   .     A
C454   O477    1.303   .     A
C455   O478    1.303   .     A
C455   O480    1.297   .     A
C456   F459    1.361   .     S
Cu457  N470    2.029   .     S
Cu457  O480    1.964   .     S
Cu457  O476    1.949   .     S
Cu457  O477    1.967   .     S
Cu457  O473    1.951   .     S
Cu457  Cu458   2.701   .     S
Cu458  N469    2.029   .     S
Cu458  O479    1.964   .     S
Cu458  O475    1.949   .     S
Cu458  O478    1.967   .     S
Cu458  O474    1.951   .     S
H467   C548    1.088   .     S
N470   N757    1.300   .     S
N470   C737    1.386   .     S
C481   C500    1.428   .     S
C481   O523    1.291   .     A
C481   O521    1.294   .     A
C482   C484    1.408   .     A
C482   F508    1.361   .     S
C482   C493    1.395   .     A
C483   C504    1.408   .     A
C483   C485    1.400   .     A
C483   C503    1.459   .     S
C484   C502    1.459   .     S
C484   C486    1.400   .     A
C485   C487    1.393   .     A
C485   H511    1.084   .     S
C486   H512    1.084   .     S
C486   C488    1.393   .     A
C487   C489    1.413   .     A
C487   C494    1.403   .     A
C488   C490    1.413   .     A
C488   C495    1.403   .     A
C489   C491    1.411   .     A
C489   C538    1.402   .     S
C490   C493    1.411   .     A
C490   C537    1.402   1_455 S
C491   C499    1.403   .     A
C491   C504    1.395   .     A
C492   O524    1.291   .     A
C492   O522    1.294   .     A
C492   C501    1.428   .     S
C493   C498    1.403   .     A
C494   F509    1.358   .     S
C494   C546    1.392   .     S
C495   F510    1.358   .     S
C495   C547    1.392   1_455 S
C496   N519    1.158   .     T
C496   N805    1.386   .     S
C497   N520    1.158   .     T
C498   H513    1.083   .     S
C498   C542    1.392   1_455 S
C499   H514    1.083   .     S
C499   C543    1.392   .     S
C501   C308    1.330   1_565 S
C501   H324    1.088   1_565 S
C502   O527    1.297   .     A
C502   O525    1.303   .     A
C503   O526    1.303   .     A
C503   O528    1.297   .     A
C504   F507    1.361   .     S
Cu505  N518    2.029   .     S
Cu505  O528    1.964   .     S
Cu505  O524    1.949   .     S
Cu505  O525    1.967   .     S
Cu505  O521    1.951   .     S
Cu505  Cu506   2.701   .     S
Cu506  N517    2.029   .     S
Cu506  O527    1.964   .     S
Cu506  O523    1.949   .     S
Cu506  O526    1.967   .     S
Cu506  O522    1.951   .     S
H515   C308    1.088   1_565 S
N518   N805    1.300   .     S
N518   C785    1.386   .     S
C529   C548    1.428   .     S
C529   O571    1.291   .     A
C529   O569    1.294   .     A
C530   C532    1.408   .     A
C530   F556    1.361   .     S
C530   C541    1.395   .     A
C531   C552    1.408   .     A
C531   C533    1.400   .     A
C531   C551    1.459   .     S
C532   C550    1.459   .     S
C532   C534    1.400   .     A
C533   C535    1.393   .     A
C533   H559    1.084   .     S
C534   H560    1.084   .     S
C534   C536    1.393   .     A
C535   C537    1.413   .     A
C535   C542    1.403   .     A
C536   C538    1.413   .     A
C536   C543    1.403   .     A
C537   C539    1.411   .     A
C537   C490    1.402   1_655 S
C538   C541    1.411   .     A
C539   C547    1.403   .     A
C539   C552    1.395   .     A
C540   O572    1.291   .     A
C540   O570    1.294   .     A
C540   C549    1.428   .     S
C541   C546    1.403   .     A
C542   F557    1.358   .     S
C542   C498    1.392   1_655 S
C543   F558    1.358   .     S
C544   N567    1.158   .     T
C544   N853    1.386   .     S
C545   N568    1.158   .     T
C546   H561    1.083   .     S
C547   H562    1.083   .     S
C547   C495    1.392   1_655 S
C549   C356    1.330   1_565 S
C549   H372    1.088   1_565 S
C550   O575    1.297   .     A
C550   O573    1.303   .     A
C551   O574    1.303   .     A
C551   O576    1.297   .     A
C552   F555    1.361   .     S
Cu553  N566    2.029   .     S
Cu553  O576    1.964   .     S
Cu553  O572    1.949   .     S
Cu553  O573    1.967   .     S
Cu553  O569    1.951   .     S
Cu553  Cu554   2.701   .     S
Cu554  N565    2.029   .     S
Cu554  O575    1.964   .     S
Cu554  O571    1.949   .     S
Cu554  O574    1.967   .     S
Cu554  O570    1.951   .     S
H563   C356    1.088   1_565 S
N566   N853    1.300   .     S
N566   C833    1.386   .     S
C577   C596    1.428   .     S
C577   O619    1.291   .     A
C577   O617    1.294   .     A
C578   C580    1.408   .     A
C578   F604    1.361   .     S
C578   C589    1.395   .     A
C579   C600    1.408   .     A
C579   C581    1.400   .     A
C579   C599    1.459   .     S
C580   C598    1.459   .     S
C580   C582    1.400   .     A
C581   C583    1.393   .     A
C581   H607    1.084   .     S
C582   H608    1.084   .     S
C582   C584    1.393   .     A
C583   C585    1.413   .     A
C583   C590    1.403   .     A
C584   C586    1.413   .     A
C584   C591    1.403   .     A
C585   C587    1.411   .     A
C585   C634    1.402   .     S
C586   C589    1.411   .     A
C586   C633    1.402   1_455 S
C587   C595    1.403   .     A
C587   C600    1.395   .     A
C588   O620    1.291   .     A
C588   O618    1.294   .     A
C588   C597    1.428   .     S
C589   C594    1.403   .     A
C590   F605    1.358   .     S
C590   C642    1.392   .     S
C591   F606    1.358   .     S
C591   C643    1.392   1_455 S
C592   N615    1.158   .     T
C592   N37     1.386   1_556 S
C593   N616    1.158   .     T
C594   H609    1.083   .     S
C594   C638    1.392   1_455 S
C595   H610    1.083   .     S
C595   C639    1.392   .     S
C596   C789    1.330   1_545 S
C596   H803    1.088   1_545 S
C597   C692    1.330   .     S
C597   H708    1.088   .     S
C598   O623    1.297   .     A
C598   O621    1.303   .     A
C599   O622    1.303   .     A
C599   O624    1.297   .     A
C600   F603    1.361   .     S
Cu601  N614    2.029   .     S
Cu601  O624    1.964   .     S
Cu601  O620    1.949   .     S
Cu601  O621    1.967   .     S
Cu601  O617    1.951   .     S
Cu601  Cu602   2.701   .     S
Cu602  N613    2.029   .     S
Cu602  O623    1.964   .     S
Cu602  O619    1.949   .     S
Cu602  O622    1.967   .     S
Cu602  O618    1.951   .     S
H611   C692    1.088   .     S
H612   C789    1.088   1_545 S
N614   N37     1.300   1_556 S
N614   C17     1.386   1_556 S
C625   C644    1.428   .     S
C625   O667    1.291   .     A
C625   O665    1.294   .     A
C626   C628    1.408   .     A
C626   F652    1.361   .     S
C626   C637    1.395   .     A
C627   C648    1.408   .     A
C627   C629    1.400   .     A
C627   C647    1.459   .     S
C628   C646    1.459   .     S
C628   C630    1.400   .     A
C629   C631    1.393   .     A
C629   H655    1.084   .     S
C630   H656    1.084   .     S
C630   C632    1.393   .     A
C631   C633    1.413   .     A
C631   C638    1.403   .     A
C632   C634    1.413   .     A
C632   C639    1.403   .     A
C633   C635    1.411   .     A
C633   C586    1.402   1_655 S
C634   C637    1.411   .     A
C635   C643    1.403   .     A
C635   C648    1.395   .     A
C636   O668    1.291   .     A
C636   O666    1.294   .     A
C636   C645    1.428   .     S
C637   C642    1.403   .     A
C638   F653    1.358   .     S
C638   C594    1.392   1_655 S
C639   F654    1.358   .     S
C640   N663    1.158   .     T
C640   N85     1.386   1_556 S
C641   N664    1.158   .     T
C642   H657    1.083   .     S
C643   H658    1.083   .     S
C643   C591    1.392   1_655 S
C644   C837    1.330   1_545 S
C644   H851    1.088   1_545 S
C645   C740    1.330   .     S
C645   H756    1.088   .     S
C646   O671    1.297   .     A
C646   O669    1.303   .     A
C647   O670    1.303   .     A
C647   O672    1.297   .     A
C648   F651    1.361   .     S
Cu649  N662    2.029   .     S
Cu649  O672    1.964   .     S
Cu649  O668    1.949   .     S
Cu649  O669    1.967   .     S
Cu649  O665    1.951   .     S
Cu649  Cu650   2.701   .     S
Cu650  N661    2.029   .     S
Cu650  O671    1.964   .     S
Cu650  O667    1.949   .     S
Cu650  O670    1.967   .     S
Cu650  O666    1.951   .     S
H659   C740    1.088   .     S
H660   C837    1.088   1_545 S
N662   N85     1.300   1_556 S
N662   C65     1.386   1_556 S
C673   C692    1.428   .     S
C673   O715    1.291   .     A
C673   O713    1.294   .     A
C674   C676    1.408   .     A
C674   F700    1.361   .     S
C674   C685    1.395   .     A
C675   C696    1.408   .     A
C675   C677    1.400   .     A
C675   C695    1.459   .     S
C676   C694    1.459   .     S
C676   C678    1.400   .     A
C677   C679    1.393   .     A
C677   H703    1.084   .     S
C678   H704    1.084   .     S
C678   C680    1.393   .     A
C679   C681    1.413   .     A
C679   C686    1.403   .     A
C680   C682    1.413   .     A
C680   C687    1.403   .     A
C681   C683    1.411   .     A
C681   C730    1.402   .     S
C682   C685    1.411   .     A
C682   C729    1.402   1_455 S
C683   C691    1.403   .     A
C683   C696    1.395   .     A
C684   O716    1.291   .     A
C684   O714    1.294   .     A
C684   C693    1.428   .     S
C685   C690    1.403   .     A
C686   F701    1.358   .     S
C686   C738    1.392   .     S
C687   F702    1.358   .     S
C687   C739    1.392   1_455 S
C688   N711    1.158   .     T
C688   N133    1.386   1_556 S
C689   N712    1.158   .     T
C690   H705    1.083   .     S
C690   C734    1.392   1_455 S
C691   H706    1.083   .     S
C691   C735    1.392   .     S
C693   C788    1.330   .     S
C693   H804    1.088   .     S
C694   O719    1.297   .     A
C694   O717    1.303   .     A
C695   O718    1.303   .     A
C695   O720    1.297   .     A
C696   F699    1.361   .     S
Cu697  N710    2.029   .     S
Cu697  O720    1.964   .     S
Cu697  O716    1.949   .     S
Cu697  O717    1.967   .     S
Cu697  O713    1.951   .     S
Cu697  Cu698   2.701   .     S
Cu698  N709    2.029   .     S
Cu698  O719    1.964   .     S
Cu698  O715    1.949   .     S
Cu698  O718    1.967   .     S
Cu698  O714    1.951   .     S
H707   C788    1.088   .     S
N710   N133    1.300   1_556 S
N710   C113    1.386   1_556 S
C721   C740    1.428   .     S
C721   O763    1.291   .     A
C721   O761    1.294   .     A
C722   C724    1.408   .     A
C722   F748    1.361   .     S
C722   C733    1.395   .     A
C723   C744    1.408   .     A
C723   C725    1.400   .     A
C723   C743    1.459   .     S
C724   C742    1.459   .     S
C724   C726    1.400   .     A
C725   C727    1.393   .     A
C725   H751    1.084   .     S
C726   H752    1.084   .     S
C726   C728    1.393   .     A
C727   C729    1.413   .     A
C727   C734    1.403   .     A
C728   C730    1.413   .     A
C728   C735    1.403   .     A
C729   C731    1.411   .     A
C729   C682    1.402   1_655 S
C730   C733    1.411   .     A
C731   C739    1.403   .     A
C731   C744    1.395   .     A
C732   O764    1.291   .     A
C732   O762    1.294   .     A
C732   C741    1.428   .     S
C733   C738    1.403   .     A
C734   F749    1.358   .     S
C734   C690    1.392   1_655 S
C735   F750    1.358   .     S
C736   N759    1.158   .     T
C736   N181    1.386   1_556 S
C737   N760    1.158   .     T
C738   H753    1.083   .     S
C739   H754    1.083   .     S
C739   C687    1.392   1_655 S
C741   C836    1.330   .     S
C741   H852    1.088   .     S
C742   O767    1.297   .     A
C742   O765    1.303   .     A
C743   O766    1.303   .     A
C743   O768    1.297   .     A
C744   F747    1.361   .     S
Cu745  N758    2.029   .     S
Cu745  O768    1.964   .     S
Cu745  O764    1.949   .     S
Cu745  O765    1.967   .     S
Cu745  O761    1.951   .     S
Cu745  Cu746   2.701   .     S
Cu746  N757    2.029   .     S
Cu746  O767    1.964   .     S
Cu746  O763    1.949   .     S
Cu746  O766    1.967   .     S
Cu746  O762    1.951   .     S
H755   C836    1.088   .     S
N758   N181    1.300   1_556 S
N758   C161    1.386   1_556 S
C769   C788    1.428   .     S
C769   O811    1.291   .     A
C769   O809    1.294   .     A
C770   C772    1.408   .     A
C770   F796    1.361   .     S
C770   C781    1.395   .     A
C771   C792    1.408   .     A
C771   C773    1.400   .     A
C771   C791    1.459   .     S
C772   C790    1.459   .     S
C772   C774    1.400   .     A
C773   C775    1.393   .     A
C773   H799    1.084   .     S
C774   H800    1.084   .     S
C774   C776    1.393   .     A
C775   C777    1.413   .     A
C775   C782    1.403   .     A
C776   C778    1.413   .     A
C776   C783    1.403   .     A
C777   C779    1.411   .     A
C777   C826    1.402   .     S
C778   C781    1.411   .     A
C778   C825    1.402   1_455 S
C779   C787    1.403   .     A
C779   C792    1.395   .     A
C780   O812    1.291   .     A
C780   O810    1.294   .     A
C780   C789    1.428   .     S
C781   C786    1.403   .     A
C782   F797    1.358   .     S
C782   C834    1.392   .     S
C783   F798    1.358   .     S
C783   C835    1.392   1_455 S
C784   N807    1.158   .     T
C784   N229    1.386   1_556 S
C785   N808    1.158   .     T
C786   H801    1.083   .     S
C786   C830    1.392   1_455 S
C787   H802    1.083   .     S
C787   C831    1.392   .     S
C789   C596    1.330   1_565 S
C789   H612    1.088   1_565 S
C790   O815    1.297   .     A
C790   O813    1.303   .     A
C791   O814    1.303   .     A
C791   O816    1.297   .     A
C792   F795    1.361   .     S
Cu793  N806    2.029   .     S
Cu793  O816    1.964   .     S
Cu793  O812    1.949   .     S
Cu793  O813    1.967   .     S
Cu793  O809    1.951   .     S
Cu793  Cu794   2.701   .     S
Cu794  N805    2.029   .     S
Cu794  O815    1.964   .     S
Cu794  O811    1.949   .     S
Cu794  O814    1.967   .     S
Cu794  O810    1.951   .     S
H803   C596    1.088   1_565 S
N806   N229    1.300   1_556 S
N806   C209    1.386   1_556 S
C817   C836    1.428   .     S
C817   O859    1.291   .     A
C817   O857    1.294   .     A
C818   C820    1.408   .     A
C818   F844    1.361   .     S
C818   C829    1.395   .     A
C819   C840    1.408   .     A
C819   C821    1.400   .     A
C819   C839    1.459   .     S
C820   C838    1.459   .     S
C820   C822    1.400   .     A
C821   C823    1.393   .     A
C821   H847    1.084   .     S
C822   H848    1.084   .     S
C822   C824    1.393   .     A
C823   C825    1.413   .     A
C823   C830    1.403   .     A
C824   C826    1.413   .     A
C824   C831    1.403   .     A
C825   C827    1.411   .     A
C825   C778    1.402   1_655 S
C826   C829    1.411   .     A
C827   C835    1.403   .     A
C827   C840    1.395   .     A
C828   O860    1.291   .     A
C828   O858    1.294   .     A
C828   C837    1.428   .     S
C829   C834    1.403   .     A
C830   F845    1.358   .     S
C830   C786    1.392   1_655 S
C831   F846    1.358   .     S
C832   N855    1.158   .     T
C832   N277    1.386   1_556 S
C833   N856    1.158   .     T
C834   H849    1.083   .     S
C835   H850    1.083   .     S
C835   C783    1.392   1_655 S
C837   C644    1.330   1_565 S
C837   H660    1.088   1_565 S
C838   O863    1.297   .     A
C838   O861    1.303   .     A
C839   O862    1.303   .     A
C839   O864    1.297   .     A
C840   F843    1.361   .     S
Cu841  N854    2.029   .     S
Cu841  O864    1.964   .     S
Cu841  O860    1.949   .     S
Cu841  O861    1.967   .     S
Cu841  O857    1.951   .     S
Cu841  Cu842   2.701   .     S
Cu842  N853    2.029   .     S
Cu842  O863    1.964   .     S
Cu842  O859    1.949   .     S
Cu842  O862    1.967   .     S
Cu842  O858    1.951   .     S
H851   C644    1.088   1_565 S
N854   N277    1.300   1_556 S
N854   C257    1.386   1_556 S
