data_str_m2_o1_o10_pcu_sym.96
_audit_creation_date              2020-01-03
_audit_creation_method            'Materials Studio'
_symmetry_space_group_name_H-M    'P1'
_symmetry_Int_Tables_number       1
_symmetry_cell_setting            triclinic
loop_
_symmetry_equiv_pos_as_xyz
  x,y,z
_cell_length_a                    26.3752
_cell_length_b                    32.5239
_cell_length_c                    28.8683
_cell_angle_alpha                 88.3624
_cell_angle_beta                  95.8771
_cell_angle_gamma                 92.1407
loop_
_atom_site_label
_atom_site_type_symbol
_atom_site_fract_x
_atom_site_fract_y
_atom_site_fract_z
_atom_site_U_iso_or_equiv
_atom_site_adp_type
_atom_site_occupancy
Br1    Br    0.07554   0.11361   0.27653   0.00000  Uiso   1.00
Br2    Br    0.25779   0.21973   0.05681   0.00000  Uiso   1.00
C3     C     0.16563   0.08750   0.16682   0.00000  Uiso   1.00
C4     C     0.12441   0.01922   0.18094   0.00000  Uiso   1.00
C5     C     0.16747   0.29051   0.16682   0.00000  Uiso   1.00
C6     C     0.16587   0.04283   0.16651   0.00000  Uiso   1.00
C7     C     0.13034   0.14505   0.02269   0.00000  Uiso   1.00
C8     C     0.20299   0.18828   0.31065   0.00000  Uiso   1.00
C9     C     0.13006   0.14505   0.30701   0.00000  Uiso   1.00
C10    C     0.20327   0.18828   0.02633   0.00000  Uiso   1.00
C11    C     0.16770   0.24583   0.16652   0.00000  Uiso   1.00
C12    C     0.06824   0.16637   0.15509   0.00000  Uiso   1.00
C13    C     0.26509   0.16697   0.17825   0.00000  Uiso   1.00
C14    C     0.01340   0.16532   0.14859   0.00000  Uiso   1.00
C15    C     0.31994   0.16801   0.18474   0.00000  Uiso   1.00
C16    C     0.20693   0.02366   0.14966   0.00000  Uiso   1.00
C17    C     0.12640   0.30967   0.18368   0.00000  Uiso   1.00
C18    C     0.20893   0.31412   0.15239   0.00000  Uiso   1.00
Cu19   Cu    0.16667   0.16667   0.21355   0.00000  Uiso   1.00
Cu20   Cu    0.16667   0.16666   0.11978   0.00000  Uiso   1.00
H21    H     0.32822   0.16205   0.11344   0.00000  Uiso   1.00
H22    H     0.00511   0.17128   0.21989   0.00000  Uiso   1.00
H23    H     0.10127   0.12761   0.03942   0.00000  Uiso   1.00
H24    H     0.23207   0.20572   0.29391   0.00000  Uiso   1.00
I25    I     0.26316   0.05905   0.11556   0.00000  Uiso   1.00
I26    I     0.07017   0.27429   0.21778   0.00000  Uiso   1.00
I27    I     0.27910   0.28625   0.14647   0.00000  Uiso   1.00
I28    I     0.05423   0.04708   0.18686   0.00000  Uiso   1.00
N29    N     0.16668   0.16668   0.28403   0.00000  Uiso   1.00
N30    N     0.16665   0.16666   0.04931   0.00000  Uiso   1.00
O31    O     0.16666   0.10655   0.20625   0.00000  Uiso   1.00
O32    O     0.16667   0.22678   0.12709   0.00000  Uiso   1.00
O33    O     0.16666   0.10654   0.12706   0.00000  Uiso   1.00
O34    O     0.16667   0.22679   0.20628   0.00000  Uiso   1.00
O35    O     0.09161   0.16667   0.19712   0.00000  Uiso   1.00
O36    O     0.24172   0.16666   0.13621   0.00000  Uiso   1.00
O37    O     0.09161   0.16666   0.11793   0.00000  Uiso   1.00
O38    O     0.24172   0.16667   0.21540   0.00000  Uiso   1.00
Br39   Br    0.40888   0.11361   0.27653   0.00000  Uiso   1.00
Br40   Br    0.59112   0.21973   0.05681   0.00000  Uiso   1.00
C41    C     0.49896   0.08750   0.16682   0.00000  Uiso   1.00
C42    C     0.45774   0.01922   0.18094   0.00000  Uiso   1.00
C43    C     0.50080   0.29051   0.16682   0.00000  Uiso   1.00
C44    C     0.49920   0.04283   0.16651   0.00000  Uiso   1.00
C45    C     0.46368   0.14505   0.02269   0.00000  Uiso   1.00
C46    C     0.53632   0.18828   0.31065   0.00000  Uiso   1.00
C47    C     0.46339   0.14505   0.30701   0.00000  Uiso   1.00
C48    C     0.53661   0.18828   0.02633   0.00000  Uiso   1.00
C49    C     0.50104   0.24583   0.16652   0.00000  Uiso   1.00
C50    C     0.40157   0.16637   0.15509   0.00000  Uiso   1.00
C51    C     0.59843   0.16697   0.17825   0.00000  Uiso   1.00
C52    C     0.34673   0.16532   0.14859   0.00000  Uiso   1.00
C53    C     0.65327   0.16801   0.18474   0.00000  Uiso   1.00
C54    C     0.54026   0.02366   0.14966   0.00000  Uiso   1.00
C55    C     0.45974   0.30967   0.18368   0.00000  Uiso   1.00
C56    C     0.54226   0.31412   0.15239   0.00000  Uiso   1.00
Cu57   Cu    0.50000   0.16667   0.21355   0.00000  Uiso   1.00
Cu58   Cu    0.50000   0.16666   0.11978   0.00000  Uiso   1.00
H59    H     0.66155   0.16205   0.11344   0.00000  Uiso   1.00
H60    H     0.33845   0.17128   0.21989   0.00000  Uiso   1.00
H61    H     0.43460   0.12761   0.03942   0.00000  Uiso   1.00
H62    H     0.56540   0.20572   0.29391   0.00000  Uiso   1.00
I63    I     0.59650   0.05905   0.11556   0.00000  Uiso   1.00
I64    I     0.40350   0.27429   0.21778   0.00000  Uiso   1.00
I65    I     0.61244   0.28625   0.14647   0.00000  Uiso   1.00
I66    I     0.38756   0.04708   0.18686   0.00000  Uiso   1.00
N67    N     0.50001   0.16668   0.28403   0.00000  Uiso   1.00
N68    N     0.49999   0.16666   0.04931   0.00000  Uiso   1.00
O69    O     0.50000   0.10655   0.20625   0.00000  Uiso   1.00
O70    O     0.50000   0.22678   0.12709   0.00000  Uiso   1.00
O71    O     0.50000   0.10654   0.12706   0.00000  Uiso   1.00
O72    O     0.50000   0.22679   0.20628   0.00000  Uiso   1.00
O73    O     0.42495   0.16667   0.19712   0.00000  Uiso   1.00
O74    O     0.57505   0.16666   0.13621   0.00000  Uiso   1.00
O75    O     0.42494   0.16666   0.11793   0.00000  Uiso   1.00
O76    O     0.57506   0.16667   0.21540   0.00000  Uiso   1.00
Br77   Br    0.74221   0.11361   0.27653   0.00000  Uiso   1.00
Br78   Br    0.92446   0.21973   0.05681   0.00000  Uiso   1.00
C79    C     0.83230   0.08750   0.16682   0.00000  Uiso   1.00
C80    C     0.79107   0.01922   0.18094   0.00000  Uiso   1.00
C81    C     0.83413   0.29051   0.16682   0.00000  Uiso   1.00
C82    C     0.83253   0.04283   0.16651   0.00000  Uiso   1.00
C83    C     0.79701   0.14505   0.02269   0.00000  Uiso   1.00
C84    C     0.86966   0.18828   0.31065   0.00000  Uiso   1.00
C85    C     0.79673   0.14505   0.30701   0.00000  Uiso   1.00
C86    C     0.86994   0.18828   0.02633   0.00000  Uiso   1.00
C87    C     0.83437   0.24583   0.16652   0.00000  Uiso   1.00
C88    C     0.73491   0.16637   0.15509   0.00000  Uiso   1.00
C89    C     0.93176   0.16697   0.17825   0.00000  Uiso   1.00
C90    C     0.68006   0.16532   0.14859   0.00000  Uiso   1.00
C91    C     0.98660   0.16801   0.18474   0.00000  Uiso   1.00
C92    C     0.87360   0.02366   0.14966   0.00000  Uiso   1.00
C93    C     0.79307   0.30967   0.18368   0.00000  Uiso   1.00
C94    C     0.87559   0.31412   0.15239   0.00000  Uiso   1.00
Cu95   Cu    0.83333   0.16667   0.21355   0.00000  Uiso   1.00
Cu96   Cu    0.83333   0.16666   0.11978   0.00000  Uiso   1.00
H97    H     0.99489   0.16205   0.11344   0.00000  Uiso   1.00
H98    H     0.67178   0.17128   0.21989   0.00000  Uiso   1.00
H99    H     0.76793   0.12761   0.03942   0.00000  Uiso   1.00
H100   H     0.89873   0.20572   0.29391   0.00000  Uiso   1.00
I101   I     0.92983   0.05905   0.11556   0.00000  Uiso   1.00
I102   I     0.73683   0.27429   0.21778   0.00000  Uiso   1.00
I103   I     0.94577   0.28625   0.14647   0.00000  Uiso   1.00
I104   I     0.72090   0.04708   0.18686   0.00000  Uiso   1.00
N105   N     0.83335   0.16668   0.28403   0.00000  Uiso   1.00
N106   N     0.83332   0.16666   0.04931   0.00000  Uiso   1.00
O107   O     0.83333   0.10655   0.20625   0.00000  Uiso   1.00
O108   O     0.83334   0.22678   0.12709   0.00000  Uiso   1.00
O109   O     0.83333   0.10654   0.12706   0.00000  Uiso   1.00
O110   O     0.83334   0.22679   0.20628   0.00000  Uiso   1.00
O111   O     0.75828   0.16667   0.19712   0.00000  Uiso   1.00
O112   O     0.90839   0.16666   0.13621   0.00000  Uiso   1.00
O113   O     0.75828   0.16666   0.11793   0.00000  Uiso   1.00
O114   O     0.90839   0.16667   0.21540   0.00000  Uiso   1.00
Br115  Br    0.07554   0.44694   0.27653   0.00000  Uiso   1.00
Br116  Br    0.25779   0.55306   0.05681   0.00000  Uiso   1.00
C117   C     0.16563   0.42083   0.16682   0.00000  Uiso   1.00
C118   C     0.12441   0.35255   0.18094   0.00000  Uiso   1.00
C119   C     0.16747   0.62384   0.16682   0.00000  Uiso   1.00
C120   C     0.16587   0.37616   0.16651   0.00000  Uiso   1.00
C121   C     0.13034   0.47839   0.02269   0.00000  Uiso   1.00
C122   C     0.20299   0.52161   0.31065   0.00000  Uiso   1.00
C123   C     0.13006   0.47839   0.30701   0.00000  Uiso   1.00
C124   C     0.20327   0.52161   0.02633   0.00000  Uiso   1.00
C125   C     0.16770   0.57917   0.16652   0.00000  Uiso   1.00
C126   C     0.06824   0.49970   0.15509   0.00000  Uiso   1.00
C127   C     0.26509   0.50030   0.17825   0.00000  Uiso   1.00
C128   C     0.01340   0.49866   0.14859   0.00000  Uiso   1.00
C129   C     0.31994   0.50134   0.18474   0.00000  Uiso   1.00
C130   C     0.20693   0.35699   0.14966   0.00000  Uiso   1.00
C131   C     0.12640   0.64301   0.18368   0.00000  Uiso   1.00
C132   C     0.20893   0.64745   0.15239   0.00000  Uiso   1.00
Cu133  Cu    0.16667   0.50001   0.21355   0.00000  Uiso   1.00
Cu134  Cu    0.16667   0.49999   0.11978   0.00000  Uiso   1.00
H135   H     0.32822   0.49538   0.11344   0.00000  Uiso   1.00
H136   H     0.00511   0.50462   0.21989   0.00000  Uiso   1.00
H137   H     0.10127   0.46094   0.03942   0.00000  Uiso   1.00
H138   H     0.23207   0.53906   0.29391   0.00000  Uiso   1.00
I139   I     0.26316   0.39238   0.11556   0.00000  Uiso   1.00
I140   I     0.07017   0.60762   0.21778   0.00000  Uiso   1.00
I141   I     0.27910   0.61958   0.14647   0.00000  Uiso   1.00
I142   I     0.05423   0.38042   0.18686   0.00000  Uiso   1.00
N143   N     0.16668   0.50001   0.28403   0.00000  Uiso   1.00
N144   N     0.16665   0.49999   0.04931   0.00000  Uiso   1.00
O145   O     0.16666   0.43989   0.20625   0.00000  Uiso   1.00
O146   O     0.16667   0.56011   0.12709   0.00000  Uiso   1.00
O147   O     0.16666   0.43988   0.12706   0.00000  Uiso   1.00
O148   O     0.16667   0.56012   0.20628   0.00000  Uiso   1.00
O149   O     0.09161   0.50000   0.19712   0.00000  Uiso   1.00
O150   O     0.24172   0.50000   0.13621   0.00000  Uiso   1.00
O151   O     0.09161   0.49999   0.11793   0.00000  Uiso   1.00
O152   O     0.24172   0.50001   0.21540   0.00000  Uiso   1.00
Br153  Br    0.40888   0.44694   0.27653   0.00000  Uiso   1.00
Br154  Br    0.59112   0.55306   0.05681   0.00000  Uiso   1.00
C155   C     0.49896   0.42083   0.16682   0.00000  Uiso   1.00
C156   C     0.45774   0.35255   0.18094   0.00000  Uiso   1.00
C157   C     0.50080   0.62384   0.16682   0.00000  Uiso   1.00
C158   C     0.49920   0.37616   0.16651   0.00000  Uiso   1.00
C159   C     0.46368   0.47839   0.02269   0.00000  Uiso   1.00
C160   C     0.53632   0.52161   0.31065   0.00000  Uiso   1.00
C161   C     0.46339   0.47839   0.30701   0.00000  Uiso   1.00
C162   C     0.53661   0.52161   0.02633   0.00000  Uiso   1.00
C163   C     0.50104   0.57917   0.16652   0.00000  Uiso   1.00
C164   C     0.40157   0.49970   0.15509   0.00000  Uiso   1.00
C165   C     0.59843   0.50030   0.17825   0.00000  Uiso   1.00
C166   C     0.34673   0.49866   0.14859   0.00000  Uiso   1.00
C167   C     0.65327   0.50134   0.18474   0.00000  Uiso   1.00
C168   C     0.54026   0.35699   0.14966   0.00000  Uiso   1.00
C169   C     0.45974   0.64301   0.18368   0.00000  Uiso   1.00
C170   C     0.54226   0.64745   0.15239   0.00000  Uiso   1.00
Cu171  Cu    0.50000   0.50001   0.21355   0.00000  Uiso   1.00
Cu172  Cu    0.50000   0.49999   0.11978   0.00000  Uiso   1.00
H173   H     0.66155   0.49538   0.11344   0.00000  Uiso   1.00
H174   H     0.33845   0.50462   0.21989   0.00000  Uiso   1.00
H175   H     0.43460   0.46094   0.03942   0.00000  Uiso   1.00
H176   H     0.56540   0.53906   0.29391   0.00000  Uiso   1.00
I177   I     0.59650   0.39238   0.11556   0.00000  Uiso   1.00
I178   I     0.40350   0.60762   0.21778   0.00000  Uiso   1.00
I179   I     0.61244   0.61958   0.14647   0.00000  Uiso   1.00
I180   I     0.38756   0.38042   0.18686   0.00000  Uiso   1.00
N181   N     0.50001   0.50001   0.28403   0.00000  Uiso   1.00
N182   N     0.49999   0.49999   0.04931   0.00000  Uiso   1.00
O183   O     0.50000   0.43989   0.20625   0.00000  Uiso   1.00
O184   O     0.50000   0.56011   0.12709   0.00000  Uiso   1.00
O185   O     0.50000   0.43988   0.12706   0.00000  Uiso   1.00
O186   O     0.50000   0.56012   0.20628   0.00000  Uiso   1.00
O187   O     0.42495   0.50000   0.19712   0.00000  Uiso   1.00
O188   O     0.57505   0.50000   0.13621   0.00000  Uiso   1.00
O189   O     0.42494   0.49999   0.11793   0.00000  Uiso   1.00
O190   O     0.57506   0.50001   0.21540   0.00000  Uiso   1.00
Br191  Br    0.74221   0.44694   0.27653   0.00000  Uiso   1.00
Br192  Br    0.92446   0.55306   0.05681   0.00000  Uiso   1.00
C193   C     0.83230   0.42083   0.16682   0.00000  Uiso   1.00
C194   C     0.79107   0.35255   0.18094   0.00000  Uiso   1.00
C195   C     0.83413   0.62384   0.16682   0.00000  Uiso   1.00
C196   C     0.83253   0.37616   0.16651   0.00000  Uiso   1.00
C197   C     0.79701   0.47839   0.02269   0.00000  Uiso   1.00
C198   C     0.86966   0.52161   0.31065   0.00000  Uiso   1.00
C199   C     0.79673   0.47839   0.30701   0.00000  Uiso   1.00
C200   C     0.86994   0.52161   0.02633   0.00000  Uiso   1.00
C201   C     0.83437   0.57917   0.16652   0.00000  Uiso   1.00
C202   C     0.73491   0.49970   0.15509   0.00000  Uiso   1.00
C203   C     0.93176   0.50030   0.17825   0.00000  Uiso   1.00
C204   C     0.68006   0.49866   0.14859   0.00000  Uiso   1.00
C205   C     0.98660   0.50134   0.18474   0.00000  Uiso   1.00
C206   C     0.87360   0.35699   0.14966   0.00000  Uiso   1.00
C207   C     0.79307   0.64301   0.18368   0.00000  Uiso   1.00
C208   C     0.87559   0.64745   0.15239   0.00000  Uiso   1.00
Cu209  Cu    0.83333   0.50001   0.21355   0.00000  Uiso   1.00
Cu210  Cu    0.83333   0.49999   0.11978   0.00000  Uiso   1.00
H211   H     0.99489   0.49538   0.11344   0.00000  Uiso   1.00
H212   H     0.67178   0.50462   0.21989   0.00000  Uiso   1.00
H213   H     0.76793   0.46094   0.03942   0.00000  Uiso   1.00
H214   H     0.89873   0.53906   0.29391   0.00000  Uiso   1.00
I215   I     0.92983   0.39238   0.11556   0.00000  Uiso   1.00
I216   I     0.73683   0.60762   0.21778   0.00000  Uiso   1.00
I217   I     0.94577   0.61958   0.14647   0.00000  Uiso   1.00
I218   I     0.72090   0.38042   0.18686   0.00000  Uiso   1.00
N219   N     0.83335   0.50001   0.28403   0.00000  Uiso   1.00
N220   N     0.83332   0.49999   0.04931   0.00000  Uiso   1.00
O221   O     0.83333   0.43989   0.20625   0.00000  Uiso   1.00
O222   O     0.83334   0.56011   0.12709   0.00000  Uiso   1.00
O223   O     0.83333   0.43988   0.12706   0.00000  Uiso   1.00
O224   O     0.83334   0.56012   0.20628   0.00000  Uiso   1.00
O225   O     0.75828   0.50000   0.19712   0.00000  Uiso   1.00
O226   O     0.90839   0.50000   0.13621   0.00000  Uiso   1.00
O227   O     0.75828   0.49999   0.11793   0.00000  Uiso   1.00
O228   O     0.90839   0.50001   0.21540   0.00000  Uiso   1.00
Br229  Br    0.07554   0.78027   0.27653   0.00000  Uiso   1.00
Br230  Br    0.25779   0.88639   0.05681   0.00000  Uiso   1.00
C231   C     0.16563   0.75417   0.16682   0.00000  Uiso   1.00
C232   C     0.12441   0.68588   0.18094   0.00000  Uiso   1.00
C233   C     0.16747   0.95717   0.16682   0.00000  Uiso   1.00
C234   C     0.16587   0.70949   0.16651   0.00000  Uiso   1.00
C235   C     0.13034   0.81172   0.02269   0.00000  Uiso   1.00
C236   C     0.20299   0.85495   0.31065   0.00000  Uiso   1.00
C237   C     0.13006   0.81172   0.30701   0.00000  Uiso   1.00
C238   C     0.20327   0.85494   0.02633   0.00000  Uiso   1.00
C239   C     0.16770   0.91250   0.16652   0.00000  Uiso   1.00
C240   C     0.06824   0.83303   0.15509   0.00000  Uiso   1.00
C241   C     0.26509   0.83363   0.17825   0.00000  Uiso   1.00
C242   C     0.01340   0.83199   0.14859   0.00000  Uiso   1.00
C243   C     0.31994   0.83468   0.18474   0.00000  Uiso   1.00
C244   C     0.20693   0.69033   0.14966   0.00000  Uiso   1.00
C245   C     0.12640   0.97634   0.18368   0.00000  Uiso   1.00
C246   C     0.20893   0.98078   0.15239   0.00000  Uiso   1.00
Cu247  Cu    0.16667   0.83334   0.21355   0.00000  Uiso   1.00
Cu248  Cu    0.16667   0.83333   0.11978   0.00000  Uiso   1.00
H249   H     0.32822   0.82872   0.11344   0.00000  Uiso   1.00
H250   H     0.00511   0.83795   0.21989   0.00000  Uiso   1.00
H251   H     0.10127   0.79428   0.03942   0.00000  Uiso   1.00
H252   H     0.23207   0.87239   0.29391   0.00000  Uiso   1.00
I253   I     0.26316   0.72571   0.11556   0.00000  Uiso   1.00
I254   I     0.07017   0.94095   0.21778   0.00000  Uiso   1.00
I255   I     0.27910   0.95291   0.14647   0.00000  Uiso   1.00
I256   I     0.05423   0.71375   0.18686   0.00000  Uiso   1.00
N257   N     0.16668   0.83334   0.28403   0.00000  Uiso   1.00
N258   N     0.16665   0.83332   0.04931   0.00000  Uiso   1.00
O259   O     0.16666   0.77322   0.20625   0.00000  Uiso   1.00
O260   O     0.16667   0.89345   0.12709   0.00000  Uiso   1.00
O261   O     0.16666   0.77321   0.12706   0.00000  Uiso   1.00
O262   O     0.16667   0.89346   0.20628   0.00000  Uiso   1.00
O263   O     0.09161   0.83334   0.19712   0.00000  Uiso   1.00
O264   O     0.24172   0.83333   0.13621   0.00000  Uiso   1.00
O265   O     0.09161   0.83333   0.11793   0.00000  Uiso   1.00
O266   O     0.24172   0.83334   0.21540   0.00000  Uiso   1.00
Br267  Br    0.40888   0.78027   0.27653   0.00000  Uiso   1.00
Br268  Br    0.59112   0.88639   0.05681   0.00000  Uiso   1.00
C269   C     0.49896   0.75417   0.16682   0.00000  Uiso   1.00
C270   C     0.45774   0.68588   0.18094   0.00000  Uiso   1.00
C271   C     0.50080   0.95717   0.16682   0.00000  Uiso   1.00
C272   C     0.49920   0.70949   0.16651   0.00000  Uiso   1.00
C273   C     0.46368   0.81172   0.02269   0.00000  Uiso   1.00
C274   C     0.53632   0.85495   0.31065   0.00000  Uiso   1.00
C275   C     0.46339   0.81172   0.30701   0.00000  Uiso   1.00
C276   C     0.53661   0.85494   0.02633   0.00000  Uiso   1.00
C277   C     0.50104   0.91250   0.16652   0.00000  Uiso   1.00
C278   C     0.40157   0.83303   0.15509   0.00000  Uiso   1.00
C279   C     0.59843   0.83363   0.17825   0.00000  Uiso   1.00
C280   C     0.34673   0.83199   0.14859   0.00000  Uiso   1.00
C281   C     0.65327   0.83468   0.18474   0.00000  Uiso   1.00
C282   C     0.54026   0.69033   0.14966   0.00000  Uiso   1.00
C283   C     0.45974   0.97634   0.18368   0.00000  Uiso   1.00
C284   C     0.54226   0.98078   0.15239   0.00000  Uiso   1.00
Cu285  Cu    0.50000   0.83334   0.21355   0.00000  Uiso   1.00
Cu286  Cu    0.50000   0.83333   0.11978   0.00000  Uiso   1.00
H287   H     0.66155   0.82872   0.11344   0.00000  Uiso   1.00
H288   H     0.33845   0.83795   0.21989   0.00000  Uiso   1.00
H289   H     0.43460   0.79428   0.03942   0.00000  Uiso   1.00
H290   H     0.56540   0.87239   0.29391   0.00000  Uiso   1.00
I291   I     0.59650   0.72571   0.11556   0.00000  Uiso   1.00
I292   I     0.40350   0.94095   0.21778   0.00000  Uiso   1.00
I293   I     0.61244   0.95291   0.14647   0.00000  Uiso   1.00
I294   I     0.38756   0.71375   0.18686   0.00000  Uiso   1.00
N295   N     0.50001   0.83334   0.28403   0.00000  Uiso   1.00
N296   N     0.49999   0.83332   0.04931   0.00000  Uiso   1.00
O297   O     0.50000   0.77322   0.20625   0.00000  Uiso   1.00
O298   O     0.50000   0.89345   0.12709   0.00000  Uiso   1.00
O299   O     0.50000   0.77321   0.12706   0.00000  Uiso   1.00
O300   O     0.50000   0.89346   0.20628   0.00000  Uiso   1.00
O301   O     0.42495   0.83334   0.19712   0.00000  Uiso   1.00
O302   O     0.57505   0.83333   0.13621   0.00000  Uiso   1.00
O303   O     0.42494   0.83333   0.11793   0.00000  Uiso   1.00
O304   O     0.57506   0.83334   0.21540   0.00000  Uiso   1.00
Br305  Br    0.74221   0.78027   0.27653   0.00000  Uiso   1.00
Br306  Br    0.92446   0.88639   0.05681   0.00000  Uiso   1.00
C307   C     0.83230   0.75417   0.16682   0.00000  Uiso   1.00
C308   C     0.79107   0.68588   0.18094   0.00000  Uiso   1.00
C309   C     0.83413   0.95717   0.16682   0.00000  Uiso   1.00
C310   C     0.83253   0.70949   0.16651   0.00000  Uiso   1.00
C311   C     0.79701   0.81172   0.02269   0.00000  Uiso   1.00
C312   C     0.86966   0.85495   0.31065   0.00000  Uiso   1.00
C313   C     0.79673   0.81172   0.30701   0.00000  Uiso   1.00
C314   C     0.86994   0.85494   0.02633   0.00000  Uiso   1.00
C315   C     0.83437   0.91250   0.16652   0.00000  Uiso   1.00
C316   C     0.73491   0.83303   0.15509   0.00000  Uiso   1.00
C317   C     0.93176   0.83363   0.17825   0.00000  Uiso   1.00
C318   C     0.68006   0.83199   0.14859   0.00000  Uiso   1.00
C319   C     0.98660   0.83468   0.18474   0.00000  Uiso   1.00
C320   C     0.87360   0.69033   0.14966   0.00000  Uiso   1.00
C321   C     0.79307   0.97634   0.18368   0.00000  Uiso   1.00
C322   C     0.87559   0.98078   0.15239   0.00000  Uiso   1.00
Cu323  Cu    0.83333   0.83334   0.21355   0.00000  Uiso   1.00
Cu324  Cu    0.83333   0.83333   0.11978   0.00000  Uiso   1.00
H325   H     0.99489   0.82872   0.11344   0.00000  Uiso   1.00
H326   H     0.67178   0.83795   0.21989   0.00000  Uiso   1.00
H327   H     0.76793   0.79428   0.03942   0.00000  Uiso   1.00
H328   H     0.89873   0.87239   0.29391   0.00000  Uiso   1.00
I329   I     0.92983   0.72571   0.11556   0.00000  Uiso   1.00
I330   I     0.73683   0.94095   0.21778   0.00000  Uiso   1.00
I331   I     0.94577   0.95291   0.14647   0.00000  Uiso   1.00
I332   I     0.72090   0.71375   0.18686   0.00000  Uiso   1.00
N333   N     0.83335   0.83334   0.28403   0.00000  Uiso   1.00
N334   N     0.83332   0.83332   0.04931   0.00000  Uiso   1.00
O335   O     0.83333   0.77322   0.20625   0.00000  Uiso   1.00
O336   O     0.83334   0.89345   0.12709   0.00000  Uiso   1.00
O337   O     0.83333   0.77321   0.12706   0.00000  Uiso   1.00
O338   O     0.83334   0.89346   0.20628   0.00000  Uiso   1.00
O339   O     0.75828   0.83334   0.19712   0.00000  Uiso   1.00
O340   O     0.90839   0.83333   0.13621   0.00000  Uiso   1.00
O341   O     0.75828   0.83333   0.11793   0.00000  Uiso   1.00
O342   O     0.90839   0.83334   0.21540   0.00000  Uiso   1.00
Br343  Br    0.07554   0.11361   0.60986   0.00000  Uiso   1.00
Br344  Br    0.25779   0.21973   0.39014   0.00000  Uiso   1.00
C345   C     0.16563   0.08750   0.50015   0.00000  Uiso   1.00
C346   C     0.12441   0.01922   0.51428   0.00000  Uiso   1.00
C347   C     0.16747   0.29051   0.50016   0.00000  Uiso   1.00
C348   C     0.16587   0.04283   0.49984   0.00000  Uiso   1.00
C349   C     0.13034   0.14505   0.35602   0.00000  Uiso   1.00
C350   C     0.20299   0.18828   0.64398   0.00000  Uiso   1.00
C351   C     0.13006   0.14505   0.64034   0.00000  Uiso   1.00
C352   C     0.20327   0.18828   0.35966   0.00000  Uiso   1.00
C353   C     0.16770   0.24583   0.49985   0.00000  Uiso   1.00
C354   C     0.06824   0.16637   0.48842   0.00000  Uiso   1.00
C355   C     0.26509   0.16697   0.51158   0.00000  Uiso   1.00
C356   C     0.01340   0.16532   0.48192   0.00000  Uiso   1.00
C357   C     0.31994   0.16801   0.51808   0.00000  Uiso   1.00
C358   C     0.20693   0.02366   0.48299   0.00000  Uiso   1.00
C359   C     0.12640   0.30967   0.51701   0.00000  Uiso   1.00
C360   C     0.20893   0.31412   0.48572   0.00000  Uiso   1.00
Cu361  Cu    0.16667   0.16667   0.54689   0.00000  Uiso   1.00
Cu362  Cu    0.16667   0.16666   0.45311   0.00000  Uiso   1.00
H363   H     0.32822   0.16205   0.44677   0.00000  Uiso   1.00
H364   H     0.00511   0.17128   0.55323   0.00000  Uiso   1.00
H365   H     0.10127   0.12761   0.37276   0.00000  Uiso   1.00
H366   H     0.23207   0.20572   0.62724   0.00000  Uiso   1.00
I367   I     0.26316   0.05905   0.44889   0.00000  Uiso   1.00
I368   I     0.07017   0.27429   0.55111   0.00000  Uiso   1.00
I369   I     0.27910   0.28625   0.47980   0.00000  Uiso   1.00
I370   I     0.05423   0.04708   0.52020   0.00000  Uiso   1.00
N371   N     0.16668   0.16668   0.61736   0.00000  Uiso   1.00
N372   N     0.16665   0.16666   0.38264   0.00000  Uiso   1.00
O373   O     0.16666   0.10655   0.53958   0.00000  Uiso   1.00
O374   O     0.16667   0.22678   0.46042   0.00000  Uiso   1.00
O375   O     0.16666   0.10654   0.46039   0.00000  Uiso   1.00
O376   O     0.16667   0.22679   0.53961   0.00000  Uiso   1.00
O377   O     0.09161   0.16667   0.53046   0.00000  Uiso   1.00
O378   O     0.24172   0.16666   0.46954   0.00000  Uiso   1.00
O379   O     0.09161   0.16666   0.45127   0.00000  Uiso   1.00
O380   O     0.24172   0.16667   0.54873   0.00000  Uiso   1.00
Br381  Br    0.40888   0.11361   0.60986   0.00000  Uiso   1.00
Br382  Br    0.59112   0.21973   0.39014   0.00000  Uiso   1.00
C383   C     0.49896   0.08750   0.50015   0.00000  Uiso   1.00
C384   C     0.45774   0.01922   0.51428   0.00000  Uiso   1.00
C385   C     0.50080   0.29051   0.50016   0.00000  Uiso   1.00
C386   C     0.49920   0.04283   0.49984   0.00000  Uiso   1.00
C387   C     0.46368   0.14505   0.35602   0.00000  Uiso   1.00
C388   C     0.53632   0.18828   0.64398   0.00000  Uiso   1.00
C389   C     0.46339   0.14505   0.64034   0.00000  Uiso   1.00
C390   C     0.53661   0.18828   0.35966   0.00000  Uiso   1.00
C391   C     0.50104   0.24583   0.49985   0.00000  Uiso   1.00
C392   C     0.40157   0.16637   0.48842   0.00000  Uiso   1.00
C393   C     0.59843   0.16697   0.51158   0.00000  Uiso   1.00
C394   C     0.34673   0.16532   0.48192   0.00000  Uiso   1.00
C395   C     0.65327   0.16801   0.51808   0.00000  Uiso   1.00
C396   C     0.54026   0.02366   0.48299   0.00000  Uiso   1.00
C397   C     0.45974   0.30967   0.51701   0.00000  Uiso   1.00
C398   C     0.54226   0.31412   0.48572   0.00000  Uiso   1.00
Cu399  Cu    0.50000   0.16667   0.54689   0.00000  Uiso   1.00
Cu400  Cu    0.50000   0.16666   0.45311   0.00000  Uiso   1.00
H401   H     0.66155   0.16205   0.44677   0.00000  Uiso   1.00
H402   H     0.33845   0.17128   0.55323   0.00000  Uiso   1.00
H403   H     0.43460   0.12761   0.37276   0.00000  Uiso   1.00
H404   H     0.56540   0.20572   0.62724   0.00000  Uiso   1.00
I405   I     0.59650   0.05905   0.44889   0.00000  Uiso   1.00
I406   I     0.40350   0.27429   0.55111   0.00000  Uiso   1.00
I407   I     0.61244   0.28625   0.47980   0.00000  Uiso   1.00
I408   I     0.38756   0.04708   0.52020   0.00000  Uiso   1.00
N409   N     0.50001   0.16668   0.61736   0.00000  Uiso   1.00
N410   N     0.49999   0.16666   0.38264   0.00000  Uiso   1.00
O411   O     0.50000   0.10655   0.53958   0.00000  Uiso   1.00
O412   O     0.50000   0.22678   0.46042   0.00000  Uiso   1.00
O413   O     0.50000   0.10654   0.46039   0.00000  Uiso   1.00
O414   O     0.50000   0.22679   0.53961   0.00000  Uiso   1.00
O415   O     0.42495   0.16667   0.53046   0.00000  Uiso   1.00
O416   O     0.57505   0.16666   0.46954   0.00000  Uiso   1.00
O417   O     0.42494   0.16666   0.45127   0.00000  Uiso   1.00
O418   O     0.57506   0.16667   0.54873   0.00000  Uiso   1.00
Br419  Br    0.74221   0.11361   0.60986   0.00000  Uiso   1.00
Br420  Br    0.92446   0.21973   0.39014   0.00000  Uiso   1.00
C421   C     0.83230   0.08750   0.50015   0.00000  Uiso   1.00
C422   C     0.79107   0.01922   0.51428   0.00000  Uiso   1.00
C423   C     0.83413   0.29051   0.50016   0.00000  Uiso   1.00
C424   C     0.83253   0.04283   0.49984   0.00000  Uiso   1.00
C425   C     0.79701   0.14505   0.35602   0.00000  Uiso   1.00
C426   C     0.86966   0.18828   0.64398   0.00000  Uiso   1.00
C427   C     0.79673   0.14505   0.64034   0.00000  Uiso   1.00
C428   C     0.86994   0.18828   0.35966   0.00000  Uiso   1.00
C429   C     0.83437   0.24583   0.49985   0.00000  Uiso   1.00
C430   C     0.73491   0.16637   0.48842   0.00000  Uiso   1.00
C431   C     0.93176   0.16697   0.51158   0.00000  Uiso   1.00
C432   C     0.68006   0.16532   0.48192   0.00000  Uiso   1.00
C433   C     0.98660   0.16801   0.51808   0.00000  Uiso   1.00
C434   C     0.87360   0.02366   0.48299   0.00000  Uiso   1.00
C435   C     0.79307   0.30967   0.51701   0.00000  Uiso   1.00
C436   C     0.87559   0.31412   0.48572   0.00000  Uiso   1.00
Cu437  Cu    0.83333   0.16667   0.54689   0.00000  Uiso   1.00
Cu438  Cu    0.83333   0.16666   0.45311   0.00000  Uiso   1.00
H439   H     0.99489   0.16205   0.44677   0.00000  Uiso   1.00
H440   H     0.67178   0.17128   0.55323   0.00000  Uiso   1.00
H441   H     0.76793   0.12761   0.37276   0.00000  Uiso   1.00
H442   H     0.89873   0.20572   0.62724   0.00000  Uiso   1.00
I443   I     0.92983   0.05905   0.44889   0.00000  Uiso   1.00
I444   I     0.73683   0.27429   0.55111   0.00000  Uiso   1.00
I445   I     0.94577   0.28625   0.47980   0.00000  Uiso   1.00
I446   I     0.72090   0.04708   0.52020   0.00000  Uiso   1.00
N447   N     0.83335   0.16668   0.61736   0.00000  Uiso   1.00
N448   N     0.83332   0.16666   0.38264   0.00000  Uiso   1.00
O449   O     0.83333   0.10655   0.53958   0.00000  Uiso   1.00
O450   O     0.83334   0.22678   0.46042   0.00000  Uiso   1.00
O451   O     0.83333   0.10654   0.46039   0.00000  Uiso   1.00
O452   O     0.83334   0.22679   0.53961   0.00000  Uiso   1.00
O453   O     0.75828   0.16667   0.53046   0.00000  Uiso   1.00
O454   O     0.90839   0.16666   0.46954   0.00000  Uiso   1.00
O455   O     0.75828   0.16666   0.45127   0.00000  Uiso   1.00
O456   O     0.90839   0.16667   0.54873   0.00000  Uiso   1.00
Br457  Br    0.07554   0.44694   0.60986   0.00000  Uiso   1.00
Br458  Br    0.25779   0.55306   0.39014   0.00000  Uiso   1.00
C459   C     0.16563   0.42083   0.50015   0.00000  Uiso   1.00
C460   C     0.12441   0.35255   0.51428   0.00000  Uiso   1.00
C461   C     0.16747   0.62384   0.50016   0.00000  Uiso   1.00
C462   C     0.16587   0.37616   0.49984   0.00000  Uiso   1.00
C463   C     0.13034   0.47839   0.35602   0.00000  Uiso   1.00
C464   C     0.20299   0.52161   0.64398   0.00000  Uiso   1.00
C465   C     0.13006   0.47839   0.64034   0.00000  Uiso   1.00
C466   C     0.20327   0.52161   0.35966   0.00000  Uiso   1.00
C467   C     0.16770   0.57917   0.49985   0.00000  Uiso   1.00
C468   C     0.06824   0.49970   0.48842   0.00000  Uiso   1.00
C469   C     0.26509   0.50030   0.51158   0.00000  Uiso   1.00
C470   C     0.01340   0.49866   0.48192   0.00000  Uiso   1.00
C471   C     0.31994   0.50134   0.51808   0.00000  Uiso   1.00
C472   C     0.20693   0.35699   0.48299   0.00000  Uiso   1.00
C473   C     0.12640   0.64301   0.51701   0.00000  Uiso   1.00
C474   C     0.20893   0.64745   0.48572   0.00000  Uiso   1.00
Cu475  Cu    0.16667   0.50001   0.54689   0.00000  Uiso   1.00
Cu476  Cu    0.16667   0.49999   0.45311   0.00000  Uiso   1.00
H477   H     0.32822   0.49538   0.44677   0.00000  Uiso   1.00
H478   H     0.00511   0.50462   0.55323   0.00000  Uiso   1.00
H479   H     0.10127   0.46094   0.37276   0.00000  Uiso   1.00
H480   H     0.23207   0.53906   0.62724   0.00000  Uiso   1.00
I481   I     0.26316   0.39238   0.44889   0.00000  Uiso   1.00
I482   I     0.07017   0.60762   0.55111   0.00000  Uiso   1.00
I483   I     0.27910   0.61958   0.47980   0.00000  Uiso   1.00
I484   I     0.05423   0.38042   0.52020   0.00000  Uiso   1.00
N485   N     0.16668   0.50001   0.61736   0.00000  Uiso   1.00
N486   N     0.16665   0.49999   0.38264   0.00000  Uiso   1.00
O487   O     0.16666   0.43989   0.53958   0.00000  Uiso   1.00
O488   O     0.16667   0.56011   0.46042   0.00000  Uiso   1.00
O489   O     0.16666   0.43988   0.46039   0.00000  Uiso   1.00
O490   O     0.16667   0.56012   0.53961   0.00000  Uiso   1.00
O491   O     0.09161   0.50000   0.53046   0.00000  Uiso   1.00
O492   O     0.24172   0.50000   0.46954   0.00000  Uiso   1.00
O493   O     0.09161   0.49999   0.45127   0.00000  Uiso   1.00
O494   O     0.24172   0.50001   0.54873   0.00000  Uiso   1.00
Br495  Br    0.40888   0.44694   0.60986   0.00000  Uiso   1.00
Br496  Br    0.59112   0.55306   0.39014   0.00000  Uiso   1.00
C497   C     0.49896   0.42083   0.50015   0.00000  Uiso   1.00
C498   C     0.45774   0.35255   0.51428   0.00000  Uiso   1.00
C499   C     0.50080   0.62384   0.50016   0.00000  Uiso   1.00
C500   C     0.49920   0.37616   0.49984   0.00000  Uiso   1.00
C501   C     0.46368   0.47839   0.35602   0.00000  Uiso   1.00
C502   C     0.53632   0.52161   0.64398   0.00000  Uiso   1.00
C503   C     0.46339   0.47839   0.64034   0.00000  Uiso   1.00
C504   C     0.53661   0.52161   0.35966   0.00000  Uiso   1.00
C505   C     0.50104   0.57917   0.49985   0.00000  Uiso   1.00
C506   C     0.40157   0.49970   0.48842   0.00000  Uiso   1.00
C507   C     0.59843   0.50030   0.51158   0.00000  Uiso   1.00
C508   C     0.34673   0.49866   0.48192   0.00000  Uiso   1.00
C509   C     0.65327   0.50134   0.51808   0.00000  Uiso   1.00
C510   C     0.54026   0.35699   0.48299   0.00000  Uiso   1.00
C511   C     0.45974   0.64301   0.51701   0.00000  Uiso   1.00
C512   C     0.54226   0.64745   0.48572   0.00000  Uiso   1.00
Cu513  Cu    0.50000   0.50001   0.54689   0.00000  Uiso   1.00
Cu514  Cu    0.50000   0.49999   0.45311   0.00000  Uiso   1.00
H515   H     0.66155   0.49538   0.44677   0.00000  Uiso   1.00
H516   H     0.33845   0.50462   0.55323   0.00000  Uiso   1.00
H517   H     0.43460   0.46094   0.37276   0.00000  Uiso   1.00
H518   H     0.56540   0.53906   0.62724   0.00000  Uiso   1.00
I519   I     0.59650   0.39238   0.44889   0.00000  Uiso   1.00
I520   I     0.40350   0.60762   0.55111   0.00000  Uiso   1.00
I521   I     0.61244   0.61958   0.47980   0.00000  Uiso   1.00
I522   I     0.38756   0.38042   0.52020   0.00000  Uiso   1.00
N523   N     0.50001   0.50001   0.61736   0.00000  Uiso   1.00
N524   N     0.49999   0.49999   0.38264   0.00000  Uiso   1.00
O525   O     0.50000   0.43989   0.53958   0.00000  Uiso   1.00
O526   O     0.50000   0.56011   0.46042   0.00000  Uiso   1.00
O527   O     0.50000   0.43988   0.46039   0.00000  Uiso   1.00
O528   O     0.50000   0.56012   0.53961   0.00000  Uiso   1.00
O529   O     0.42495   0.50000   0.53046   0.00000  Uiso   1.00
O530   O     0.57505   0.50000   0.46954   0.00000  Uiso   1.00
O531   O     0.42494   0.49999   0.45127   0.00000  Uiso   1.00
O532   O     0.57506   0.50001   0.54873   0.00000  Uiso   1.00
Br533  Br    0.74221   0.44694   0.60986   0.00000  Uiso   1.00
Br534  Br    0.92446   0.55306   0.39014   0.00000  Uiso   1.00
C535   C     0.83230   0.42083   0.50015   0.00000  Uiso   1.00
C536   C     0.79107   0.35255   0.51428   0.00000  Uiso   1.00
C537   C     0.83413   0.62384   0.50016   0.00000  Uiso   1.00
C538   C     0.83253   0.37616   0.49984   0.00000  Uiso   1.00
C539   C     0.79701   0.47839   0.35602   0.00000  Uiso   1.00
C540   C     0.86966   0.52161   0.64398   0.00000  Uiso   1.00
C541   C     0.79673   0.47839   0.64034   0.00000  Uiso   1.00
C542   C     0.86994   0.52161   0.35966   0.00000  Uiso   1.00
C543   C     0.83437   0.57917   0.49985   0.00000  Uiso   1.00
C544   C     0.73491   0.49970   0.48842   0.00000  Uiso   1.00
C545   C     0.93176   0.50030   0.51158   0.00000  Uiso   1.00
C546   C     0.68006   0.49866   0.48192   0.00000  Uiso   1.00
C547   C     0.98660   0.50134   0.51808   0.00000  Uiso   1.00
C548   C     0.87360   0.35699   0.48299   0.00000  Uiso   1.00
C549   C     0.79307   0.64301   0.51701   0.00000  Uiso   1.00
C550   C     0.87559   0.64745   0.48572   0.00000  Uiso   1.00
Cu551  Cu    0.83333   0.50001   0.54689   0.00000  Uiso   1.00
Cu552  Cu    0.83333   0.49999   0.45311   0.00000  Uiso   1.00
H553   H     0.99489   0.49538   0.44677   0.00000  Uiso   1.00
H554   H     0.67178   0.50462   0.55323   0.00000  Uiso   1.00
H555   H     0.76793   0.46094   0.37276   0.00000  Uiso   1.00
H556   H     0.89873   0.53906   0.62724   0.00000  Uiso   1.00
I557   I     0.92983   0.39238   0.44889   0.00000  Uiso   1.00
I558   I     0.73683   0.60762   0.55111   0.00000  Uiso   1.00
I559   I     0.94577   0.61958   0.47980   0.00000  Uiso   1.00
I560   I     0.72090   0.38042   0.52020   0.00000  Uiso   1.00
N561   N     0.83335   0.50001   0.61736   0.00000  Uiso   1.00
N562   N     0.83332   0.49999   0.38264   0.00000  Uiso   1.00
O563   O     0.83333   0.43989   0.53958   0.00000  Uiso   1.00
O564   O     0.83334   0.56011   0.46042   0.00000  Uiso   1.00
O565   O     0.83333   0.43988   0.46039   0.00000  Uiso   1.00
O566   O     0.83334   0.56012   0.53961   0.00000  Uiso   1.00
O567   O     0.75828   0.50000   0.53046   0.00000  Uiso   1.00
O568   O     0.90839   0.50000   0.46954   0.00000  Uiso   1.00
O569   O     0.75828   0.49999   0.45127   0.00000  Uiso   1.00
O570   O     0.90839   0.50001   0.54873   0.00000  Uiso   1.00
Br571  Br    0.07554   0.78027   0.60986   0.00000  Uiso   1.00
Br572  Br    0.25779   0.88639   0.39014   0.00000  Uiso   1.00
C573   C     0.16563   0.75417   0.50015   0.00000  Uiso   1.00
C574   C     0.12441   0.68588   0.51428   0.00000  Uiso   1.00
C575   C     0.16747   0.95717   0.50016   0.00000  Uiso   1.00
C576   C     0.16587   0.70949   0.49984   0.00000  Uiso   1.00
C577   C     0.13034   0.81172   0.35602   0.00000  Uiso   1.00
C578   C     0.20299   0.85495   0.64398   0.00000  Uiso   1.00
C579   C     0.13006   0.81172   0.64034   0.00000  Uiso   1.00
C580   C     0.20327   0.85494   0.35966   0.00000  Uiso   1.00
C581   C     0.16770   0.91250   0.49985   0.00000  Uiso   1.00
C582   C     0.06824   0.83303   0.48842   0.00000  Uiso   1.00
C583   C     0.26509   0.83363   0.51158   0.00000  Uiso   1.00
C584   C     0.01340   0.83199   0.48192   0.00000  Uiso   1.00
C585   C     0.31994   0.83468   0.51808   0.00000  Uiso   1.00
C586   C     0.20693   0.69033   0.48299   0.00000  Uiso   1.00
C587   C     0.12640   0.97634   0.51701   0.00000  Uiso   1.00
C588   C     0.20893   0.98078   0.48572   0.00000  Uiso   1.00
Cu589  Cu    0.16667   0.83334   0.54689   0.00000  Uiso   1.00
Cu590  Cu    0.16667   0.83333   0.45311   0.00000  Uiso   1.00
H591   H     0.32822   0.82872   0.44677   0.00000  Uiso   1.00
H592   H     0.00511   0.83795   0.55323   0.00000  Uiso   1.00
H593   H     0.10127   0.79428   0.37276   0.00000  Uiso   1.00
H594   H     0.23207   0.87239   0.62724   0.00000  Uiso   1.00
I595   I     0.26316   0.72571   0.44889   0.00000  Uiso   1.00
I596   I     0.07017   0.94095   0.55111   0.00000  Uiso   1.00
I597   I     0.27910   0.95291   0.47980   0.00000  Uiso   1.00
I598   I     0.05423   0.71375   0.52020   0.00000  Uiso   1.00
N599   N     0.16668   0.83334   0.61736   0.00000  Uiso   1.00
N600   N     0.16665   0.83332   0.38264   0.00000  Uiso   1.00
O601   O     0.16666   0.77322   0.53958   0.00000  Uiso   1.00
O602   O     0.16667   0.89345   0.46042   0.00000  Uiso   1.00
O603   O     0.16666   0.77321   0.46039   0.00000  Uiso   1.00
O604   O     0.16667   0.89346   0.53961   0.00000  Uiso   1.00
O605   O     0.09161   0.83334   0.53046   0.00000  Uiso   1.00
O606   O     0.24172   0.83333   0.46954   0.00000  Uiso   1.00
O607   O     0.09161   0.83333   0.45127   0.00000  Uiso   1.00
O608   O     0.24172   0.83334   0.54873   0.00000  Uiso   1.00
Br609  Br    0.40888   0.78027   0.60986   0.00000  Uiso   1.00
Br610  Br    0.59112   0.88639   0.39014   0.00000  Uiso   1.00
C611   C     0.49896   0.75417   0.50015   0.00000  Uiso   1.00
C612   C     0.45774   0.68588   0.51428   0.00000  Uiso   1.00
C613   C     0.50080   0.95717   0.50016   0.00000  Uiso   1.00
C614   C     0.49920   0.70949   0.49984   0.00000  Uiso   1.00
C615   C     0.46368   0.81172   0.35602   0.00000  Uiso   1.00
C616   C     0.53632   0.85495   0.64398   0.00000  Uiso   1.00
C617   C     0.46339   0.81172   0.64034   0.00000  Uiso   1.00
C618   C     0.53661   0.85494   0.35966   0.00000  Uiso   1.00
C619   C     0.50104   0.91250   0.49985   0.00000  Uiso   1.00
C620   C     0.40157   0.83303   0.48842   0.00000  Uiso   1.00
C621   C     0.59843   0.83363   0.51158   0.00000  Uiso   1.00
C622   C     0.34673   0.83199   0.48192   0.00000  Uiso   1.00
C623   C     0.65327   0.83468   0.51808   0.00000  Uiso   1.00
C624   C     0.54026   0.69033   0.48299   0.00000  Uiso   1.00
C625   C     0.45974   0.97634   0.51701   0.00000  Uiso   1.00
C626   C     0.54226   0.98078   0.48572   0.00000  Uiso   1.00
Cu627  Cu    0.50000   0.83334   0.54689   0.00000  Uiso   1.00
Cu628  Cu    0.50000   0.83333   0.45311   0.00000  Uiso   1.00
H629   H     0.66155   0.82872   0.44677   0.00000  Uiso   1.00
H630   H     0.33845   0.83795   0.55323   0.00000  Uiso   1.00
H631   H     0.43460   0.79428   0.37276   0.00000  Uiso   1.00
H632   H     0.56540   0.87239   0.62724   0.00000  Uiso   1.00
I633   I     0.59650   0.72571   0.44889   0.00000  Uiso   1.00
I634   I     0.40350   0.94095   0.55111   0.00000  Uiso   1.00
I635   I     0.61244   0.95291   0.47980   0.00000  Uiso   1.00
I636   I     0.38756   0.71375   0.52020   0.00000  Uiso   1.00
N637   N     0.50001   0.83334   0.61736   0.00000  Uiso   1.00
N638   N     0.49999   0.83332   0.38264   0.00000  Uiso   1.00
O639   O     0.50000   0.77322   0.53958   0.00000  Uiso   1.00
O640   O     0.50000   0.89345   0.46042   0.00000  Uiso   1.00
O641   O     0.50000   0.77321   0.46039   0.00000  Uiso   1.00
O642   O     0.50000   0.89346   0.53961   0.00000  Uiso   1.00
O643   O     0.42495   0.83334   0.53046   0.00000  Uiso   1.00
O644   O     0.57505   0.83333   0.46954   0.00000  Uiso   1.00
O645   O     0.42494   0.83333   0.45127   0.00000  Uiso   1.00
O646   O     0.57506   0.83334   0.54873   0.00000  Uiso   1.00
Br647  Br    0.74221   0.78027   0.60986   0.00000  Uiso   1.00
Br648  Br    0.92446   0.88639   0.39014   0.00000  Uiso   1.00
C649   C     0.83230   0.75417   0.50015   0.00000  Uiso   1.00
C650   C     0.79107   0.68588   0.51428   0.00000  Uiso   1.00
C651   C     0.83413   0.95717   0.50016   0.00000  Uiso   1.00
C652   C     0.83253   0.70949   0.49984   0.00000  Uiso   1.00
C653   C     0.79701   0.81172   0.35602   0.00000  Uiso   1.00
C654   C     0.86966   0.85495   0.64398   0.00000  Uiso   1.00
C655   C     0.79673   0.81172   0.64034   0.00000  Uiso   1.00
C656   C     0.86994   0.85494   0.35966   0.00000  Uiso   1.00
C657   C     0.83437   0.91250   0.49985   0.00000  Uiso   1.00
C658   C     0.73491   0.83303   0.48842   0.00000  Uiso   1.00
C659   C     0.93176   0.83363   0.51158   0.00000  Uiso   1.00
C660   C     0.68006   0.83199   0.48192   0.00000  Uiso   1.00
C661   C     0.98660   0.83468   0.51808   0.00000  Uiso   1.00
C662   C     0.87360   0.69033   0.48299   0.00000  Uiso   1.00
C663   C     0.79307   0.97634   0.51701   0.00000  Uiso   1.00
C664   C     0.87559   0.98078   0.48572   0.00000  Uiso   1.00
Cu665  Cu    0.83333   0.83334   0.54689   0.00000  Uiso   1.00
Cu666  Cu    0.83333   0.83333   0.45311   0.00000  Uiso   1.00
H667   H     0.99489   0.82872   0.44677   0.00000  Uiso   1.00
H668   H     0.67178   0.83795   0.55323   0.00000  Uiso   1.00
H669   H     0.76793   0.79428   0.37276   0.00000  Uiso   1.00
H670   H     0.89873   0.87239   0.62724   0.00000  Uiso   1.00
I671   I     0.92983   0.72571   0.44889   0.00000  Uiso   1.00
I672   I     0.73683   0.94095   0.55111   0.00000  Uiso   1.00
I673   I     0.94577   0.95291   0.47980   0.00000  Uiso   1.00
I674   I     0.72090   0.71375   0.52020   0.00000  Uiso   1.00
N675   N     0.83335   0.83334   0.61736   0.00000  Uiso   1.00
N676   N     0.83332   0.83332   0.38264   0.00000  Uiso   1.00
O677   O     0.83333   0.77322   0.53958   0.00000  Uiso   1.00
O678   O     0.83334   0.89345   0.46042   0.00000  Uiso   1.00
O679   O     0.83333   0.77321   0.46039   0.00000  Uiso   1.00
O680   O     0.83334   0.89346   0.53961   0.00000  Uiso   1.00
O681   O     0.75828   0.83334   0.53046   0.00000  Uiso   1.00
O682   O     0.90839   0.83333   0.46954   0.00000  Uiso   1.00
O683   O     0.75828   0.83333   0.45127   0.00000  Uiso   1.00
O684   O     0.90839   0.83334   0.54873   0.00000  Uiso   1.00
Br685  Br    0.07554   0.11361   0.94319   0.00000  Uiso   1.00
Br686  Br    0.25779   0.21973   0.72347   0.00000  Uiso   1.00
C687   C     0.16563   0.08750   0.83348   0.00000  Uiso   1.00
C688   C     0.12441   0.01922   0.84761   0.00000  Uiso   1.00
C689   C     0.16747   0.29051   0.83349   0.00000  Uiso   1.00
C690   C     0.16587   0.04283   0.83318   0.00000  Uiso   1.00
C691   C     0.13034   0.14505   0.68935   0.00000  Uiso   1.00
C692   C     0.20299   0.18828   0.97731   0.00000  Uiso   1.00
C693   C     0.13006   0.14505   0.97367   0.00000  Uiso   1.00
C694   C     0.20327   0.18828   0.69299   0.00000  Uiso   1.00
C695   C     0.16770   0.24583   0.83318   0.00000  Uiso   1.00
C696   C     0.06824   0.16637   0.82175   0.00000  Uiso   1.00
C697   C     0.26509   0.16697   0.84491   0.00000  Uiso   1.00
C698   C     0.01340   0.16532   0.81526   0.00000  Uiso   1.00
C699   C     0.31994   0.16801   0.85141   0.00000  Uiso   1.00
C700   C     0.20693   0.02366   0.81632   0.00000  Uiso   1.00
C701   C     0.12640   0.30967   0.85034   0.00000  Uiso   1.00
C702   C     0.20893   0.31412   0.81906   0.00000  Uiso   1.00
Cu703  Cu    0.16667   0.16667   0.88022   0.00000  Uiso   1.00
Cu704  Cu    0.16667   0.16666   0.78645   0.00000  Uiso   1.00
H705   H     0.32822   0.16205   0.78011   0.00000  Uiso   1.00
H706   H     0.00511   0.17128   0.88656   0.00000  Uiso   1.00
H707   H     0.10127   0.12761   0.70609   0.00000  Uiso   1.00
H708   H     0.23207   0.20572   0.96058   0.00000  Uiso   1.00
I709   I     0.26316   0.05905   0.78222   0.00000  Uiso   1.00
I710   I     0.07017   0.27429   0.88444   0.00000  Uiso   1.00
I711   I     0.27910   0.28625   0.81313   0.00000  Uiso   1.00
I712   I     0.05423   0.04708   0.85353   0.00000  Uiso   1.00
N713   N     0.16668   0.16668   0.95069   0.00000  Uiso   1.00
N714   N     0.16665   0.16666   0.71597   0.00000  Uiso   1.00
O715   O     0.16666   0.10655   0.87291   0.00000  Uiso   1.00
O716   O     0.16667   0.22678   0.79375   0.00000  Uiso   1.00
O717   O     0.16666   0.10654   0.79372   0.00000  Uiso   1.00
O718   O     0.16667   0.22679   0.87294   0.00000  Uiso   1.00
O719   O     0.09161   0.16667   0.86379   0.00000  Uiso   1.00
O720   O     0.24172   0.16666   0.80288   0.00000  Uiso   1.00
O721   O     0.09161   0.16666   0.78460   0.00000  Uiso   1.00
O722   O     0.24172   0.16667   0.88207   0.00000  Uiso   1.00
Br723  Br    0.40888   0.11361   0.94319   0.00000  Uiso   1.00
Br724  Br    0.59112   0.21973   0.72347   0.00000  Uiso   1.00
C725   C     0.49896   0.08750   0.83348   0.00000  Uiso   1.00
C726   C     0.45774   0.01922   0.84761   0.00000  Uiso   1.00
C727   C     0.50080   0.29051   0.83349   0.00000  Uiso   1.00
C728   C     0.49920   0.04283   0.83318   0.00000  Uiso   1.00
C729   C     0.46368   0.14505   0.68935   0.00000  Uiso   1.00
C730   C     0.53632   0.18828   0.97731   0.00000  Uiso   1.00
C731   C     0.46339   0.14505   0.97367   0.00000  Uiso   1.00
C732   C     0.53661   0.18828   0.69299   0.00000  Uiso   1.00
C733   C     0.50104   0.24583   0.83318   0.00000  Uiso   1.00
C734   C     0.40157   0.16637   0.82175   0.00000  Uiso   1.00
C735   C     0.59843   0.16697   0.84491   0.00000  Uiso   1.00
C736   C     0.34673   0.16532   0.81526   0.00000  Uiso   1.00
C737   C     0.65327   0.16801   0.85141   0.00000  Uiso   1.00
C738   C     0.54026   0.02366   0.81632   0.00000  Uiso   1.00
C739   C     0.45974   0.30967   0.85034   0.00000  Uiso   1.00
C740   C     0.54226   0.31412   0.81906   0.00000  Uiso   1.00
Cu741  Cu    0.50000   0.16667   0.88022   0.00000  Uiso   1.00
Cu742  Cu    0.50000   0.16666   0.78645   0.00000  Uiso   1.00
H743   H     0.66155   0.16205   0.78011   0.00000  Uiso   1.00
H744   H     0.33845   0.17128   0.88656   0.00000  Uiso   1.00
H745   H     0.43460   0.12761   0.70609   0.00000  Uiso   1.00
H746   H     0.56540   0.20572   0.96058   0.00000  Uiso   1.00
I747   I     0.59650   0.05905   0.78222   0.00000  Uiso   1.00
I748   I     0.40350   0.27429   0.88444   0.00000  Uiso   1.00
I749   I     0.61244   0.28625   0.81313   0.00000  Uiso   1.00
I750   I     0.38756   0.04708   0.85353   0.00000  Uiso   1.00
N751   N     0.50001   0.16668   0.95069   0.00000  Uiso   1.00
N752   N     0.49999   0.16666   0.71597   0.00000  Uiso   1.00
O753   O     0.50000   0.10655   0.87291   0.00000  Uiso   1.00
O754   O     0.50000   0.22678   0.79375   0.00000  Uiso   1.00
O755   O     0.50000   0.10654   0.79372   0.00000  Uiso   1.00
O756   O     0.50000   0.22679   0.87294   0.00000  Uiso   1.00
O757   O     0.42495   0.16667   0.86379   0.00000  Uiso   1.00
O758   O     0.57505   0.16666   0.80288   0.00000  Uiso   1.00
O759   O     0.42494   0.16666   0.78460   0.00000  Uiso   1.00
O760   O     0.57506   0.16667   0.88207   0.00000  Uiso   1.00
Br761  Br    0.74221   0.11361   0.94319   0.00000  Uiso   1.00
Br762  Br    0.92446   0.21973   0.72347   0.00000  Uiso   1.00
C763   C     0.83230   0.08750   0.83348   0.00000  Uiso   1.00
C764   C     0.79107   0.01922   0.84761   0.00000  Uiso   1.00
C765   C     0.83413   0.29051   0.83349   0.00000  Uiso   1.00
C766   C     0.83253   0.04283   0.83318   0.00000  Uiso   1.00
C767   C     0.79701   0.14505   0.68935   0.00000  Uiso   1.00
C768   C     0.86966   0.18828   0.97731   0.00000  Uiso   1.00
C769   C     0.79673   0.14505   0.97367   0.00000  Uiso   1.00
C770   C     0.86994   0.18828   0.69299   0.00000  Uiso   1.00
C771   C     0.83437   0.24583   0.83318   0.00000  Uiso   1.00
C772   C     0.73491   0.16637   0.82175   0.00000  Uiso   1.00
C773   C     0.93176   0.16697   0.84491   0.00000  Uiso   1.00
C774   C     0.68006   0.16532   0.81526   0.00000  Uiso   1.00
C775   C     0.98660   0.16801   0.85141   0.00000  Uiso   1.00
C776   C     0.87360   0.02366   0.81632   0.00000  Uiso   1.00
C777   C     0.79307   0.30967   0.85034   0.00000  Uiso   1.00
C778   C     0.87559   0.31412   0.81906   0.00000  Uiso   1.00
Cu779  Cu    0.83333   0.16667   0.88022   0.00000  Uiso   1.00
Cu780  Cu    0.83333   0.16666   0.78645   0.00000  Uiso   1.00
H781   H     0.99489   0.16205   0.78011   0.00000  Uiso   1.00
H782   H     0.67178   0.17128   0.88656   0.00000  Uiso   1.00
H783   H     0.76793   0.12761   0.70609   0.00000  Uiso   1.00
H784   H     0.89873   0.20572   0.96058   0.00000  Uiso   1.00
I785   I     0.92983   0.05905   0.78222   0.00000  Uiso   1.00
I786   I     0.73683   0.27429   0.88444   0.00000  Uiso   1.00
I787   I     0.94577   0.28625   0.81313   0.00000  Uiso   1.00
I788   I     0.72090   0.04708   0.85353   0.00000  Uiso   1.00
N789   N     0.83335   0.16668   0.95069   0.00000  Uiso   1.00
N790   N     0.83332   0.16666   0.71597   0.00000  Uiso   1.00
O791   O     0.83333   0.10655   0.87291   0.00000  Uiso   1.00
O792   O     0.83334   0.22678   0.79375   0.00000  Uiso   1.00
O793   O     0.83333   0.10654   0.79372   0.00000  Uiso   1.00
O794   O     0.83334   0.22679   0.87294   0.00000  Uiso   1.00
O795   O     0.75828   0.16667   0.86379   0.00000  Uiso   1.00
O796   O     0.90839   0.16666   0.80288   0.00000  Uiso   1.00
O797   O     0.75828   0.16666   0.78460   0.00000  Uiso   1.00
O798   O     0.90839   0.16667   0.88207   0.00000  Uiso   1.00
Br799  Br    0.07554   0.44694   0.94319   0.00000  Uiso   1.00
Br800  Br    0.25779   0.55306   0.72347   0.00000  Uiso   1.00
C801   C     0.16563   0.42083   0.83348   0.00000  Uiso   1.00
C802   C     0.12441   0.35255   0.84761   0.00000  Uiso   1.00
C803   C     0.16747   0.62384   0.83349   0.00000  Uiso   1.00
C804   C     0.16587   0.37616   0.83318   0.00000  Uiso   1.00
C805   C     0.13034   0.47839   0.68935   0.00000  Uiso   1.00
C806   C     0.20299   0.52161   0.97731   0.00000  Uiso   1.00
C807   C     0.13006   0.47839   0.97367   0.00000  Uiso   1.00
C808   C     0.20327   0.52161   0.69299   0.00000  Uiso   1.00
C809   C     0.16770   0.57917   0.83318   0.00000  Uiso   1.00
C810   C     0.06824   0.49970   0.82175   0.00000  Uiso   1.00
C811   C     0.26509   0.50030   0.84491   0.00000  Uiso   1.00
C812   C     0.01340   0.49866   0.81526   0.00000  Uiso   1.00
C813   C     0.31994   0.50134   0.85141   0.00000  Uiso   1.00
C814   C     0.20693   0.35699   0.81632   0.00000  Uiso   1.00
C815   C     0.12640   0.64301   0.85034   0.00000  Uiso   1.00
C816   C     0.20893   0.64745   0.81906   0.00000  Uiso   1.00
Cu817  Cu    0.16667   0.50001   0.88022   0.00000  Uiso   1.00
Cu818  Cu    0.16667   0.49999   0.78645   0.00000  Uiso   1.00
H819   H     0.32822   0.49538   0.78011   0.00000  Uiso   1.00
H820   H     0.00511   0.50462   0.88656   0.00000  Uiso   1.00
H821   H     0.10127   0.46094   0.70609   0.00000  Uiso   1.00
H822   H     0.23207   0.53906   0.96058   0.00000  Uiso   1.00
I823   I     0.26316   0.39238   0.78222   0.00000  Uiso   1.00
I824   I     0.07017   0.60762   0.88444   0.00000  Uiso   1.00
I825   I     0.27910   0.61958   0.81313   0.00000  Uiso   1.00
I826   I     0.05423   0.38042   0.85353   0.00000  Uiso   1.00
N827   N     0.16668   0.50001   0.95069   0.00000  Uiso   1.00
N828   N     0.16665   0.49999   0.71597   0.00000  Uiso   1.00
O829   O     0.16666   0.43989   0.87291   0.00000  Uiso   1.00
O830   O     0.16667   0.56011   0.79375   0.00000  Uiso   1.00
O831   O     0.16666   0.43988   0.79372   0.00000  Uiso   1.00
O832   O     0.16667   0.56012   0.87294   0.00000  Uiso   1.00
O833   O     0.09161   0.50000   0.86379   0.00000  Uiso   1.00
O834   O     0.24172   0.50000   0.80288   0.00000  Uiso   1.00
O835   O     0.09161   0.49999   0.78460   0.00000  Uiso   1.00
O836   O     0.24172   0.50001   0.88207   0.00000  Uiso   1.00
Br837  Br    0.40888   0.44694   0.94319   0.00000  Uiso   1.00
Br838  Br    0.59112   0.55306   0.72347   0.00000  Uiso   1.00
C839   C     0.49896   0.42083   0.83348   0.00000  Uiso   1.00
C840   C     0.45774   0.35255   0.84761   0.00000  Uiso   1.00
C841   C     0.50080   0.62384   0.83349   0.00000  Uiso   1.00
C842   C     0.49920   0.37616   0.83318   0.00000  Uiso   1.00
C843   C     0.46368   0.47839   0.68935   0.00000  Uiso   1.00
C844   C     0.53632   0.52161   0.97731   0.00000  Uiso   1.00
C845   C     0.46339   0.47839   0.97367   0.00000  Uiso   1.00
C846   C     0.53661   0.52161   0.69299   0.00000  Uiso   1.00
C847   C     0.50104   0.57917   0.83318   0.00000  Uiso   1.00
C848   C     0.40157   0.49970   0.82175   0.00000  Uiso   1.00
C849   C     0.59843   0.50030   0.84491   0.00000  Uiso   1.00
C850   C     0.34673   0.49866   0.81526   0.00000  Uiso   1.00
C851   C     0.65327   0.50134   0.85141   0.00000  Uiso   1.00
C852   C     0.54026   0.35699   0.81632   0.00000  Uiso   1.00
C853   C     0.45974   0.64301   0.85034   0.00000  Uiso   1.00
C854   C     0.54226   0.64745   0.81906   0.00000  Uiso   1.00
Cu855  Cu    0.50000   0.50001   0.88022   0.00000  Uiso   1.00
Cu856  Cu    0.50000   0.49999   0.78645   0.00000  Uiso   1.00
H857   H     0.66155   0.49538   0.78011   0.00000  Uiso   1.00
H858   H     0.33845   0.50462   0.88656   0.00000  Uiso   1.00
H859   H     0.43460   0.46094   0.70609   0.00000  Uiso   1.00
H860   H     0.56540   0.53906   0.96058   0.00000  Uiso   1.00
I861   I     0.59650   0.39238   0.78222   0.00000  Uiso   1.00
I862   I     0.40350   0.60762   0.88444   0.00000  Uiso   1.00
I863   I     0.61244   0.61958   0.81313   0.00000  Uiso   1.00
I864   I     0.38756   0.38042   0.85353   0.00000  Uiso   1.00
N865   N     0.50001   0.50001   0.95069   0.00000  Uiso   1.00
N866   N     0.49999   0.49999   0.71597   0.00000  Uiso   1.00
O867   O     0.50000   0.43989   0.87291   0.00000  Uiso   1.00
O868   O     0.50000   0.56011   0.79375   0.00000  Uiso   1.00
O869   O     0.50000   0.43988   0.79372   0.00000  Uiso   1.00
O870   O     0.50000   0.56012   0.87294   0.00000  Uiso   1.00
O871   O     0.42495   0.50000   0.86379   0.00000  Uiso   1.00
O872   O     0.57505   0.50000   0.80288   0.00000  Uiso   1.00
O873   O     0.42494   0.49999   0.78460   0.00000  Uiso   1.00
O874   O     0.57506   0.50001   0.88207   0.00000  Uiso   1.00
Br875  Br    0.74221   0.44694   0.94319   0.00000  Uiso   1.00
Br876  Br    0.92446   0.55306   0.72347   0.00000  Uiso   1.00
C877   C     0.83230   0.42083   0.83348   0.00000  Uiso   1.00
C878   C     0.79107   0.35255   0.84761   0.00000  Uiso   1.00
C879   C     0.83413   0.62384   0.83349   0.00000  Uiso   1.00
C880   C     0.83253   0.37616   0.83318   0.00000  Uiso   1.00
C881   C     0.79701   0.47839   0.68935   0.00000  Uiso   1.00
C882   C     0.86966   0.52161   0.97731   0.00000  Uiso   1.00
C883   C     0.79673   0.47839   0.97367   0.00000  Uiso   1.00
C884   C     0.86994   0.52161   0.69299   0.00000  Uiso   1.00
C885   C     0.83437   0.57917   0.83318   0.00000  Uiso   1.00
C886   C     0.73491   0.49970   0.82175   0.00000  Uiso   1.00
C887   C     0.93176   0.50030   0.84491   0.00000  Uiso   1.00
C888   C     0.68006   0.49866   0.81526   0.00000  Uiso   1.00
C889   C     0.98660   0.50134   0.85141   0.00000  Uiso   1.00
C890   C     0.87360   0.35699   0.81632   0.00000  Uiso   1.00
C891   C     0.79307   0.64301   0.85034   0.00000  Uiso   1.00
C892   C     0.87559   0.64745   0.81906   0.00000  Uiso   1.00
Cu893  Cu    0.83333   0.50001   0.88022   0.00000  Uiso   1.00
Cu894  Cu    0.83333   0.49999   0.78645   0.00000  Uiso   1.00
H895   H     0.99489   0.49538   0.78011   0.00000  Uiso   1.00
H896   H     0.67178   0.50462   0.88656   0.00000  Uiso   1.00
H897   H     0.76793   0.46094   0.70609   0.00000  Uiso   1.00
H898   H     0.89873   0.53906   0.96058   0.00000  Uiso   1.00
I899   I     0.92983   0.39238   0.78222   0.00000  Uiso   1.00
I900   I     0.73683   0.60762   0.88444   0.00000  Uiso   1.00
I901   I     0.94577   0.61958   0.81313   0.00000  Uiso   1.00
I902   I     0.72090   0.38042   0.85353   0.00000  Uiso   1.00
N903   N     0.83335   0.50001   0.95069   0.00000  Uiso   1.00
N904   N     0.83332   0.49999   0.71597   0.00000  Uiso   1.00
O905   O     0.83333   0.43989   0.87291   0.00000  Uiso   1.00
O906   O     0.83334   0.56011   0.79375   0.00000  Uiso   1.00
O907   O     0.83333   0.43988   0.79372   0.00000  Uiso   1.00
O908   O     0.83334   0.56012   0.87294   0.00000  Uiso   1.00
O909   O     0.75828   0.50000   0.86379   0.00000  Uiso   1.00
O910   O     0.90839   0.50000   0.80288   0.00000  Uiso   1.00
O911   O     0.75828   0.49999   0.78460   0.00000  Uiso   1.00
O912   O     0.90839   0.50001   0.88207   0.00000  Uiso   1.00
Br913  Br    0.07554   0.78027   0.94319   0.00000  Uiso   1.00
Br914  Br    0.25779   0.88639   0.72347   0.00000  Uiso   1.00
C915   C     0.16563   0.75417   0.83348   0.00000  Uiso   1.00
C916   C     0.12441   0.68588   0.84761   0.00000  Uiso   1.00
C917   C     0.16747   0.95717   0.83349   0.00000  Uiso   1.00
C918   C     0.16587   0.70949   0.83318   0.00000  Uiso   1.00
C919   C     0.13034   0.81172   0.68935   0.00000  Uiso   1.00
C920   C     0.20299   0.85495   0.97731   0.00000  Uiso   1.00
C921   C     0.13006   0.81172   0.97367   0.00000  Uiso   1.00
C922   C     0.20327   0.85494   0.69299   0.00000  Uiso   1.00
C923   C     0.16770   0.91250   0.83318   0.00000  Uiso   1.00
C924   C     0.06824   0.83303   0.82175   0.00000  Uiso   1.00
C925   C     0.26509   0.83363   0.84491   0.00000  Uiso   1.00
C926   C     0.01340   0.83199   0.81526   0.00000  Uiso   1.00
C927   C     0.31994   0.83468   0.85141   0.00000  Uiso   1.00
C928   C     0.20693   0.69033   0.81632   0.00000  Uiso   1.00
C929   C     0.12640   0.97634   0.85034   0.00000  Uiso   1.00
C930   C     0.20893   0.98078   0.81906   0.00000  Uiso   1.00
Cu931  Cu    0.16667   0.83334   0.88022   0.00000  Uiso   1.00
Cu932  Cu    0.16667   0.83333   0.78645   0.00000  Uiso   1.00
H933   H     0.32822   0.82872   0.78011   0.00000  Uiso   1.00
H934   H     0.00511   0.83795   0.88656   0.00000  Uiso   1.00
H935   H     0.10127   0.79428   0.70609   0.00000  Uiso   1.00
H936   H     0.23207   0.87239   0.96058   0.00000  Uiso   1.00
I937   I     0.26316   0.72571   0.78222   0.00000  Uiso   1.00
I938   I     0.07017   0.94095   0.88444   0.00000  Uiso   1.00
I939   I     0.27910   0.95291   0.81313   0.00000  Uiso   1.00
I940   I     0.05423   0.71375   0.85353   0.00000  Uiso   1.00
N941   N     0.16668   0.83334   0.95069   0.00000  Uiso   1.00
N942   N     0.16665   0.83332   0.71597   0.00000  Uiso   1.00
O943   O     0.16666   0.77322   0.87291   0.00000  Uiso   1.00
O944   O     0.16667   0.89345   0.79375   0.00000  Uiso   1.00
O945   O     0.16666   0.77321   0.79372   0.00000  Uiso   1.00
O946   O     0.16667   0.89346   0.87294   0.00000  Uiso   1.00
O947   O     0.09161   0.83334   0.86379   0.00000  Uiso   1.00
O948   O     0.24172   0.83333   0.80288   0.00000  Uiso   1.00
O949   O     0.09161   0.83333   0.78460   0.00000  Uiso   1.00
O950   O     0.24172   0.83334   0.88207   0.00000  Uiso   1.00
Br951  Br    0.40888   0.78027   0.94319   0.00000  Uiso   1.00
Br952  Br    0.59112   0.88639   0.72347   0.00000  Uiso   1.00
C953   C     0.49896   0.75417   0.83348   0.00000  Uiso   1.00
C954   C     0.45774   0.68588   0.84761   0.00000  Uiso   1.00
C955   C     0.50080   0.95717   0.83349   0.00000  Uiso   1.00
C956   C     0.49920   0.70949   0.83318   0.00000  Uiso   1.00
C957   C     0.46368   0.81172   0.68935   0.00000  Uiso   1.00
C958   C     0.53632   0.85495   0.97731   0.00000  Uiso   1.00
C959   C     0.46339   0.81172   0.97367   0.00000  Uiso   1.00
C960   C     0.53661   0.85494   0.69299   0.00000  Uiso   1.00
C961   C     0.50104   0.91250   0.83318   0.00000  Uiso   1.00
C962   C     0.40157   0.83303   0.82175   0.00000  Uiso   1.00
C963   C     0.59843   0.83363   0.84491   0.00000  Uiso   1.00
C964   C     0.34673   0.83199   0.81526   0.00000  Uiso   1.00
C965   C     0.65327   0.83468   0.85141   0.00000  Uiso   1.00
C966   C     0.54026   0.69033   0.81632   0.00000  Uiso   1.00
C967   C     0.45974   0.97634   0.85034   0.00000  Uiso   1.00
C968   C     0.54226   0.98078   0.81906   0.00000  Uiso   1.00
Cu969  Cu    0.50000   0.83334   0.88022   0.00000  Uiso   1.00
Cu970  Cu    0.50000   0.83333   0.78645   0.00000  Uiso   1.00
H971   H     0.66155   0.82872   0.78011   0.00000  Uiso   1.00
H972   H     0.33845   0.83795   0.88656   0.00000  Uiso   1.00
H973   H     0.43460   0.79428   0.70609   0.00000  Uiso   1.00
H974   H     0.56540   0.87239   0.96058   0.00000  Uiso   1.00
I975   I     0.59650   0.72571   0.78222   0.00000  Uiso   1.00
I976   I     0.40350   0.94095   0.88444   0.00000  Uiso   1.00
I977   I     0.61244   0.95291   0.81313   0.00000  Uiso   1.00
I978   I     0.38756   0.71375   0.85353   0.00000  Uiso   1.00
N979   N     0.50001   0.83334   0.95069   0.00000  Uiso   1.00
N980   N     0.49999   0.83332   0.71597   0.00000  Uiso   1.00
O981   O     0.50000   0.77322   0.87291   0.00000  Uiso   1.00
O982   O     0.50000   0.89345   0.79375   0.00000  Uiso   1.00
O983   O     0.50000   0.77321   0.79372   0.00000  Uiso   1.00
O984   O     0.50000   0.89346   0.87294   0.00000  Uiso   1.00
O985   O     0.42495   0.83334   0.86379   0.00000  Uiso   1.00
O986   O     0.57505   0.83333   0.80288   0.00000  Uiso   1.00
O987   O     0.42494   0.83333   0.78460   0.00000  Uiso   1.00
O988   O     0.57506   0.83334   0.88207   0.00000  Uiso   1.00
Br989  Br    0.74221   0.78027   0.94319   0.00000  Uiso   1.00
Br990  Br    0.92446   0.88639   0.72347   0.00000  Uiso   1.00
C991   C     0.83230   0.75417   0.83348   0.00000  Uiso   1.00
C992   C     0.79107   0.68588   0.84761   0.00000  Uiso   1.00
C993   C     0.83413   0.95717   0.83349   0.00000  Uiso   1.00
C994   C     0.83253   0.70949   0.83318   0.00000  Uiso   1.00
C995   C     0.79701   0.81172   0.68935   0.00000  Uiso   1.00
C996   C     0.86966   0.85495   0.97731   0.00000  Uiso   1.00
C997   C     0.79673   0.81172   0.97367   0.00000  Uiso   1.00
C998   C     0.86994   0.85494   0.69299   0.00000  Uiso   1.00
C999   C     0.83437   0.91250   0.83318   0.00000  Uiso   1.00
C1000  C     0.73491   0.83303   0.82175   0.00000  Uiso   1.00
C1001  C     0.93176   0.83363   0.84491   0.00000  Uiso   1.00
C1002  C     0.68006   0.83199   0.81526   0.00000  Uiso   1.00
C1003  C     0.98660   0.83468   0.85141   0.00000  Uiso   1.00
C1004  C     0.87360   0.69033   0.81632   0.00000  Uiso   1.00
C1005  C     0.79307   0.97634   0.85034   0.00000  Uiso   1.00
C1006  C     0.87559   0.98078   0.81906   0.00000  Uiso   1.00
Cu1007 Cu    0.83333   0.83334   0.88022   0.00000  Uiso   1.00
Cu1008 Cu    0.83333   0.83333   0.78645   0.00000  Uiso   1.00
H1009  H     0.99489   0.82872   0.78011   0.00000  Uiso   1.00
H1010  H     0.67178   0.83795   0.88656   0.00000  Uiso   1.00
H1011  H     0.76793   0.79428   0.70609   0.00000  Uiso   1.00
H1012  H     0.89873   0.87239   0.96058   0.00000  Uiso   1.00
I1013  I     0.92983   0.72571   0.78222   0.00000  Uiso   1.00
I1014  I     0.73683   0.94095   0.88444   0.00000  Uiso   1.00
I1015  I     0.94577   0.95291   0.81313   0.00000  Uiso   1.00
I1016  I     0.72090   0.71375   0.85353   0.00000  Uiso   1.00
N1017  N     0.83335   0.83334   0.95069   0.00000  Uiso   1.00
N1018  N     0.83332   0.83332   0.71597   0.00000  Uiso   1.00
O1019  O     0.83333   0.77322   0.87291   0.00000  Uiso   1.00
O1020  O     0.83334   0.89345   0.79375   0.00000  Uiso   1.00
O1021  O     0.83333   0.77321   0.79372   0.00000  Uiso   1.00
O1022  O     0.83334   0.89346   0.87294   0.00000  Uiso   1.00
O1023  O     0.75828   0.83334   0.86379   0.00000  Uiso   1.00
O1024  O     0.90839   0.83333   0.80288   0.00000  Uiso   1.00
O1025  O     0.75828   0.83333   0.78460   0.00000  Uiso   1.00
O1026  O     0.90839   0.83334   0.88207   0.00000  Uiso   1.00
loop_
_geom_bond_atom_site_label_1
_geom_bond_atom_site_label_2
_geom_bond_distance
_geom_bond_site_symmetry_2
_ccdc_geom_bond_type
Br1    C9      1.890   .     S
Br2    C10     1.890   .     S
C3     C6      1.453   .     S
C3     O31     1.309   .     A
C3     O33     1.291   .     A
C4     I28     2.116   .     S
C4     C6      1.404   .     A
C4     C245    1.397   1_545 S
C5     C11     1.453   .     S
C5     C17     1.405   .     A
C5     C18     1.404   .     A
C6     C16     1.405   .     A
C7     N30     1.353   .     A
C7     H23     1.082   .     S
C7     C693    1.414   1_554 S
C8     N29     1.353   .     A
C8     H24     1.082   .     S
C8     C352    1.414   .     S
C9     N29     1.386   .     A
C9     C349    1.414   .     S
C10    N30     1.386   .     A
C10    C692    1.414   1_554 S
C11    O32     1.309   .     A
C11    O34     1.291   .     A
C12    O35     1.304   .     A
C12    C14     1.439   .     S
C12    O37     1.290   .     A
C13    O38     1.290   .     A
C13    C15     1.439   .     S
C13    O36     1.304   .     A
C14    C91     1.326   1_455 S
C14    H97     1.086   1_455 S
C15    C52     1.326   .     S
C15    H60     1.086   .     S
C16    I25     2.145   .     S
C16    C246    1.397   1_545 S
C17    I26     2.145   .     S
C17    C118    1.397   .     S
C18    I27     2.116   .     S
C18    C130    1.397   .     S
Cu19   O38     1.975   .     S
Cu19   Cu20    2.707   .     S
Cu19   O31     1.973   .     S
Cu19   N29     2.034   .     S
Cu19   O35     1.988   .     S
Cu19   O34     1.961   .     S
Cu20   N30     2.034   .     S
Cu20   O37     1.975   .     S
Cu20   O33     1.961   .     S
Cu20   O32     1.973   .     S
Cu20   O36     1.988   .     S
H21    C52     1.086   .     S
H22    C91     1.086   1_455 S
Br39   C47     1.890   .     S
Br40   C48     1.890   .     S
C41    C44     1.453   .     S
C41    O69     1.309   .     A
C41    O71     1.291   .     A
C42    I66     2.116   .     S
C42    C44     1.404   .     A
C42    C283    1.397   1_545 S
C43    C49     1.453   .     S
C43    C55     1.405   .     A
C43    C56     1.404   .     A
C44    C54     1.405   .     A
C45    N68     1.353   .     A
C45    H61     1.082   .     S
C45    C731    1.414   1_554 S
C46    N67     1.353   .     A
C46    H62     1.082   .     S
C46    C390    1.414   .     S
C47    N67     1.386   .     A
C47    C387    1.414   .     S
C48    N68     1.386   .     A
C48    C730    1.414   1_554 S
C49    O70     1.309   .     A
C49    O72     1.291   .     A
C50    O73     1.304   .     A
C50    C52     1.439   .     S
C50    O75     1.290   .     A
C51    O76     1.290   .     A
C51    C53     1.439   .     S
C51    O74     1.304   .     A
C53    C90     1.326   .     S
C53    H98     1.086   .     S
C54    I63     2.145   .     S
C54    C284    1.397   1_545 S
C55    I64     2.145   .     S
C55    C156    1.397   .     S
C56    I65     2.116   .     S
C56    C168    1.397   .     S
Cu57   O76     1.975   .     S
Cu57   Cu58    2.707   .     S
Cu57   O69     1.973   .     S
Cu57   N67     2.034   .     S
Cu57   O73     1.988   .     S
Cu57   O72     1.961   .     S
Cu58   N68     2.034   .     S
Cu58   O75     1.975   .     S
Cu58   O71     1.961   .     S
Cu58   O70     1.973   .     S
Cu58   O74     1.988   .     S
H59    C90     1.086   .     S
Br77   C85     1.890   .     S
Br78   C86     1.890   .     S
C79    C82     1.453   .     S
C79    O107    1.309   .     A
C79    O109    1.291   .     A
C80    I104    2.116   .     S
C80    C82     1.404   .     A
C80    C321    1.397   1_545 S
C81    C87     1.453   .     S
C81    C93     1.405   .     A
C81    C94     1.404   .     A
C82    C92     1.405   .     A
C83    N106    1.353   .     A
C83    H99     1.082   .     S
C83    C769    1.414   1_554 S
C84    N105    1.353   .     A
C84    H100    1.082   .     S
C84    C428    1.414   .     S
C85    N105    1.386   .     A
C85    C425    1.414   .     S
C86    N106    1.386   .     A
C86    C768    1.414   1_554 S
C87    O108    1.309   .     A
C87    O110    1.291   .     A
C88    O111    1.304   .     A
C88    C90     1.439   .     S
C88    O113    1.290   .     A
C89    O114    1.290   .     A
C89    C91     1.439   .     S
C89    O112    1.304   .     A
C91    C14     1.326   1_655 S
C91    H22     1.086   1_655 S
C92    I101    2.145   .     S
C92    C322    1.397   1_545 S
C93    I102    2.145   .     S
C93    C194    1.397   .     S
C94    I103    2.116   .     S
C94    C206    1.397   .     S
Cu95   O114    1.975   .     S
Cu95   Cu96    2.707   .     S
Cu95   O107    1.973   .     S
Cu95   N105    2.034   .     S
Cu95   O111    1.988   .     S
Cu95   O110    1.961   .     S
Cu96   N106    2.034   .     S
Cu96   O113    1.975   .     S
Cu96   O109    1.961   .     S
Cu96   O108    1.973   .     S
Cu96   O112    1.988   .     S
H97    C14     1.086   1_655 S
Br115  C123    1.890   .     S
Br116  C124    1.890   .     S
C117   C120    1.453   .     S
C117   O145    1.309   .     A
C117   O147    1.291   .     A
C118   I142    2.116   .     S
C118   C120    1.404   .     A
C119   C125    1.453   .     S
C119   C131    1.405   .     A
C119   C132    1.404   .     A
C120   C130    1.405   .     A
C121   N144    1.353   .     A
C121   H137    1.082   .     S
C121   C807    1.414   1_554 S
C122   N143    1.353   .     A
C122   H138    1.082   .     S
C122   C466    1.414   .     S
C123   N143    1.386   .     A
C123   C463    1.414   .     S
C124   N144    1.386   .     A
C124   C806    1.414   1_554 S
C125   O146    1.309   .     A
C125   O148    1.291   .     A
C126   O149    1.304   .     A
C126   C128    1.439   .     S
C126   O151    1.290   .     A
C127   O152    1.290   .     A
C127   C129    1.439   .     S
C127   O150    1.304   .     A
C128   C205    1.326   1_455 S
C128   H211    1.086   1_455 S
C129   C166    1.326   .     S
C129   H174    1.086   .     S
C130   I139    2.145   .     S
C131   I140    2.145   .     S
C131   C232    1.397   .     S
C132   I141    2.116   .     S
C132   C244    1.397   .     S
Cu133  O152    1.975   .     S
Cu133  Cu134   2.707   .     S
Cu133  O145    1.973   .     S
Cu133  N143    2.034   .     S
Cu133  O149    1.988   .     S
Cu133  O148    1.961   .     S
Cu134  N144    2.034   .     S
Cu134  O151    1.975   .     S
Cu134  O147    1.961   .     S
Cu134  O146    1.973   .     S
Cu134  O150    1.988   .     S
H135   C166    1.086   .     S
H136   C205    1.086   1_455 S
Br153  C161    1.890   .     S
Br154  C162    1.890   .     S
C155   C158    1.453   .     S
C155   O183    1.309   .     A
C155   O185    1.291   .     A
C156   I180    2.116   .     S
C156   C158    1.404   .     A
C157   C163    1.453   .     S
C157   C169    1.405   .     A
C157   C170    1.404   .     A
C158   C168    1.405   .     A
C159   N182    1.353   .     A
C159   H175    1.082   .     S
C159   C845    1.414   1_554 S
C160   N181    1.353   .     A
C160   H176    1.082   .     S
C160   C504    1.414   .     S
C161   N181    1.386   .     A
C161   C501    1.414   .     S
C162   N182    1.386   .     A
C162   C844    1.414   1_554 S
C163   O184    1.309   .     A
C163   O186    1.291   .     A
C164   O187    1.304   .     A
C164   C166    1.439   .     S
C164   O189    1.290   .     A
C165   O190    1.290   .     A
C165   C167    1.439   .     S
C165   O188    1.304   .     A
C167   C204    1.326   .     S
C167   H212    1.086   .     S
C168   I177    2.145   .     S
C169   I178    2.145   .     S
C169   C270    1.397   .     S
C170   I179    2.116   .     S
C170   C282    1.397   .     S
Cu171  O190    1.975   .     S
Cu171  Cu172   2.707   .     S
Cu171  O183    1.973   .     S
Cu171  N181    2.034   .     S
Cu171  O187    1.988   .     S
Cu171  O186    1.961   .     S
Cu172  N182    2.034   .     S
Cu172  O189    1.975   .     S
Cu172  O185    1.961   .     S
Cu172  O184    1.973   .     S
Cu172  O188    1.988   .     S
H173   C204    1.086   .     S
Br191  C199    1.890   .     S
Br192  C200    1.890   .     S
C193   C196    1.453   .     S
C193   O221    1.309   .     A
C193   O223    1.291   .     A
C194   I218    2.116   .     S
C194   C196    1.404   .     A
C195   C201    1.453   .     S
C195   C207    1.405   .     A
C195   C208    1.404   .     A
C196   C206    1.405   .     A
C197   N220    1.353   .     A
C197   H213    1.082   .     S
C197   C883    1.414   1_554 S
C198   N219    1.353   .     A
C198   H214    1.082   .     S
C198   C542    1.414   .     S
C199   N219    1.386   .     A
C199   C539    1.414   .     S
C200   N220    1.386   .     A
C200   C882    1.414   1_554 S
C201   O222    1.309   .     A
C201   O224    1.291   .     A
C202   O225    1.304   .     A
C202   C204    1.439   .     S
C202   O227    1.290   .     A
C203   O228    1.290   .     A
C203   C205    1.439   .     S
C203   O226    1.304   .     A
C205   C128    1.326   1_655 S
C205   H136    1.086   1_655 S
C206   I215    2.145   .     S
C207   I216    2.145   .     S
C207   C308    1.397   .     S
C208   I217    2.116   .     S
C208   C320    1.397   .     S
Cu209  O228    1.975   .     S
Cu209  Cu210   2.707   .     S
Cu209  O221    1.973   .     S
Cu209  N219    2.034   .     S
Cu209  O225    1.988   .     S
Cu209  O224    1.961   .     S
Cu210  N220    2.034   .     S
Cu210  O227    1.975   .     S
Cu210  O223    1.961   .     S
Cu210  O222    1.973   .     S
Cu210  O226    1.988   .     S
H211   C128    1.086   1_655 S
Br229  C237    1.890   .     S
Br230  C238    1.890   .     S
C231   C234    1.453   .     S
C231   O259    1.309   .     A
C231   O261    1.291   .     A
C232   I256    2.116   .     S
C232   C234    1.404   .     A
C233   C239    1.453   .     S
C233   C245    1.405   .     A
C233   C246    1.404   .     A
C234   C244    1.405   .     A
C235   N258    1.353   .     A
C235   H251    1.082   .     S
C235   C921    1.414   1_554 S
C236   N257    1.353   .     A
C236   H252    1.082   .     S
C236   C580    1.414   .     S
C237   N257    1.386   .     A
C237   C577    1.414   .     S
C238   N258    1.386   .     A
C238   C920    1.414   1_554 S
C239   O260    1.309   .     A
C239   O262    1.291   .     A
C240   O263    1.304   .     A
C240   C242    1.439   .     S
C240   O265    1.290   .     A
C241   O266    1.290   .     A
C241   C243    1.439   .     S
C241   O264    1.304   .     A
C242   C319    1.326   1_455 S
C242   H325    1.086   1_455 S
C243   C280    1.326   .     S
C243   H288    1.086   .     S
C244   I253    2.145   .     S
C245   I254    2.145   .     S
C245   C4      1.397   1_565 S
C246   I255    2.116   .     S
C246   C16     1.397   1_565 S
Cu247  O266    1.975   .     S
Cu247  Cu248   2.707   .     S
Cu247  O259    1.973   .     S
Cu247  N257    2.034   .     S
Cu247  O263    1.988   .     S
Cu247  O262    1.961   .     S
Cu248  N258    2.034   .     S
Cu248  O265    1.975   .     S
Cu248  O261    1.961   .     S
Cu248  O260    1.973   .     S
Cu248  O264    1.988   .     S
H249   C280    1.086   .     S
H250   C319    1.086   1_455 S
Br267  C275    1.890   .     S
Br268  C276    1.890   .     S
C269   C272    1.453   .     S
C269   O297    1.309   .     A
C269   O299    1.291   .     A
C270   I294    2.116   .     S
C270   C272    1.404   .     A
C271   C277    1.453   .     S
C271   C283    1.405   .     A
C271   C284    1.404   .     A
C272   C282    1.405   .     A
C273   N296    1.353   .     A
C273   H289    1.082   .     S
C273   C959    1.414   1_554 S
C274   N295    1.353   .     A
C274   H290    1.082   .     S
C274   C618    1.414   .     S
C275   N295    1.386   .     A
C275   C615    1.414   .     S
C276   N296    1.386   .     A
C276   C958    1.414   1_554 S
C277   O298    1.309   .     A
C277   O300    1.291   .     A
C278   O301    1.304   .     A
C278   C280    1.439   .     S
C278   O303    1.290   .     A
C279   O304    1.290   .     A
C279   C281    1.439   .     S
C279   O302    1.304   .     A
C281   C318    1.326   .     S
C281   H326    1.086   .     S
C282   I291    2.145   .     S
C283   I292    2.145   .     S
C283   C42     1.397   1_565 S
C284   I293    2.116   .     S
C284   C54     1.397   1_565 S
Cu285  O304    1.975   .     S
Cu285  Cu286   2.707   .     S
Cu285  O297    1.973   .     S
Cu285  N295    2.034   .     S
Cu285  O301    1.988   .     S
Cu285  O300    1.961   .     S
Cu286  N296    2.034   .     S
Cu286  O303    1.975   .     S
Cu286  O299    1.961   .     S
Cu286  O298    1.973   .     S
Cu286  O302    1.988   .     S
H287   C318    1.086   .     S
Br305  C313    1.890   .     S
Br306  C314    1.890   .     S
C307   C310    1.453   .     S
C307   O335    1.309   .     A
C307   O337    1.291   .     A
C308   I332    2.116   .     S
C308   C310    1.404   .     A
C309   C315    1.453   .     S
C309   C321    1.405   .     A
C309   C322    1.404   .     A
C310   C320    1.405   .     A
C311   N334    1.353   .     A
C311   H327    1.082   .     S
C311   C997    1.414   1_554 S
C312   N333    1.353   .     A
C312   H328    1.082   .     S
C312   C656    1.414   .     S
C313   N333    1.386   .     A
C313   C653    1.414   .     S
C314   N334    1.386   .     A
C314   C996    1.414   1_554 S
C315   O336    1.309   .     A
C315   O338    1.291   .     A
C316   O339    1.304   .     A
C316   C318    1.439   .     S
C316   O341    1.290   .     A
C317   O342    1.290   .     A
C317   C319    1.439   .     S
C317   O340    1.304   .     A
C319   C242    1.326   1_655 S
C319   H250    1.086   1_655 S
C320   I329    2.145   .     S
C321   I330    2.145   .     S
C321   C80     1.397   1_565 S
C322   I331    2.116   .     S
C322   C92     1.397   1_565 S
Cu323  O342    1.975   .     S
Cu323  Cu324   2.707   .     S
Cu323  O335    1.973   .     S
Cu323  N333    2.034   .     S
Cu323  O339    1.988   .     S
Cu323  O338    1.961   .     S
Cu324  N334    2.034   .     S
Cu324  O341    1.975   .     S
Cu324  O337    1.961   .     S
Cu324  O336    1.973   .     S
Cu324  O340    1.988   .     S
H325   C242    1.086   1_655 S
Br343  C351    1.890   .     S
Br344  C352    1.890   .     S
C345   C348    1.453   .     S
C345   O373    1.309   .     A
C345   O375    1.291   .     A
C346   I370    2.116   .     S
C346   C348    1.404   .     A
C346   C587    1.397   1_545 S
C347   C353    1.453   .     S
C347   C359    1.405   .     A
C347   C360    1.404   .     A
C348   C358    1.405   .     A
C349   N372    1.353   .     A
C349   H365    1.082   .     S
C350   N371    1.353   .     A
C350   H366    1.082   .     S
C350   C694    1.414   .     S
C351   N371    1.386   .     A
C351   C691    1.414   .     S
C352   N372    1.386   .     A
C353   O374    1.309   .     A
C353   O376    1.291   .     A
C354   O377    1.304   .     A
C354   C356    1.439   .     S
C354   O379    1.290   .     A
C355   O380    1.290   .     A
C355   C357    1.439   .     S
C355   O378    1.304   .     A
C356   C433    1.326   1_455 S
C356   H439    1.086   1_455 S
C357   C394    1.326   .     S
C357   H402    1.086   .     S
C358   I367    2.145   .     S
C358   C588    1.397   1_545 S
C359   I368    2.145   .     S
C359   C460    1.397   .     S
C360   I369    2.116   .     S
C360   C472    1.397   .     S
Cu361  O380    1.975   .     S
Cu361  Cu362   2.707   .     S
Cu361  O373    1.973   .     S
Cu361  N371    2.034   .     S
Cu361  O377    1.988   .     S
Cu361  O376    1.961   .     S
Cu362  N372    2.034   .     S
Cu362  O379    1.975   .     S
Cu362  O375    1.961   .     S
Cu362  O374    1.973   .     S
Cu362  O378    1.988   .     S
H363   C394    1.086   .     S
H364   C433    1.086   1_455 S
Br381  C389    1.890   .     S
Br382  C390    1.890   .     S
C383   C386    1.453   .     S
C383   O411    1.309   .     A
C383   O413    1.291   .     A
C384   I408    2.116   .     S
C384   C386    1.404   .     A
C384   C625    1.397   1_545 S
C385   C391    1.453   .     S
C385   C397    1.405   .     A
C385   C398    1.404   .     A
C386   C396    1.405   .     A
C387   N410    1.353   .     A
C387   H403    1.082   .     S
C388   N409    1.353   .     A
C388   H404    1.082   .     S
C388   C732    1.414   .     S
C389   N409    1.386   .     A
C389   C729    1.414   .     S
C390   N410    1.386   .     A
C391   O412    1.309   .     A
C391   O414    1.291   .     A
C392   O415    1.304   .     A
C392   C394    1.439   .     S
C392   O417    1.290   .     A
C393   O418    1.290   .     A
C393   C395    1.439   .     S
C393   O416    1.304   .     A
C395   C432    1.326   .     S
C395   H440    1.086   .     S
C396   I405    2.145   .     S
C396   C626    1.397   1_545 S
C397   I406    2.145   .     S
C397   C498    1.397   .     S
C398   I407    2.116   .     S
C398   C510    1.397   .     S
Cu399  O418    1.975   .     S
Cu399  Cu400   2.707   .     S
Cu399  O411    1.973   .     S
Cu399  N409    2.034   .     S
Cu399  O415    1.988   .     S
Cu399  O414    1.961   .     S
Cu400  N410    2.034   .     S
Cu400  O417    1.975   .     S
Cu400  O413    1.961   .     S
Cu400  O412    1.973   .     S
Cu400  O416    1.988   .     S
H401   C432    1.086   .     S
Br419  C427    1.890   .     S
Br420  C428    1.890   .     S
C421   C424    1.453   .     S
C421   O449    1.309   .     A
C421   O451    1.291   .     A
C422   I446    2.116   .     S
C422   C424    1.404   .     A
C422   C663    1.397   1_545 S
C423   C429    1.453   .     S
C423   C435    1.405   .     A
C423   C436    1.404   .     A
C424   C434    1.405   .     A
C425   N448    1.353   .     A
C425   H441    1.082   .     S
C426   N447    1.353   .     A
C426   H442    1.082   .     S
C426   C770    1.414   .     S
C427   N447    1.386   .     A
C427   C767    1.414   .     S
C428   N448    1.386   .     A
C429   O450    1.309   .     A
C429   O452    1.291   .     A
C430   O453    1.304   .     A
C430   C432    1.439   .     S
C430   O455    1.290   .     A
C431   O456    1.290   .     A
C431   C433    1.439   .     S
C431   O454    1.304   .     A
C433   C356    1.326   1_655 S
C433   H364    1.086   1_655 S
C434   I443    2.145   .     S
C434   C664    1.397   1_545 S
C435   I444    2.145   .     S
C435   C536    1.397   .     S
C436   I445    2.116   .     S
C436   C548    1.397   .     S
Cu437  O456    1.975   .     S
Cu437  Cu438   2.707   .     S
Cu437  O449    1.973   .     S
Cu437  N447    2.034   .     S
Cu437  O453    1.988   .     S
Cu437  O452    1.961   .     S
Cu438  N448    2.034   .     S
Cu438  O455    1.975   .     S
Cu438  O451    1.961   .     S
Cu438  O450    1.973   .     S
Cu438  O454    1.988   .     S
H439   C356    1.086   1_655 S
Br457  C465    1.890   .     S
Br458  C466    1.890   .     S
C459   C462    1.453   .     S
C459   O487    1.309   .     A
C459   O489    1.291   .     A
C460   I484    2.116   .     S
C460   C462    1.404   .     A
C461   C467    1.453   .     S
C461   C473    1.405   .     A
C461   C474    1.404   .     A
C462   C472    1.405   .     A
C463   N486    1.353   .     A
C463   H479    1.082   .     S
C464   N485    1.353   .     A
C464   H480    1.082   .     S
C464   C808    1.414   .     S
C465   N485    1.386   .     A
C465   C805    1.414   .     S
C466   N486    1.386   .     A
C467   O488    1.309   .     A
C467   O490    1.291   .     A
C468   O491    1.304   .     A
C468   C470    1.439   .     S
C468   O493    1.290   .     A
C469   O494    1.290   .     A
C469   C471    1.439   .     S
C469   O492    1.304   .     A
C470   C547    1.326   1_455 S
C470   H553    1.086   1_455 S
C471   C508    1.326   .     S
C471   H516    1.086   .     S
C472   I481    2.145   .     S
C473   I482    2.145   .     S
C473   C574    1.397   .     S
C474   I483    2.116   .     S
C474   C586    1.397   .     S
Cu475  O494    1.975   .     S
Cu475  Cu476   2.707   .     S
Cu475  O487    1.973   .     S
Cu475  N485    2.034   .     S
Cu475  O491    1.988   .     S
Cu475  O490    1.961   .     S
Cu476  N486    2.034   .     S
Cu476  O493    1.975   .     S
Cu476  O489    1.961   .     S
Cu476  O488    1.973   .     S
Cu476  O492    1.988   .     S
H477   C508    1.086   .     S
H478   C547    1.086   1_455 S
Br495  C503    1.890   .     S
Br496  C504    1.890   .     S
C497   C500    1.453   .     S
C497   O525    1.309   .     A
C497   O527    1.291   .     A
C498   I522    2.116   .     S
C498   C500    1.404   .     A
C499   C505    1.453   .     S
C499   C511    1.405   .     A
C499   C512    1.404   .     A
C500   C510    1.405   .     A
C501   N524    1.353   .     A
C501   H517    1.082   .     S
C502   N523    1.353   .     A
C502   H518    1.082   .     S
C502   C846    1.414   .     S
C503   N523    1.386   .     A
C503   C843    1.414   .     S
C504   N524    1.386   .     A
C505   O526    1.309   .     A
C505   O528    1.291   .     A
C506   O529    1.304   .     A
C506   C508    1.439   .     S
C506   O531    1.290   .     A
C507   O532    1.290   .     A
C507   C509    1.439   .     S
C507   O530    1.304   .     A
C509   C546    1.326   .     S
C509   H554    1.086   .     S
C510   I519    2.145   .     S
C511   I520    2.145   .     S
C511   C612    1.397   .     S
C512   I521    2.116   .     S
C512   C624    1.397   .     S
Cu513  O532    1.975   .     S
Cu513  Cu514   2.707   .     S
Cu513  O525    1.973   .     S
Cu513  N523    2.034   .     S
Cu513  O529    1.988   .     S
Cu513  O528    1.961   .     S
Cu514  N524    2.034   .     S
Cu514  O531    1.975   .     S
Cu514  O527    1.961   .     S
Cu514  O526    1.973   .     S
Cu514  O530    1.988   .     S
H515   C546    1.086   .     S
Br533  C541    1.890   .     S
Br534  C542    1.890   .     S
C535   C538    1.453   .     S
C535   O563    1.309   .     A
C535   O565    1.291   .     A
C536   I560    2.116   .     S
C536   C538    1.404   .     A
C537   C543    1.453   .     S
C537   C549    1.405   .     A
C537   C550    1.404   .     A
C538   C548    1.405   .     A
C539   N562    1.353   .     A
C539   H555    1.082   .     S
C540   N561    1.353   .     A
C540   H556    1.082   .     S
C540   C884    1.414   .     S
C541   N561    1.386   .     A
C541   C881    1.414   .     S
C542   N562    1.386   .     A
C543   O564    1.309   .     A
C543   O566    1.291   .     A
C544   O567    1.304   .     A
C544   C546    1.439   .     S
C544   O569    1.290   .     A
C545   O570    1.290   .     A
C545   C547    1.439   .     S
C545   O568    1.304   .     A
C547   C470    1.326   1_655 S
C547   H478    1.086   1_655 S
C548   I557    2.145   .     S
C549   I558    2.145   .     S
C549   C650    1.397   .     S
C550   I559    2.116   .     S
C550   C662    1.397   .     S
Cu551  O570    1.975   .     S
Cu551  Cu552   2.707   .     S
Cu551  O563    1.973   .     S
Cu551  N561    2.034   .     S
Cu551  O567    1.988   .     S
Cu551  O566    1.961   .     S
Cu552  N562    2.034   .     S
Cu552  O569    1.975   .     S
Cu552  O565    1.961   .     S
Cu552  O564    1.973   .     S
Cu552  O568    1.988   .     S
H553   C470    1.086   1_655 S
Br571  C579    1.890   .     S
Br572  C580    1.890   .     S
C573   C576    1.453   .     S
C573   O601    1.309   .     A
C573   O603    1.291   .     A
C574   I598    2.116   .     S
C574   C576    1.404   .     A
C575   C581    1.453   .     S
C575   C587    1.405   .     A
C575   C588    1.404   .     A
C576   C586    1.405   .     A
C577   N600    1.353   .     A
C577   H593    1.082   .     S
C578   N599    1.353   .     A
C578   H594    1.082   .     S
C578   C922    1.414   .     S
C579   N599    1.386   .     A
C579   C919    1.414   .     S
C580   N600    1.386   .     A
C581   O602    1.309   .     A
C581   O604    1.291   .     A
C582   O605    1.304   .     A
C582   C584    1.439   .     S
C582   O607    1.290   .     A
C583   O608    1.290   .     A
C583   C585    1.439   .     S
C583   O606    1.304   .     A
C584   C661    1.326   1_455 S
C584   H667    1.086   1_455 S
C585   C622    1.326   .     S
C585   H630    1.086   .     S
C586   I595    2.145   .     S
C587   I596    2.145   .     S
C587   C346    1.397   1_565 S
C588   I597    2.116   .     S
C588   C358    1.397   1_565 S
Cu589  O608    1.975   .     S
Cu589  Cu590   2.707   .     S
Cu589  O601    1.973   .     S
Cu589  N599    2.034   .     S
Cu589  O605    1.988   .     S
Cu589  O604    1.961   .     S
Cu590  N600    2.034   .     S
Cu590  O607    1.975   .     S
Cu590  O603    1.961   .     S
Cu590  O602    1.973   .     S
Cu590  O606    1.988   .     S
H591   C622    1.086   .     S
H592   C661    1.086   1_455 S
Br609  C617    1.890   .     S
Br610  C618    1.890   .     S
C611   C614    1.453   .     S
C611   O639    1.309   .     A
C611   O641    1.291   .     A
C612   I636    2.116   .     S
C612   C614    1.404   .     A
C613   C619    1.453   .     S
C613   C625    1.405   .     A
C613   C626    1.404   .     A
C614   C624    1.405   .     A
C615   N638    1.353   .     A
C615   H631    1.082   .     S
C616   N637    1.353   .     A
C616   H632    1.082   .     S
C616   C960    1.414   .     S
C617   N637    1.386   .     A
C617   C957    1.414   .     S
C618   N638    1.386   .     A
C619   O640    1.309   .     A
C619   O642    1.291   .     A
C620   O643    1.304   .     A
C620   C622    1.439   .     S
C620   O645    1.290   .     A
C621   O646    1.290   .     A
C621   C623    1.439   .     S
C621   O644    1.304   .     A
C623   C660    1.326   .     S
C623   H668    1.086   .     S
C624   I633    2.145   .     S
C625   I634    2.145   .     S
C625   C384    1.397   1_565 S
C626   I635    2.116   .     S
C626   C396    1.397   1_565 S
Cu627  O646    1.975   .     S
Cu627  Cu628   2.707   .     S
Cu627  O639    1.973   .     S
Cu627  N637    2.034   .     S
Cu627  O643    1.988   .     S
Cu627  O642    1.961   .     S
Cu628  N638    2.034   .     S
Cu628  O645    1.975   .     S
Cu628  O641    1.961   .     S
Cu628  O640    1.973   .     S
Cu628  O644    1.988   .     S
H629   C660    1.086   .     S
Br647  C655    1.890   .     S
Br648  C656    1.890   .     S
C649   C652    1.453   .     S
C649   O677    1.309   .     A
C649   O679    1.291   .     A
C650   I674    2.116   .     S
C650   C652    1.404   .     A
C651   C657    1.453   .     S
C651   C663    1.405   .     A
C651   C664    1.404   .     A
C652   C662    1.405   .     A
C653   N676    1.353   .     A
C653   H669    1.082   .     S
C654   N675    1.353   .     A
C654   H670    1.082   .     S
C654   C998    1.414   .     S
C655   N675    1.386   .     A
C655   C995    1.414   .     S
C656   N676    1.386   .     A
C657   O678    1.309   .     A
C657   O680    1.291   .     A
C658   O681    1.304   .     A
C658   C660    1.439   .     S
C658   O683    1.290   .     A
C659   O684    1.290   .     A
C659   C661    1.439   .     S
C659   O682    1.304   .     A
C661   C584    1.326   1_655 S
C661   H592    1.086   1_655 S
C662   I671    2.145   .     S
C663   I672    2.145   .     S
C663   C422    1.397   1_565 S
C664   I673    2.116   .     S
C664   C434    1.397   1_565 S
Cu665  O684    1.975   .     S
Cu665  Cu666   2.707   .     S
Cu665  O677    1.973   .     S
Cu665  N675    2.034   .     S
Cu665  O681    1.988   .     S
Cu665  O680    1.961   .     S
Cu666  N676    2.034   .     S
Cu666  O683    1.975   .     S
Cu666  O679    1.961   .     S
Cu666  O678    1.973   .     S
Cu666  O682    1.988   .     S
H667   C584    1.086   1_655 S
Br685  C693    1.890   .     S
Br686  C694    1.890   .     S
C687   C690    1.453   .     S
C687   O715    1.309   .     A
C687   O717    1.291   .     A
C688   I712    2.116   .     S
C688   C690    1.404   .     A
C688   C929    1.397   1_545 S
C689   C695    1.453   .     S
C689   C701    1.405   .     A
C689   C702    1.404   .     A
C690   C700    1.405   .     A
C691   N714    1.353   .     A
C691   H707    1.082   .     S
C692   N713    1.353   .     A
C692   H708    1.082   .     S
C692   C10     1.414   1_556 S
C693   N713    1.386   .     A
C693   C7      1.414   1_556 S
C694   N714    1.386   .     A
C695   O716    1.309   .     A
C695   O718    1.291   .     A
C696   O719    1.304   .     A
C696   C698    1.439   .     S
C696   O721    1.290   .     A
C697   O722    1.290   .     A
C697   C699    1.439   .     S
C697   O720    1.304   .     A
C698   C775    1.326   1_455 S
C698   H781    1.086   1_455 S
C699   C736    1.326   .     S
C699   H744    1.086   .     S
C700   I709    2.145   .     S
C700   C930    1.397   1_545 S
C701   I710    2.145   .     S
C701   C802    1.397   .     S
C702   I711    2.116   .     S
C702   C814    1.397   .     S
Cu703  O722    1.975   .     S
Cu703  Cu704   2.707   .     S
Cu703  O715    1.973   .     S
Cu703  N713    2.034   .     S
Cu703  O719    1.988   .     S
Cu703  O718    1.961   .     S
Cu704  N714    2.034   .     S
Cu704  O721    1.975   .     S
Cu704  O717    1.961   .     S
Cu704  O716    1.973   .     S
Cu704  O720    1.988   .     S
H705   C736    1.086   .     S
H706   C775    1.086   1_455 S
Br723  C731    1.890   .     S
Br724  C732    1.890   .     S
C725   C728    1.453   .     S
C725   O753    1.309   .     A
C725   O755    1.291   .     A
C726   I750    2.116   .     S
C726   C728    1.404   .     A
C726   C967    1.397   1_545 S
C727   C733    1.453   .     S
C727   C739    1.405   .     A
C727   C740    1.404   .     A
C728   C738    1.405   .     A
C729   N752    1.353   .     A
C729   H745    1.082   .     S
C730   N751    1.353   .     A
C730   H746    1.082   .     S
C730   C48     1.414   1_556 S
C731   N751    1.386   .     A
C731   C45     1.414   1_556 S
C732   N752    1.386   .     A
C733   O754    1.309   .     A
C733   O756    1.291   .     A
C734   O757    1.304   .     A
C734   C736    1.439   .     S
C734   O759    1.290   .     A
C735   O760    1.290   .     A
C735   C737    1.439   .     S
C735   O758    1.304   .     A
C737   C774    1.326   .     S
C737   H782    1.086   .     S
C738   I747    2.145   .     S
C738   C968    1.397   1_545 S
C739   I748    2.145   .     S
C739   C840    1.397   .     S
C740   I749    2.116   .     S
C740   C852    1.397   .     S
Cu741  O760    1.975   .     S
Cu741  Cu742   2.707   .     S
Cu741  O753    1.973   .     S
Cu741  N751    2.034   .     S
Cu741  O757    1.988   .     S
Cu741  O756    1.961   .     S
Cu742  N752    2.034   .     S
Cu742  O759    1.975   .     S
Cu742  O755    1.961   .     S
Cu742  O754    1.973   .     S
Cu742  O758    1.988   .     S
H743   C774    1.086   .     S
Br761  C769    1.890   .     S
Br762  C770    1.890   .     S
C763   C766    1.453   .     S
C763   O791    1.309   .     A
C763   O793    1.291   .     A
C764   I788    2.116   .     S
C764   C766    1.404   .     A
C764   C1005   1.397   1_545 S
C765   C771    1.453   .     S
C765   C777    1.405   .     A
C765   C778    1.404   .     A
C766   C776    1.405   .     A
C767   N790    1.353   .     A
C767   H783    1.082   .     S
C768   N789    1.353   .     A
C768   H784    1.082   .     S
C768   C86     1.414   1_556 S
C769   N789    1.386   .     A
C769   C83     1.414   1_556 S
C770   N790    1.386   .     A
C771   O792    1.309   .     A
C771   O794    1.291   .     A
C772   O795    1.304   .     A
C772   C774    1.439   .     S
C772   O797    1.290   .     A
C773   O798    1.290   .     A
C773   C775    1.439   .     S
C773   O796    1.304   .     A
C775   C698    1.326   1_655 S
C775   H706    1.086   1_655 S
C776   I785    2.145   .     S
C776   C1006   1.397   1_545 S
C777   I786    2.145   .     S
C777   C878    1.397   .     S
C778   I787    2.116   .     S
C778   C890    1.397   .     S
Cu779  O798    1.975   .     S
Cu779  Cu780   2.707   .     S
Cu779  O791    1.973   .     S
Cu779  N789    2.034   .     S
Cu779  O795    1.988   .     S
Cu779  O794    1.961   .     S
Cu780  N790    2.034   .     S
Cu780  O797    1.975   .     S
Cu780  O793    1.961   .     S
Cu780  O792    1.973   .     S
Cu780  O796    1.988   .     S
H781   C698    1.086   1_655 S
Br799  C807    1.890   .     S
Br800  C808    1.890   .     S
C801   C804    1.453   .     S
C801   O829    1.309   .     A
C801   O831    1.291   .     A
C802   I826    2.116   .     S
C802   C804    1.404   .     A
C803   C809    1.453   .     S
C803   C815    1.405   .     A
C803   C816    1.404   .     A
C804   C814    1.405   .     A
C805   N828    1.353   .     A
C805   H821    1.082   .     S
C806   N827    1.353   .     A
C806   H822    1.082   .     S
C806   C124    1.414   1_556 S
C807   N827    1.386   .     A
C807   C121    1.414   1_556 S
C808   N828    1.386   .     A
C809   O830    1.309   .     A
C809   O832    1.291   .     A
C810   O833    1.304   .     A
C810   C812    1.439   .     S
C810   O835    1.290   .     A
C811   O836    1.290   .     A
C811   C813    1.439   .     S
C811   O834    1.304   .     A
C812   C889    1.326   1_455 S
C812   H895    1.086   1_455 S
C813   C850    1.326   .     S
C813   H858    1.086   .     S
C814   I823    2.145   .     S
C815   I824    2.145   .     S
C815   C916    1.397   .     S
C816   I825    2.116   .     S
C816   C928    1.397   .     S
Cu817  O836    1.975   .     S
Cu817  Cu818   2.707   .     S
Cu817  O829    1.973   .     S
Cu817  N827    2.034   .     S
Cu817  O833    1.988   .     S
Cu817  O832    1.961   .     S
Cu818  N828    2.034   .     S
Cu818  O835    1.975   .     S
Cu818  O831    1.961   .     S
Cu818  O830    1.973   .     S
Cu818  O834    1.988   .     S
H819   C850    1.086   .     S
H820   C889    1.086   1_455 S
Br837  C845    1.890   .     S
Br838  C846    1.890   .     S
C839   C842    1.453   .     S
C839   O867    1.309   .     A
C839   O869    1.291   .     A
C840   I864    2.116   .     S
C840   C842    1.404   .     A
C841   C847    1.453   .     S
C841   C853    1.405   .     A
C841   C854    1.404   .     A
C842   C852    1.405   .     A
C843   N866    1.353   .     A
C843   H859    1.082   .     S
C844   N865    1.353   .     A
C844   H860    1.082   .     S
C844   C162    1.414   1_556 S
C845   N865    1.386   .     A
C845   C159    1.414   1_556 S
C846   N866    1.386   .     A
C847   O868    1.309   .     A
C847   O870    1.291   .     A
C848   O871    1.304   .     A
C848   C850    1.439   .     S
C848   O873    1.290   .     A
C849   O874    1.290   .     A
C849   C851    1.439   .     S
C849   O872    1.304   .     A
C851   C888    1.326   .     S
C851   H896    1.086   .     S
C852   I861    2.145   .     S
C853   I862    2.145   .     S
C853   C954    1.397   .     S
C854   I863    2.116   .     S
C854   C966    1.397   .     S
Cu855  O874    1.975   .     S
Cu855  Cu856   2.707   .     S
Cu855  O867    1.973   .     S
Cu855  N865    2.034   .     S
Cu855  O871    1.988   .     S
Cu855  O870    1.961   .     S
Cu856  N866    2.034   .     S
Cu856  O873    1.975   .     S
Cu856  O869    1.961   .     S
Cu856  O868    1.973   .     S
Cu856  O872    1.988   .     S
H857   C888    1.086   .     S
Br875  C883    1.890   .     S
Br876  C884    1.890   .     S
C877   C880    1.453   .     S
C877   O905    1.309   .     A
C877   O907    1.291   .     A
C878   I902    2.116   .     S
C878   C880    1.404   .     A
C879   C885    1.453   .     S
C879   C891    1.405   .     A
C879   C892    1.404   .     A
C880   C890    1.405   .     A
C881   N904    1.353   .     A
C881   H897    1.082   .     S
C882   N903    1.353   .     A
C882   H898    1.082   .     S
C882   C200    1.414   1_556 S
C883   N903    1.386   .     A
C883   C197    1.414   1_556 S
C884   N904    1.386   .     A
C885   O906    1.309   .     A
C885   O908    1.291   .     A
C886   O909    1.304   .     A
C886   C888    1.439   .     S
C886   O911    1.290   .     A
C887   O912    1.290   .     A
C887   C889    1.439   .     S
C887   O910    1.304   .     A
C889   C812    1.326   1_655 S
C889   H820    1.086   1_655 S
C890   I899    2.145   .     S
C891   I900    2.145   .     S
C891   C992    1.397   .     S
C892   I901    2.116   .     S
C892   C1004   1.397   .     S
Cu893  O912    1.975   .     S
Cu893  Cu894   2.707   .     S
Cu893  O905    1.973   .     S
Cu893  N903    2.034   .     S
Cu893  O909    1.988   .     S
Cu893  O908    1.961   .     S
Cu894  N904    2.034   .     S
Cu894  O911    1.975   .     S
Cu894  O907    1.961   .     S
Cu894  O906    1.973   .     S
Cu894  O910    1.988   .     S
H895   C812    1.086   1_655 S
Br913  C921    1.890   .     S
Br914  C922    1.890   .     S
C915   C918    1.453   .     S
C915   O943    1.309   .     A
C915   O945    1.291   .     A
C916   I940    2.116   .     S
C916   C918    1.404   .     A
C917   C923    1.453   .     S
C917   C929    1.405   .     A
C917   C930    1.404   .     A
C918   C928    1.405   .     A
C919   N942    1.353   .     A
C919   H935    1.082   .     S
C920   N941    1.353   .     A
C920   H936    1.082   .     S
C920   C238    1.414   1_556 S
C921   N941    1.386   .     A
C921   C235    1.414   1_556 S
C922   N942    1.386   .     A
C923   O944    1.309   .     A
C923   O946    1.291   .     A
C924   O947    1.304   .     A
C924   C926    1.439   .     S
C924   O949    1.290   .     A
C925   O950    1.290   .     A
C925   C927    1.439   .     S
C925   O948    1.304   .     A
C926   C1003   1.326   1_455 S
C926   H1009   1.086   1_455 S
C927   C964    1.326   .     S
C927   H972    1.086   .     S
C928   I937    2.145   .     S
C929   I938    2.145   .     S
C929   C688    1.397   1_565 S
C930   I939    2.116   .     S
C930   C700    1.397   1_565 S
Cu931  O950    1.975   .     S
Cu931  Cu932   2.707   .     S
Cu931  O943    1.973   .     S
Cu931  N941    2.034   .     S
Cu931  O947    1.988   .     S
Cu931  O946    1.961   .     S
Cu932  N942    2.034   .     S
Cu932  O949    1.975   .     S
Cu932  O945    1.961   .     S
Cu932  O944    1.973   .     S
Cu932  O948    1.988   .     S
H933   C964    1.086   .     S
H934   C1003   1.086   1_455 S
Br951  C959    1.890   .     S
Br952  C960    1.890   .     S
C953   C956    1.453   .     S
C953   O981    1.309   .     A
C953   O983    1.291   .     A
C954   I978    2.116   .     S
C954   C956    1.404   .     A
C955   C961    1.453   .     S
C955   C967    1.405   .     A
C955   C968    1.404   .     A
C956   C966    1.405   .     A
C957   N980    1.353   .     A
C957   H973    1.082   .     S
C958   N979    1.353   .     A
C958   H974    1.082   .     S
C958   C276    1.414   1_556 S
C959   N979    1.386   .     A
C959   C273    1.414   1_556 S
C960   N980    1.386   .     A
C961   O982    1.309   .     A
C961   O984    1.291   .     A
C962   O985    1.304   .     A
C962   C964    1.439   .     S
C962   O987    1.290   .     A
C963   O988    1.290   .     A
C963   C965    1.439   .     S
C963   O986    1.304   .     A
C965   C1002   1.326   .     S
C965   H1010   1.086   .     S
C966   I975    2.145   .     S
C967   I976    2.145   .     S
C967   C726    1.397   1_565 S
C968   I977    2.116   .     S
C968   C738    1.397   1_565 S
Cu969  O988    1.975   .     S
Cu969  Cu970   2.707   .     S
Cu969  O981    1.973   .     S
Cu969  N979    2.034   .     S
Cu969  O985    1.988   .     S
Cu969  O984    1.961   .     S
Cu970  N980    2.034   .     S
Cu970  O987    1.975   .     S
Cu970  O983    1.961   .     S
Cu970  O982    1.973   .     S
Cu970  O986    1.988   .     S
H971   C1002   1.086   .     S
Br989  C997    1.890   .     S
Br990  C998    1.890   .     S
C991   C994    1.453   .     S
C991   O1019   1.309   .     A
C991   O1021   1.291   .     A
C992   I1016   2.116   .     S
C992   C994    1.404   .     A
C993   C999    1.453   .     S
C993   C1005   1.405   .     A
C993   C1006   1.404   .     A
C994   C1004   1.405   .     A
C995   N1018   1.353   .     A
C995   H1011   1.082   .     S
C996   N1017   1.353   .     A
C996   H1012   1.082   .     S
C996   C314    1.414   1_556 S
C997   N1017   1.386   .     A
C997   C311    1.414   1_556 S
C998   N1018   1.386   .     A
C999   O1020   1.309   .     A
C999   O1022   1.291   .     A
C1000  O1023   1.304   .     A
C1000  C1002   1.439   .     S
C1000  O1025   1.290   .     A
C1001  O1026   1.290   .     A
C1001  C1003   1.439   .     S
C1001  O1024   1.304   .     A
C1003  C926    1.326   1_655 S
C1003  H934    1.086   1_655 S
C1004  I1013   2.145   .     S
C1005  I1014   2.145   .     S
C1005  C764    1.397   1_565 S
C1006  I1015   2.116   .     S
C1006  C776    1.397   1_565 S
Cu1007 O1026   1.975   .     S
Cu1007 Cu1008  2.707   .     S
Cu1007 O1019   1.973   .     S
Cu1007 N1017   2.034   .     S
Cu1007 O1023   1.988   .     S
Cu1007 O1022   1.961   .     S
Cu1008 N1018   2.034   .     S
Cu1008 O1025   1.975   .     S
Cu1008 O1021   1.961   .     S
Cu1008 O1020   1.973   .     S
Cu1008 O1024   1.988   .     S
H1009  C926    1.086   1_655 S
