data_str_m2_o2_o10_pcu_sym.188
_audit_creation_date              2020-01-03
_audit_creation_method            'Materials Studio'
_symmetry_space_group_name_H-M    'P1'
_symmetry_Int_Tables_number       1
_symmetry_cell_setting            triclinic
loop_
_symmetry_equiv_pos_as_xyz
  x,y,z
_cell_length_a                    26.1746
_cell_length_b                    30.2350
_cell_length_c                    27.9610
_cell_angle_alpha                 88.7530
_cell_angle_beta                  96.1991
_cell_angle_gamma                 94.4127
loop_
_atom_site_label
_atom_site_type_symbol
_atom_site_fract_x
_atom_site_fract_y
_atom_site_fract_z
_atom_site_U_iso_or_equiv
_atom_site_adp_type
_atom_site_occupancy
C1     C     0.16764   0.16512   0.25048   0.00000  Uiso   1.00
C2     C     0.16654   0.33519   0.24957   0.00000  Uiso   1.00
C3     C     0.20710   0.26900   0.05612   0.00000  Uiso   1.00
C4     C     0.14726   0.21450   0.44658   0.00000  Uiso   1.00
C5     C     0.20665   0.27175   0.10635   0.00000  Uiso   1.00
C6     C     0.14339   0.21474   0.39581   0.00000  Uiso   1.00
C7     C     0.12571   0.22992   0.10109   0.00000  Uiso   1.00
C8     C     0.18798   0.28618   0.39650   0.00000  Uiso   1.00
C9     C     0.12251   0.23248   0.05029   0.00000  Uiso   1.00
C10    C     0.18467   0.28900   0.44649   0.00000  Uiso   1.00
C11    C     0.16411   0.25186   0.02687   0.00000  Uiso   1.00
C12    C     0.16461   0.25236   0.47262   0.00000  Uiso   1.00
C13    C     0.06815   0.24804   0.23854   0.00000  Uiso   1.00
C14    C     0.26508   0.25172   0.26152   0.00000  Uiso   1.00
C15    C     0.01345   0.23848   0.23590   0.00000  Uiso   1.00
C16    C     0.31964   0.26101   0.26453   0.00000  Uiso   1.00
C17    C     0.21018   0.05170   0.28668   0.00000  Uiso   1.00
C18    C     0.19504   0.45502   0.21297   0.00000  Uiso   1.00
C19    C     0.20477   0.09748   0.28697   0.00000  Uiso   1.00
C20    C     0.18659   0.40886   0.21044   0.00000  Uiso   1.00
C21    C     0.17128   0.11715   0.25148   0.00000  Uiso   1.00
C22    C     0.16841   0.38403   0.24918   0.00000  Uiso   1.00
C23    C     0.14306   0.09102   0.21565   0.00000  Uiso   1.00
C24    C     0.15393   0.40639   0.28862   0.00000  Uiso   1.00
C25    C     0.14472   0.04536   0.21750   0.00000  Uiso   1.00
C26    C     0.15756   0.45245   0.28921   0.00000  Uiso   1.00
C27    C     0.17842   0.02540   0.25239   0.00000  Uiso   1.00
C28    C     0.17872   0.47697   0.25206   0.00000  Uiso   1.00
Cu29   Cu    0.16667   0.24999   0.29821   0.00000  Uiso   1.00
Cu30   Cu    0.16667   0.25000   0.20178   0.00000  Uiso   1.00
N31    N     0.16667   0.25001   0.12934   0.00000  Uiso   1.00
N32    N     0.16667   0.24999   0.37065   0.00000  Uiso   1.00
O33    O     0.16667   0.18572   0.29071   0.00000  Uiso   1.00
O34    O     0.16666   0.31427   0.20928   0.00000  Uiso   1.00
O35    O     0.16667   0.18573   0.20928   0.00000  Uiso   1.00
O36    O     0.16666   0.31427   0.29072   0.00000  Uiso   1.00
O37    O     0.09161   0.24999   0.28132   0.00000  Uiso   1.00
O38    O     0.24172   0.25000   0.21868   0.00000  Uiso   1.00
O39    O     0.09161   0.25000   0.19988   0.00000  Uiso   1.00
O40    O     0.24172   0.25000   0.30011   0.00000  Uiso   1.00
S41    S     0.32221   0.18726   0.20860   0.00000  Uiso   1.00
O42    O     0.29083   0.16058   0.24248   0.00000  Uiso   1.00
O43    O     0.28898   0.19530   0.16247   0.00000  Uiso   1.00
O44    O     0.03771   0.15799   0.19664   0.00000  Uiso   1.00
H45    H     0.02091   0.12932   0.18453   0.00000  Uiso   1.00
S46    S     0.01075   0.31043   0.29534   0.00000  Uiso   1.00
O47    O     0.04082   0.29864   0.34215   0.00000  Uiso   1.00
O48    O     0.04513   0.33816   0.26483   0.00000  Uiso   1.00
O49    O     0.29495   0.33996   0.30675   0.00000  Uiso   1.00
H50    H     0.31149   0.36738   0.32219   0.00000  Uiso   1.00
S51    S     0.25751   0.02879   0.32836   0.00000  Uiso   1.00
O52    O     0.27686   0.48829   0.30822   0.00000  Uiso   1.00
O53    O     0.30229   0.06242   0.33988   0.00000  Uiso   1.00
O54    O     0.23098   0.01481   0.37921   0.00000  Uiso   1.00
H55    H     0.25830   0.00068   0.40011   0.00000  Uiso   1.00
S56    S     0.22685   0.48389   0.16718   0.00000  Uiso   1.00
O57    O     0.25434   0.02661   0.18570   0.00000  Uiso   1.00
O58    O     0.26553   0.45547   0.14971   0.00000  Uiso   1.00
O59    O     0.18294   0.49489   0.12090   0.00000  Uiso   1.00
H60    H     0.20277   0.01163   0.09725   0.00000  Uiso   1.00
F61    F     0.23372   0.12330   0.32045   0.00000  Uiso   1.00
F62    F     0.19570   0.38857   0.16980   0.00000  Uiso   1.00
F63    F     0.11364   0.10953   0.17884   0.00000  Uiso   1.00
F64    F     0.13429   0.38385   0.32587   0.00000  Uiso   1.00
F65    F     0.11345   0.02037   0.18489   0.00000  Uiso   1.00
F66    F     0.13967   0.47332   0.32586   0.00000  Uiso   1.00
F67    F     0.25056   0.28276   0.03567   0.00000  Uiso   1.00
F68    F     0.13540   0.17637   0.47104   0.00000  Uiso   1.00
S69    S     0.25994   0.30681   0.13349   0.00000  Uiso   1.00
O70    O     0.25525   0.32436   0.18225   0.00000  Uiso   1.00
O71    O     0.30788   0.28223   0.13569   0.00000  Uiso   1.00
O72    O     0.26772   0.35115   0.09681   0.00000  Uiso   1.00
H73    H     0.30109   0.36658   0.10934   0.00000  Uiso   1.00
S74    S     0.10702   0.16676   0.36988   0.00000  Uiso   1.00
O75    O     0.14326   0.13103   0.36662   0.00000  Uiso   1.00
O76    O     0.06772   0.15017   0.40281   0.00000  Uiso   1.00
O77    O     0.07410   0.17437   0.31595   0.00000  Uiso   1.00
H78    H     0.06027   0.14431   0.30543   0.00000  Uiso   1.00
F79    F     0.08670   0.20754   0.12157   0.00000  Uiso   1.00
F80    F     0.21260   0.32052   0.37436   0.00000  Uiso   1.00
F81    F     0.07856   0.21607   0.02438   0.00000  Uiso   1.00
F82    F     0.20123   0.32764   0.46894   0.00000  Uiso   1.00
C83    C     0.50097   0.16512   0.25048   0.00000  Uiso   1.00
C84    C     0.49988   0.33519   0.24957   0.00000  Uiso   1.00
C85    C     0.54044   0.26900   0.05612   0.00000  Uiso   1.00
C86    C     0.48059   0.21450   0.44658   0.00000  Uiso   1.00
C87    C     0.53998   0.27175   0.10635   0.00000  Uiso   1.00
C88    C     0.47673   0.21474   0.39581   0.00000  Uiso   1.00
C89    C     0.45904   0.22992   0.10109   0.00000  Uiso   1.00
C90    C     0.52132   0.28618   0.39650   0.00000  Uiso   1.00
C91    C     0.45585   0.23248   0.05029   0.00000  Uiso   1.00
C92    C     0.51800   0.28900   0.44649   0.00000  Uiso   1.00
C93    C     0.49744   0.25186   0.02687   0.00000  Uiso   1.00
C94    C     0.49794   0.25236   0.47262   0.00000  Uiso   1.00
C95    C     0.40148   0.24804   0.23854   0.00000  Uiso   1.00
C96    C     0.59841   0.25172   0.26152   0.00000  Uiso   1.00
C97    C     0.34678   0.23848   0.23590   0.00000  Uiso   1.00
C98    C     0.65297   0.26101   0.26453   0.00000  Uiso   1.00
C99    C     0.54351   0.05170   0.28668   0.00000  Uiso   1.00
C100   C     0.52838   0.45502   0.21297   0.00000  Uiso   1.00
C101   C     0.53811   0.09748   0.28697   0.00000  Uiso   1.00
C102   C     0.51992   0.40886   0.21044   0.00000  Uiso   1.00
C103   C     0.50461   0.11715   0.25148   0.00000  Uiso   1.00
C104   C     0.50175   0.38403   0.24918   0.00000  Uiso   1.00
C105   C     0.47639   0.09102   0.21565   0.00000  Uiso   1.00
C106   C     0.48727   0.40639   0.28862   0.00000  Uiso   1.00
C107   C     0.47805   0.04536   0.21750   0.00000  Uiso   1.00
C108   C     0.49090   0.45245   0.28921   0.00000  Uiso   1.00
C109   C     0.51175   0.02540   0.25239   0.00000  Uiso   1.00
C110   C     0.51205   0.47697   0.25206   0.00000  Uiso   1.00
Cu111  Cu    0.50000   0.24999   0.29821   0.00000  Uiso   1.00
Cu112  Cu    0.50000   0.25000   0.20178   0.00000  Uiso   1.00
N113   N     0.50000   0.25001   0.12934   0.00000  Uiso   1.00
N114   N     0.50000   0.24999   0.37065   0.00000  Uiso   1.00
O115   O     0.50000   0.18572   0.29071   0.00000  Uiso   1.00
O116   O     0.50000   0.31427   0.20928   0.00000  Uiso   1.00
O117   O     0.50000   0.18573   0.20928   0.00000  Uiso   1.00
O118   O     0.50000   0.31427   0.29072   0.00000  Uiso   1.00
O119   O     0.42495   0.24999   0.28132   0.00000  Uiso   1.00
O120   O     0.57505   0.25000   0.21868   0.00000  Uiso   1.00
O121   O     0.42495   0.25000   0.19988   0.00000  Uiso   1.00
O122   O     0.57505   0.25000   0.30011   0.00000  Uiso   1.00
S123   S     0.65554   0.18726   0.20860   0.00000  Uiso   1.00
O124   O     0.62416   0.16058   0.24248   0.00000  Uiso   1.00
O125   O     0.62231   0.19530   0.16247   0.00000  Uiso   1.00
O126   O     0.37104   0.15799   0.19664   0.00000  Uiso   1.00
H127   H     0.35424   0.12932   0.18453   0.00000  Uiso   1.00
S128   S     0.34408   0.31043   0.29534   0.00000  Uiso   1.00
O129   O     0.37415   0.29864   0.34215   0.00000  Uiso   1.00
O130   O     0.37846   0.33816   0.26483   0.00000  Uiso   1.00
O131   O     0.62828   0.33996   0.30675   0.00000  Uiso   1.00
H132   H     0.64482   0.36738   0.32219   0.00000  Uiso   1.00
S133   S     0.59085   0.02879   0.32836   0.00000  Uiso   1.00
O134   O     0.61020   0.48829   0.30822   0.00000  Uiso   1.00
O135   O     0.63562   0.06242   0.33988   0.00000  Uiso   1.00
O136   O     0.56431   0.01481   0.37921   0.00000  Uiso   1.00
H137   H     0.59163   0.00068   0.40011   0.00000  Uiso   1.00
S138   S     0.56018   0.48389   0.16718   0.00000  Uiso   1.00
O139   O     0.58767   0.02661   0.18570   0.00000  Uiso   1.00
O140   O     0.59886   0.45547   0.14971   0.00000  Uiso   1.00
O141   O     0.51627   0.49489   0.12090   0.00000  Uiso   1.00
H142   H     0.53610   0.01163   0.09725   0.00000  Uiso   1.00
F143   F     0.56706   0.12330   0.32045   0.00000  Uiso   1.00
F144   F     0.52903   0.38857   0.16980   0.00000  Uiso   1.00
F145   F     0.44697   0.10953   0.17884   0.00000  Uiso   1.00
F146   F     0.46762   0.38385   0.32587   0.00000  Uiso   1.00
F147   F     0.44678   0.02037   0.18489   0.00000  Uiso   1.00
F148   F     0.47301   0.47332   0.32586   0.00000  Uiso   1.00
F149   F     0.58390   0.28276   0.03567   0.00000  Uiso   1.00
F150   F     0.46873   0.17637   0.47104   0.00000  Uiso   1.00
S151   S     0.59327   0.30681   0.13349   0.00000  Uiso   1.00
O152   O     0.58859   0.32436   0.18225   0.00000  Uiso   1.00
O153   O     0.64121   0.28223   0.13569   0.00000  Uiso   1.00
O154   O     0.60106   0.35115   0.09681   0.00000  Uiso   1.00
H155   H     0.63443   0.36658   0.10934   0.00000  Uiso   1.00
S156   S     0.44035   0.16676   0.36988   0.00000  Uiso   1.00
O157   O     0.47659   0.13103   0.36662   0.00000  Uiso   1.00
O158   O     0.40106   0.15017   0.40281   0.00000  Uiso   1.00
O159   O     0.40744   0.17437   0.31595   0.00000  Uiso   1.00
H160   H     0.39360   0.14431   0.30543   0.00000  Uiso   1.00
F161   F     0.42004   0.20754   0.12157   0.00000  Uiso   1.00
F162   F     0.54594   0.32052   0.37436   0.00000  Uiso   1.00
F163   F     0.41190   0.21607   0.02438   0.00000  Uiso   1.00
F164   F     0.53457   0.32764   0.46894   0.00000  Uiso   1.00
C165   C     0.83431   0.16512   0.25048   0.00000  Uiso   1.00
C166   C     0.83321   0.33519   0.24957   0.00000  Uiso   1.00
C167   C     0.87377   0.26900   0.05612   0.00000  Uiso   1.00
C168   C     0.81393   0.21450   0.44658   0.00000  Uiso   1.00
C169   C     0.87332   0.27175   0.10635   0.00000  Uiso   1.00
C170   C     0.81006   0.21474   0.39581   0.00000  Uiso   1.00
C171   C     0.79238   0.22992   0.10109   0.00000  Uiso   1.00
C172   C     0.85465   0.28618   0.39650   0.00000  Uiso   1.00
C173   C     0.78918   0.23248   0.05029   0.00000  Uiso   1.00
C174   C     0.85134   0.28900   0.44649   0.00000  Uiso   1.00
C175   C     0.83078   0.25186   0.02687   0.00000  Uiso   1.00
C176   C     0.83127   0.25236   0.47262   0.00000  Uiso   1.00
C177   C     0.73482   0.24804   0.23854   0.00000  Uiso   1.00
C178   C     0.93175   0.25172   0.26152   0.00000  Uiso   1.00
C179   C     0.68011   0.23848   0.23590   0.00000  Uiso   1.00
C180   C     0.98631   0.26101   0.26453   0.00000  Uiso   1.00
C181   C     0.87684   0.05170   0.28668   0.00000  Uiso   1.00
C182   C     0.86171   0.45502   0.21297   0.00000  Uiso   1.00
C183   C     0.87144   0.09748   0.28697   0.00000  Uiso   1.00
C184   C     0.85325   0.40886   0.21044   0.00000  Uiso   1.00
C185   C     0.83794   0.11715   0.25148   0.00000  Uiso   1.00
C186   C     0.83508   0.38403   0.24918   0.00000  Uiso   1.00
C187   C     0.80973   0.09102   0.21565   0.00000  Uiso   1.00
C188   C     0.82060   0.40639   0.28862   0.00000  Uiso   1.00
C189   C     0.81138   0.04536   0.21750   0.00000  Uiso   1.00
C190   C     0.82423   0.45245   0.28921   0.00000  Uiso   1.00
C191   C     0.84509   0.02540   0.25239   0.00000  Uiso   1.00
C192   C     0.84539   0.47697   0.25206   0.00000  Uiso   1.00
Cu193  Cu    0.83333   0.24999   0.29821   0.00000  Uiso   1.00
Cu194  Cu    0.83333   0.25000   0.20178   0.00000  Uiso   1.00
N195   N     0.83333   0.25001   0.12934   0.00000  Uiso   1.00
N196   N     0.83333   0.24999   0.37065   0.00000  Uiso   1.00
O197   O     0.83334   0.18572   0.29071   0.00000  Uiso   1.00
O198   O     0.83333   0.31427   0.20928   0.00000  Uiso   1.00
O199   O     0.83334   0.18573   0.20928   0.00000  Uiso   1.00
O200   O     0.83333   0.31427   0.29072   0.00000  Uiso   1.00
O201   O     0.75828   0.24999   0.28132   0.00000  Uiso   1.00
O202   O     0.90839   0.25000   0.21868   0.00000  Uiso   1.00
O203   O     0.75828   0.25000   0.19988   0.00000  Uiso   1.00
O204   O     0.90839   0.25000   0.30011   0.00000  Uiso   1.00
S205   S     0.98887   0.18726   0.20860   0.00000  Uiso   1.00
O206   O     0.95750   0.16058   0.24248   0.00000  Uiso   1.00
O207   O     0.95564   0.19530   0.16247   0.00000  Uiso   1.00
O208   O     0.70437   0.15799   0.19664   0.00000  Uiso   1.00
H209   H     0.68758   0.12932   0.18453   0.00000  Uiso   1.00
S210   S     0.67742   0.31043   0.29534   0.00000  Uiso   1.00
O211   O     0.70749   0.29864   0.34215   0.00000  Uiso   1.00
O212   O     0.71179   0.33816   0.26483   0.00000  Uiso   1.00
O213   O     0.96162   0.33996   0.30675   0.00000  Uiso   1.00
H214   H     0.97816   0.36738   0.32219   0.00000  Uiso   1.00
S215   S     0.92418   0.02879   0.32836   0.00000  Uiso   1.00
O216   O     0.94353   0.48829   0.30822   0.00000  Uiso   1.00
O217   O     0.96896   0.06242   0.33988   0.00000  Uiso   1.00
O218   O     0.89765   0.01481   0.37921   0.00000  Uiso   1.00
H219   H     0.92497   0.00068   0.40011   0.00000  Uiso   1.00
S220   S     0.89352   0.48389   0.16718   0.00000  Uiso   1.00
O221   O     0.92101   0.02661   0.18570   0.00000  Uiso   1.00
O222   O     0.93220   0.45547   0.14971   0.00000  Uiso   1.00
O223   O     0.84960   0.49489   0.12090   0.00000  Uiso   1.00
H224   H     0.86943   0.01163   0.09725   0.00000  Uiso   1.00
F225   F     0.90039   0.12330   0.32045   0.00000  Uiso   1.00
F226   F     0.86236   0.38857   0.16980   0.00000  Uiso   1.00
F227   F     0.78030   0.10953   0.17884   0.00000  Uiso   1.00
F228   F     0.80095   0.38385   0.32587   0.00000  Uiso   1.00
F229   F     0.78012   0.02037   0.18489   0.00000  Uiso   1.00
F230   F     0.80634   0.47332   0.32586   0.00000  Uiso   1.00
F231   F     0.91723   0.28276   0.03567   0.00000  Uiso   1.00
F232   F     0.80207   0.17637   0.47104   0.00000  Uiso   1.00
S233   S     0.92661   0.30681   0.13349   0.00000  Uiso   1.00
O234   O     0.92192   0.32436   0.18225   0.00000  Uiso   1.00
O235   O     0.97455   0.28223   0.13569   0.00000  Uiso   1.00
O236   O     0.93439   0.35115   0.09681   0.00000  Uiso   1.00
H237   H     0.96776   0.36658   0.10934   0.00000  Uiso   1.00
S238   S     0.77368   0.16676   0.36988   0.00000  Uiso   1.00
O239   O     0.80992   0.13103   0.36662   0.00000  Uiso   1.00
O240   O     0.73439   0.15017   0.40281   0.00000  Uiso   1.00
O241   O     0.74077   0.17437   0.31595   0.00000  Uiso   1.00
H242   H     0.72694   0.14431   0.30543   0.00000  Uiso   1.00
F243   F     0.75337   0.20754   0.12157   0.00000  Uiso   1.00
F244   F     0.87927   0.32052   0.37436   0.00000  Uiso   1.00
F245   F     0.74523   0.21607   0.02438   0.00000  Uiso   1.00
F246   F     0.86790   0.32764   0.46894   0.00000  Uiso   1.00
C247   C     0.16764   0.66512   0.25048   0.00000  Uiso   1.00
C248   C     0.16654   0.83519   0.24957   0.00000  Uiso   1.00
C249   C     0.20710   0.76900   0.05612   0.00000  Uiso   1.00
C250   C     0.14726   0.71450   0.44658   0.00000  Uiso   1.00
C251   C     0.20665   0.77175   0.10635   0.00000  Uiso   1.00
C252   C     0.14339   0.71474   0.39581   0.00000  Uiso   1.00
C253   C     0.12571   0.72992   0.10109   0.00000  Uiso   1.00
C254   C     0.18798   0.78618   0.39650   0.00000  Uiso   1.00
C255   C     0.12251   0.73248   0.05029   0.00000  Uiso   1.00
C256   C     0.18467   0.78900   0.44649   0.00000  Uiso   1.00
C257   C     0.16411   0.75186   0.02687   0.00000  Uiso   1.00
C258   C     0.16461   0.75236   0.47262   0.00000  Uiso   1.00
C259   C     0.06815   0.74804   0.23854   0.00000  Uiso   1.00
C260   C     0.26508   0.75172   0.26152   0.00000  Uiso   1.00
C261   C     0.01345   0.73848   0.23590   0.00000  Uiso   1.00
C262   C     0.31964   0.76101   0.26453   0.00000  Uiso   1.00
C263   C     0.21018   0.55170   0.28668   0.00000  Uiso   1.00
C264   C     0.19504   0.95502   0.21297   0.00000  Uiso   1.00
C265   C     0.20477   0.59748   0.28697   0.00000  Uiso   1.00
C266   C     0.18659   0.90886   0.21044   0.00000  Uiso   1.00
C267   C     0.17128   0.61715   0.25148   0.00000  Uiso   1.00
C268   C     0.16841   0.88403   0.24918   0.00000  Uiso   1.00
C269   C     0.14306   0.59102   0.21565   0.00000  Uiso   1.00
C270   C     0.15393   0.90639   0.28862   0.00000  Uiso   1.00
C271   C     0.14472   0.54536   0.21750   0.00000  Uiso   1.00
C272   C     0.15756   0.95245   0.28921   0.00000  Uiso   1.00
C273   C     0.17842   0.52540   0.25239   0.00000  Uiso   1.00
C274   C     0.17872   0.97697   0.25206   0.00000  Uiso   1.00
Cu275  Cu    0.16667   0.74999   0.29821   0.00000  Uiso   1.00
Cu276  Cu    0.16667   0.75000   0.20178   0.00000  Uiso   1.00
N277   N     0.16667   0.75001   0.12934   0.00000  Uiso   1.00
N278   N     0.16667   0.74999   0.37065   0.00000  Uiso   1.00
O279   O     0.16667   0.68572   0.29071   0.00000  Uiso   1.00
O280   O     0.16666   0.81427   0.20928   0.00000  Uiso   1.00
O281   O     0.16667   0.68573   0.20928   0.00000  Uiso   1.00
O282   O     0.16666   0.81427   0.29072   0.00000  Uiso   1.00
O283   O     0.09161   0.74999   0.28132   0.00000  Uiso   1.00
O284   O     0.24172   0.75000   0.21868   0.00000  Uiso   1.00
O285   O     0.09161   0.75000   0.19988   0.00000  Uiso   1.00
O286   O     0.24172   0.75000   0.30011   0.00000  Uiso   1.00
S287   S     0.32221   0.68726   0.20860   0.00000  Uiso   1.00
O288   O     0.29083   0.66058   0.24248   0.00000  Uiso   1.00
O289   O     0.28898   0.69530   0.16247   0.00000  Uiso   1.00
O290   O     0.03771   0.65799   0.19664   0.00000  Uiso   1.00
H291   H     0.02091   0.62932   0.18453   0.00000  Uiso   1.00
S292   S     0.01075   0.81043   0.29534   0.00000  Uiso   1.00
O293   O     0.04082   0.79864   0.34215   0.00000  Uiso   1.00
O294   O     0.04513   0.83816   0.26483   0.00000  Uiso   1.00
O295   O     0.29495   0.83996   0.30675   0.00000  Uiso   1.00
H296   H     0.31149   0.86738   0.32219   0.00000  Uiso   1.00
S297   S     0.25751   0.52879   0.32836   0.00000  Uiso   1.00
O298   O     0.27686   0.98829   0.30822   0.00000  Uiso   1.00
O299   O     0.30229   0.56242   0.33988   0.00000  Uiso   1.00
O300   O     0.23098   0.51481   0.37921   0.00000  Uiso   1.00
H301   H     0.25830   0.50068   0.40011   0.00000  Uiso   1.00
S302   S     0.22685   0.98389   0.16718   0.00000  Uiso   1.00
O303   O     0.25434   0.52661   0.18570   0.00000  Uiso   1.00
O304   O     0.26553   0.95547   0.14971   0.00000  Uiso   1.00
O305   O     0.18294   0.99489   0.12090   0.00000  Uiso   1.00
H306   H     0.20277   0.51163   0.09725   0.00000  Uiso   1.00
F307   F     0.23372   0.62330   0.32045   0.00000  Uiso   1.00
F308   F     0.19570   0.88857   0.16980   0.00000  Uiso   1.00
F309   F     0.11364   0.60953   0.17884   0.00000  Uiso   1.00
F310   F     0.13429   0.88385   0.32587   0.00000  Uiso   1.00
F311   F     0.11345   0.52037   0.18489   0.00000  Uiso   1.00
F312   F     0.13967   0.97332   0.32586   0.00000  Uiso   1.00
F313   F     0.25056   0.78276   0.03567   0.00000  Uiso   1.00
F314   F     0.13540   0.67637   0.47104   0.00000  Uiso   1.00
S315   S     0.25994   0.80681   0.13349   0.00000  Uiso   1.00
O316   O     0.25525   0.82436   0.18225   0.00000  Uiso   1.00
O317   O     0.30788   0.78223   0.13569   0.00000  Uiso   1.00
O318   O     0.26772   0.85115   0.09681   0.00000  Uiso   1.00
H319   H     0.30109   0.86658   0.10934   0.00000  Uiso   1.00
S320   S     0.10702   0.66676   0.36988   0.00000  Uiso   1.00
O321   O     0.14326   0.63103   0.36662   0.00000  Uiso   1.00
O322   O     0.06772   0.65017   0.40281   0.00000  Uiso   1.00
O323   O     0.07410   0.67437   0.31595   0.00000  Uiso   1.00
H324   H     0.06027   0.64431   0.30543   0.00000  Uiso   1.00
F325   F     0.08670   0.70754   0.12157   0.00000  Uiso   1.00
F326   F     0.21260   0.82052   0.37436   0.00000  Uiso   1.00
F327   F     0.07856   0.71607   0.02438   0.00000  Uiso   1.00
F328   F     0.20123   0.82764   0.46894   0.00000  Uiso   1.00
C329   C     0.50097   0.66512   0.25048   0.00000  Uiso   1.00
C330   C     0.49988   0.83519   0.24957   0.00000  Uiso   1.00
C331   C     0.54044   0.76900   0.05612   0.00000  Uiso   1.00
C332   C     0.48059   0.71450   0.44658   0.00000  Uiso   1.00
C333   C     0.53998   0.77175   0.10635   0.00000  Uiso   1.00
C334   C     0.47673   0.71474   0.39581   0.00000  Uiso   1.00
C335   C     0.45904   0.72992   0.10109   0.00000  Uiso   1.00
C336   C     0.52132   0.78618   0.39650   0.00000  Uiso   1.00
C337   C     0.45585   0.73248   0.05029   0.00000  Uiso   1.00
C338   C     0.51800   0.78900   0.44649   0.00000  Uiso   1.00
C339   C     0.49744   0.75186   0.02687   0.00000  Uiso   1.00
C340   C     0.49794   0.75236   0.47262   0.00000  Uiso   1.00
C341   C     0.40148   0.74804   0.23854   0.00000  Uiso   1.00
C342   C     0.59841   0.75172   0.26152   0.00000  Uiso   1.00
C343   C     0.34678   0.73848   0.23590   0.00000  Uiso   1.00
C344   C     0.65297   0.76101   0.26453   0.00000  Uiso   1.00
C345   C     0.54351   0.55170   0.28668   0.00000  Uiso   1.00
C346   C     0.52838   0.95502   0.21297   0.00000  Uiso   1.00
C347   C     0.53811   0.59748   0.28697   0.00000  Uiso   1.00
C348   C     0.51992   0.90886   0.21044   0.00000  Uiso   1.00
C349   C     0.50461   0.61715   0.25148   0.00000  Uiso   1.00
C350   C     0.50175   0.88403   0.24918   0.00000  Uiso   1.00
C351   C     0.47639   0.59102   0.21565   0.00000  Uiso   1.00
C352   C     0.48727   0.90639   0.28862   0.00000  Uiso   1.00
C353   C     0.47805   0.54536   0.21750   0.00000  Uiso   1.00
C354   C     0.49090   0.95245   0.28921   0.00000  Uiso   1.00
C355   C     0.51175   0.52540   0.25239   0.00000  Uiso   1.00
C356   C     0.51205   0.97697   0.25206   0.00000  Uiso   1.00
Cu357  Cu    0.50000   0.74999   0.29821   0.00000  Uiso   1.00
Cu358  Cu    0.50000   0.75000   0.20178   0.00000  Uiso   1.00
N359   N     0.50000   0.75001   0.12934   0.00000  Uiso   1.00
N360   N     0.50000   0.74999   0.37065   0.00000  Uiso   1.00
O361   O     0.50000   0.68572   0.29071   0.00000  Uiso   1.00
O362   O     0.50000   0.81427   0.20928   0.00000  Uiso   1.00
O363   O     0.50000   0.68573   0.20928   0.00000  Uiso   1.00
O364   O     0.50000   0.81427   0.29072   0.00000  Uiso   1.00
O365   O     0.42495   0.74999   0.28132   0.00000  Uiso   1.00
O366   O     0.57505   0.75000   0.21868   0.00000  Uiso   1.00
O367   O     0.42495   0.75000   0.19988   0.00000  Uiso   1.00
O368   O     0.57505   0.75000   0.30011   0.00000  Uiso   1.00
S369   S     0.65554   0.68726   0.20860   0.00000  Uiso   1.00
O370   O     0.62416   0.66058   0.24248   0.00000  Uiso   1.00
O371   O     0.62231   0.69530   0.16247   0.00000  Uiso   1.00
O372   O     0.37104   0.65799   0.19664   0.00000  Uiso   1.00
H373   H     0.35424   0.62932   0.18453   0.00000  Uiso   1.00
S374   S     0.34408   0.81043   0.29534   0.00000  Uiso   1.00
O375   O     0.37415   0.79864   0.34215   0.00000  Uiso   1.00
O376   O     0.37846   0.83816   0.26483   0.00000  Uiso   1.00
O377   O     0.62828   0.83996   0.30675   0.00000  Uiso   1.00
H378   H     0.64482   0.86738   0.32219   0.00000  Uiso   1.00
S379   S     0.59085   0.52879   0.32836   0.00000  Uiso   1.00
O380   O     0.61020   0.98829   0.30822   0.00000  Uiso   1.00
O381   O     0.63562   0.56242   0.33988   0.00000  Uiso   1.00
O382   O     0.56431   0.51481   0.37921   0.00000  Uiso   1.00
H383   H     0.59163   0.50068   0.40011   0.00000  Uiso   1.00
S384   S     0.56018   0.98389   0.16718   0.00000  Uiso   1.00
O385   O     0.58767   0.52661   0.18570   0.00000  Uiso   1.00
O386   O     0.59886   0.95547   0.14971   0.00000  Uiso   1.00
O387   O     0.51627   0.99489   0.12090   0.00000  Uiso   1.00
H388   H     0.53610   0.51163   0.09725   0.00000  Uiso   1.00
F389   F     0.56706   0.62330   0.32045   0.00000  Uiso   1.00
F390   F     0.52903   0.88857   0.16980   0.00000  Uiso   1.00
F391   F     0.44697   0.60953   0.17884   0.00000  Uiso   1.00
F392   F     0.46762   0.88385   0.32587   0.00000  Uiso   1.00
F393   F     0.44678   0.52037   0.18489   0.00000  Uiso   1.00
F394   F     0.47301   0.97332   0.32586   0.00000  Uiso   1.00
F395   F     0.58390   0.78276   0.03567   0.00000  Uiso   1.00
F396   F     0.46873   0.67637   0.47104   0.00000  Uiso   1.00
S397   S     0.59327   0.80681   0.13349   0.00000  Uiso   1.00
O398   O     0.58859   0.82436   0.18225   0.00000  Uiso   1.00
O399   O     0.64121   0.78223   0.13569   0.00000  Uiso   1.00
O400   O     0.60106   0.85115   0.09681   0.00000  Uiso   1.00
H401   H     0.63443   0.86658   0.10934   0.00000  Uiso   1.00
S402   S     0.44035   0.66676   0.36988   0.00000  Uiso   1.00
O403   O     0.47659   0.63103   0.36662   0.00000  Uiso   1.00
O404   O     0.40106   0.65017   0.40281   0.00000  Uiso   1.00
O405   O     0.40744   0.67437   0.31595   0.00000  Uiso   1.00
H406   H     0.39360   0.64431   0.30543   0.00000  Uiso   1.00
F407   F     0.42004   0.70754   0.12157   0.00000  Uiso   1.00
F408   F     0.54594   0.82052   0.37436   0.00000  Uiso   1.00
F409   F     0.41190   0.71607   0.02438   0.00000  Uiso   1.00
F410   F     0.53457   0.82764   0.46894   0.00000  Uiso   1.00
C411   C     0.83431   0.66512   0.25048   0.00000  Uiso   1.00
C412   C     0.83321   0.83519   0.24957   0.00000  Uiso   1.00
C413   C     0.87377   0.76900   0.05612   0.00000  Uiso   1.00
C414   C     0.81393   0.71450   0.44658   0.00000  Uiso   1.00
C415   C     0.87332   0.77175   0.10635   0.00000  Uiso   1.00
C416   C     0.81006   0.71474   0.39581   0.00000  Uiso   1.00
C417   C     0.79238   0.72992   0.10109   0.00000  Uiso   1.00
C418   C     0.85465   0.78618   0.39650   0.00000  Uiso   1.00
C419   C     0.78918   0.73248   0.05029   0.00000  Uiso   1.00
C420   C     0.85134   0.78900   0.44649   0.00000  Uiso   1.00
C421   C     0.83078   0.75186   0.02687   0.00000  Uiso   1.00
C422   C     0.83127   0.75236   0.47262   0.00000  Uiso   1.00
C423   C     0.73482   0.74804   0.23854   0.00000  Uiso   1.00
C424   C     0.93175   0.75172   0.26152   0.00000  Uiso   1.00
C425   C     0.68011   0.73848   0.23590   0.00000  Uiso   1.00
C426   C     0.98631   0.76101   0.26453   0.00000  Uiso   1.00
C427   C     0.87684   0.55170   0.28668   0.00000  Uiso   1.00
C428   C     0.86171   0.95502   0.21297   0.00000  Uiso   1.00
C429   C     0.87144   0.59748   0.28697   0.00000  Uiso   1.00
C430   C     0.85325   0.90886   0.21044   0.00000  Uiso   1.00
C431   C     0.83794   0.61715   0.25148   0.00000  Uiso   1.00
C432   C     0.83508   0.88403   0.24918   0.00000  Uiso   1.00
C433   C     0.80973   0.59102   0.21565   0.00000  Uiso   1.00
C434   C     0.82060   0.90639   0.28862   0.00000  Uiso   1.00
C435   C     0.81138   0.54536   0.21750   0.00000  Uiso   1.00
C436   C     0.82423   0.95245   0.28921   0.00000  Uiso   1.00
C437   C     0.84509   0.52540   0.25239   0.00000  Uiso   1.00
C438   C     0.84539   0.97697   0.25206   0.00000  Uiso   1.00
Cu439  Cu    0.83333   0.74999   0.29821   0.00000  Uiso   1.00
Cu440  Cu    0.83333   0.75000   0.20178   0.00000  Uiso   1.00
N441   N     0.83333   0.75001   0.12934   0.00000  Uiso   1.00
N442   N     0.83333   0.74999   0.37065   0.00000  Uiso   1.00
O443   O     0.83334   0.68572   0.29071   0.00000  Uiso   1.00
O444   O     0.83333   0.81427   0.20928   0.00000  Uiso   1.00
O445   O     0.83334   0.68573   0.20928   0.00000  Uiso   1.00
O446   O     0.83333   0.81427   0.29072   0.00000  Uiso   1.00
O447   O     0.75828   0.74999   0.28132   0.00000  Uiso   1.00
O448   O     0.90839   0.75000   0.21868   0.00000  Uiso   1.00
O449   O     0.75828   0.75000   0.19988   0.00000  Uiso   1.00
O450   O     0.90839   0.75000   0.30011   0.00000  Uiso   1.00
S451   S     0.98887   0.68726   0.20860   0.00000  Uiso   1.00
O452   O     0.95750   0.66058   0.24248   0.00000  Uiso   1.00
O453   O     0.95564   0.69530   0.16247   0.00000  Uiso   1.00
O454   O     0.70437   0.65799   0.19664   0.00000  Uiso   1.00
H455   H     0.68758   0.62932   0.18453   0.00000  Uiso   1.00
S456   S     0.67742   0.81043   0.29534   0.00000  Uiso   1.00
O457   O     0.70749   0.79864   0.34215   0.00000  Uiso   1.00
O458   O     0.71179   0.83816   0.26483   0.00000  Uiso   1.00
O459   O     0.96162   0.83996   0.30675   0.00000  Uiso   1.00
H460   H     0.97816   0.86738   0.32219   0.00000  Uiso   1.00
S461   S     0.92418   0.52879   0.32836   0.00000  Uiso   1.00
O462   O     0.94353   0.98829   0.30822   0.00000  Uiso   1.00
O463   O     0.96896   0.56242   0.33988   0.00000  Uiso   1.00
O464   O     0.89765   0.51481   0.37921   0.00000  Uiso   1.00
H465   H     0.92497   0.50068   0.40011   0.00000  Uiso   1.00
S466   S     0.89352   0.98389   0.16718   0.00000  Uiso   1.00
O467   O     0.92101   0.52661   0.18570   0.00000  Uiso   1.00
O468   O     0.93220   0.95547   0.14971   0.00000  Uiso   1.00
O469   O     0.84960   0.99489   0.12090   0.00000  Uiso   1.00
H470   H     0.86943   0.51163   0.09725   0.00000  Uiso   1.00
F471   F     0.90039   0.62330   0.32045   0.00000  Uiso   1.00
F472   F     0.86236   0.88857   0.16980   0.00000  Uiso   1.00
F473   F     0.78030   0.60953   0.17884   0.00000  Uiso   1.00
F474   F     0.80095   0.88385   0.32587   0.00000  Uiso   1.00
F475   F     0.78012   0.52037   0.18489   0.00000  Uiso   1.00
F476   F     0.80634   0.97332   0.32586   0.00000  Uiso   1.00
F477   F     0.91723   0.78276   0.03567   0.00000  Uiso   1.00
F478   F     0.80207   0.67637   0.47104   0.00000  Uiso   1.00
S479   S     0.92661   0.80681   0.13349   0.00000  Uiso   1.00
O480   O     0.92192   0.82436   0.18225   0.00000  Uiso   1.00
O481   O     0.97455   0.78223   0.13569   0.00000  Uiso   1.00
O482   O     0.93439   0.85115   0.09681   0.00000  Uiso   1.00
H483   H     0.96776   0.86658   0.10934   0.00000  Uiso   1.00
S484   S     0.77368   0.66676   0.36988   0.00000  Uiso   1.00
O485   O     0.80992   0.63103   0.36662   0.00000  Uiso   1.00
O486   O     0.73439   0.65017   0.40281   0.00000  Uiso   1.00
O487   O     0.74077   0.67437   0.31595   0.00000  Uiso   1.00
H488   H     0.72694   0.64431   0.30543   0.00000  Uiso   1.00
F489   F     0.75337   0.70754   0.12157   0.00000  Uiso   1.00
F490   F     0.87927   0.82052   0.37436   0.00000  Uiso   1.00
F491   F     0.74523   0.71607   0.02438   0.00000  Uiso   1.00
F492   F     0.86790   0.82764   0.46894   0.00000  Uiso   1.00
C493   C     0.16764   0.16512   0.75048   0.00000  Uiso   1.00
C494   C     0.16654   0.33519   0.74957   0.00000  Uiso   1.00
C495   C     0.20710   0.26900   0.55612   0.00000  Uiso   1.00
C496   C     0.14726   0.21450   0.94658   0.00000  Uiso   1.00
C497   C     0.20665   0.27175   0.60635   0.00000  Uiso   1.00
C498   C     0.14339   0.21474   0.89581   0.00000  Uiso   1.00
C499   C     0.12571   0.22992   0.60109   0.00000  Uiso   1.00
C500   C     0.18798   0.28618   0.89650   0.00000  Uiso   1.00
C501   C     0.12251   0.23248   0.55029   0.00000  Uiso   1.00
C502   C     0.18467   0.28900   0.94649   0.00000  Uiso   1.00
C503   C     0.16411   0.25186   0.52687   0.00000  Uiso   1.00
C504   C     0.16461   0.25236   0.97262   0.00000  Uiso   1.00
C505   C     0.06815   0.24804   0.73854   0.00000  Uiso   1.00
C506   C     0.26508   0.25172   0.76152   0.00000  Uiso   1.00
C507   C     0.01345   0.23848   0.73590   0.00000  Uiso   1.00
C508   C     0.31964   0.26101   0.76453   0.00000  Uiso   1.00
C509   C     0.21018   0.05170   0.78668   0.00000  Uiso   1.00
C510   C     0.19504   0.45502   0.71297   0.00000  Uiso   1.00
C511   C     0.20477   0.09748   0.78697   0.00000  Uiso   1.00
C512   C     0.18659   0.40886   0.71044   0.00000  Uiso   1.00
C513   C     0.17128   0.11715   0.75148   0.00000  Uiso   1.00
C514   C     0.16841   0.38403   0.74918   0.00000  Uiso   1.00
C515   C     0.14306   0.09102   0.71565   0.00000  Uiso   1.00
C516   C     0.15393   0.40639   0.78862   0.00000  Uiso   1.00
C517   C     0.14472   0.04536   0.71750   0.00000  Uiso   1.00
C518   C     0.15756   0.45245   0.78921   0.00000  Uiso   1.00
C519   C     0.17842   0.02540   0.75239   0.00000  Uiso   1.00
C520   C     0.17872   0.47697   0.75206   0.00000  Uiso   1.00
Cu521  Cu    0.16667   0.24999   0.79821   0.00000  Uiso   1.00
Cu522  Cu    0.16667   0.25000   0.70178   0.00000  Uiso   1.00
N523   N     0.16667   0.25001   0.62934   0.00000  Uiso   1.00
N524   N     0.16667   0.24999   0.87065   0.00000  Uiso   1.00
O525   O     0.16667   0.18572   0.79071   0.00000  Uiso   1.00
O526   O     0.16666   0.31427   0.70928   0.00000  Uiso   1.00
O527   O     0.16667   0.18573   0.70928   0.00000  Uiso   1.00
O528   O     0.16666   0.31427   0.79072   0.00000  Uiso   1.00
O529   O     0.09161   0.24999   0.78132   0.00000  Uiso   1.00
O530   O     0.24172   0.25000   0.71868   0.00000  Uiso   1.00
O531   O     0.09161   0.25000   0.69988   0.00000  Uiso   1.00
O532   O     0.24172   0.25000   0.80011   0.00000  Uiso   1.00
S533   S     0.32221   0.18726   0.70860   0.00000  Uiso   1.00
O534   O     0.29083   0.16058   0.74248   0.00000  Uiso   1.00
O535   O     0.28898   0.19530   0.66247   0.00000  Uiso   1.00
O536   O     0.03771   0.15799   0.69664   0.00000  Uiso   1.00
H537   H     0.02091   0.12932   0.68453   0.00000  Uiso   1.00
S538   S     0.01075   0.31043   0.79534   0.00000  Uiso   1.00
O539   O     0.04082   0.29864   0.84215   0.00000  Uiso   1.00
O540   O     0.04513   0.33816   0.76483   0.00000  Uiso   1.00
O541   O     0.29495   0.33996   0.80675   0.00000  Uiso   1.00
H542   H     0.31149   0.36738   0.82219   0.00000  Uiso   1.00
S543   S     0.25751   0.02879   0.82836   0.00000  Uiso   1.00
O544   O     0.27686   0.48829   0.80822   0.00000  Uiso   1.00
O545   O     0.30229   0.06242   0.83988   0.00000  Uiso   1.00
O546   O     0.23098   0.01481   0.87921   0.00000  Uiso   1.00
H547   H     0.25830   0.00068   0.90011   0.00000  Uiso   1.00
S548   S     0.22685   0.48389   0.66718   0.00000  Uiso   1.00
O549   O     0.25434   0.02661   0.68570   0.00000  Uiso   1.00
O550   O     0.26553   0.45547   0.64971   0.00000  Uiso   1.00
O551   O     0.18294   0.49489   0.62090   0.00000  Uiso   1.00
H552   H     0.20277   0.01163   0.59725   0.00000  Uiso   1.00
F553   F     0.23372   0.12330   0.82045   0.00000  Uiso   1.00
F554   F     0.19570   0.38857   0.66980   0.00000  Uiso   1.00
F555   F     0.11364   0.10953   0.67884   0.00000  Uiso   1.00
F556   F     0.13429   0.38385   0.82587   0.00000  Uiso   1.00
F557   F     0.11345   0.02037   0.68489   0.00000  Uiso   1.00
F558   F     0.13967   0.47332   0.82586   0.00000  Uiso   1.00
F559   F     0.25056   0.28276   0.53567   0.00000  Uiso   1.00
F560   F     0.13540   0.17637   0.97104   0.00000  Uiso   1.00
S561   S     0.25994   0.30681   0.63349   0.00000  Uiso   1.00
O562   O     0.25525   0.32436   0.68225   0.00000  Uiso   1.00
O563   O     0.30788   0.28223   0.63569   0.00000  Uiso   1.00
O564   O     0.26772   0.35115   0.59681   0.00000  Uiso   1.00
H565   H     0.30109   0.36658   0.60934   0.00000  Uiso   1.00
S566   S     0.10702   0.16676   0.86988   0.00000  Uiso   1.00
O567   O     0.14326   0.13103   0.86662   0.00000  Uiso   1.00
O568   O     0.06772   0.15017   0.90281   0.00000  Uiso   1.00
O569   O     0.07410   0.17437   0.81595   0.00000  Uiso   1.00
H570   H     0.06027   0.14431   0.80543   0.00000  Uiso   1.00
F571   F     0.08670   0.20754   0.62157   0.00000  Uiso   1.00
F572   F     0.21260   0.32052   0.87436   0.00000  Uiso   1.00
F573   F     0.07856   0.21607   0.52438   0.00000  Uiso   1.00
F574   F     0.20123   0.32764   0.96894   0.00000  Uiso   1.00
C575   C     0.50097   0.16512   0.75048   0.00000  Uiso   1.00
C576   C     0.49988   0.33519   0.74957   0.00000  Uiso   1.00
C577   C     0.54044   0.26900   0.55612   0.00000  Uiso   1.00
C578   C     0.48059   0.21450   0.94658   0.00000  Uiso   1.00
C579   C     0.53998   0.27175   0.60635   0.00000  Uiso   1.00
C580   C     0.47673   0.21474   0.89581   0.00000  Uiso   1.00
C581   C     0.45904   0.22992   0.60109   0.00000  Uiso   1.00
C582   C     0.52132   0.28618   0.89650   0.00000  Uiso   1.00
C583   C     0.45585   0.23248   0.55029   0.00000  Uiso   1.00
C584   C     0.51800   0.28900   0.94649   0.00000  Uiso   1.00
C585   C     0.49744   0.25186   0.52687   0.00000  Uiso   1.00
C586   C     0.49794   0.25236   0.97262   0.00000  Uiso   1.00
C587   C     0.40148   0.24804   0.73854   0.00000  Uiso   1.00
C588   C     0.59841   0.25172   0.76152   0.00000  Uiso   1.00
C589   C     0.34678   0.23848   0.73590   0.00000  Uiso   1.00
C590   C     0.65297   0.26101   0.76453   0.00000  Uiso   1.00
C591   C     0.54351   0.05170   0.78668   0.00000  Uiso   1.00
C592   C     0.52838   0.45502   0.71297   0.00000  Uiso   1.00
C593   C     0.53811   0.09748   0.78697   0.00000  Uiso   1.00
C594   C     0.51992   0.40886   0.71044   0.00000  Uiso   1.00
C595   C     0.50461   0.11715   0.75148   0.00000  Uiso   1.00
C596   C     0.50175   0.38403   0.74918   0.00000  Uiso   1.00
C597   C     0.47639   0.09102   0.71565   0.00000  Uiso   1.00
C598   C     0.48727   0.40639   0.78862   0.00000  Uiso   1.00
C599   C     0.47805   0.04536   0.71750   0.00000  Uiso   1.00
C600   C     0.49090   0.45245   0.78921   0.00000  Uiso   1.00
C601   C     0.51175   0.02540   0.75239   0.00000  Uiso   1.00
C602   C     0.51205   0.47697   0.75206   0.00000  Uiso   1.00
Cu603  Cu    0.50000   0.24999   0.79821   0.00000  Uiso   1.00
Cu604  Cu    0.50000   0.25000   0.70178   0.00000  Uiso   1.00
N605   N     0.50000   0.25001   0.62934   0.00000  Uiso   1.00
N606   N     0.50000   0.24999   0.87065   0.00000  Uiso   1.00
O607   O     0.50000   0.18572   0.79071   0.00000  Uiso   1.00
O608   O     0.50000   0.31427   0.70928   0.00000  Uiso   1.00
O609   O     0.50000   0.18573   0.70928   0.00000  Uiso   1.00
O610   O     0.50000   0.31427   0.79072   0.00000  Uiso   1.00
O611   O     0.42495   0.24999   0.78132   0.00000  Uiso   1.00
O612   O     0.57505   0.25000   0.71868   0.00000  Uiso   1.00
O613   O     0.42495   0.25000   0.69988   0.00000  Uiso   1.00
O614   O     0.57505   0.25000   0.80011   0.00000  Uiso   1.00
S615   S     0.65554   0.18726   0.70860   0.00000  Uiso   1.00
O616   O     0.62416   0.16058   0.74248   0.00000  Uiso   1.00
O617   O     0.62231   0.19530   0.66247   0.00000  Uiso   1.00
O618   O     0.37104   0.15799   0.69664   0.00000  Uiso   1.00
H619   H     0.35424   0.12932   0.68453   0.00000  Uiso   1.00
S620   S     0.34408   0.31043   0.79534   0.00000  Uiso   1.00
O621   O     0.37415   0.29864   0.84215   0.00000  Uiso   1.00
O622   O     0.37846   0.33816   0.76483   0.00000  Uiso   1.00
O623   O     0.62828   0.33996   0.80675   0.00000  Uiso   1.00
H624   H     0.64482   0.36738   0.82219   0.00000  Uiso   1.00
S625   S     0.59085   0.02879   0.82836   0.00000  Uiso   1.00
O626   O     0.61020   0.48829   0.80822   0.00000  Uiso   1.00
O627   O     0.63562   0.06242   0.83988   0.00000  Uiso   1.00
O628   O     0.56431   0.01481   0.87921   0.00000  Uiso   1.00
H629   H     0.59163   0.00068   0.90011   0.00000  Uiso   1.00
S630   S     0.56018   0.48389   0.66718   0.00000  Uiso   1.00
O631   O     0.58767   0.02661   0.68570   0.00000  Uiso   1.00
O632   O     0.59886   0.45547   0.64971   0.00000  Uiso   1.00
O633   O     0.51627   0.49489   0.62090   0.00000  Uiso   1.00
H634   H     0.53610   0.01163   0.59725   0.00000  Uiso   1.00
F635   F     0.56706   0.12330   0.82045   0.00000  Uiso   1.00
F636   F     0.52903   0.38857   0.66980   0.00000  Uiso   1.00
F637   F     0.44697   0.10953   0.67884   0.00000  Uiso   1.00
F638   F     0.46762   0.38385   0.82587   0.00000  Uiso   1.00
F639   F     0.44678   0.02037   0.68489   0.00000  Uiso   1.00
F640   F     0.47301   0.47332   0.82586   0.00000  Uiso   1.00
F641   F     0.58390   0.28276   0.53567   0.00000  Uiso   1.00
F642   F     0.46873   0.17637   0.97104   0.00000  Uiso   1.00
S643   S     0.59327   0.30681   0.63349   0.00000  Uiso   1.00
O644   O     0.58859   0.32436   0.68225   0.00000  Uiso   1.00
O645   O     0.64121   0.28223   0.63569   0.00000  Uiso   1.00
O646   O     0.60106   0.35115   0.59681   0.00000  Uiso   1.00
H647   H     0.63443   0.36658   0.60934   0.00000  Uiso   1.00
S648   S     0.44035   0.16676   0.86988   0.00000  Uiso   1.00
O649   O     0.47659   0.13103   0.86662   0.00000  Uiso   1.00
O650   O     0.40106   0.15017   0.90281   0.00000  Uiso   1.00
O651   O     0.40744   0.17437   0.81595   0.00000  Uiso   1.00
H652   H     0.39360   0.14431   0.80543   0.00000  Uiso   1.00
F653   F     0.42004   0.20754   0.62157   0.00000  Uiso   1.00
F654   F     0.54594   0.32052   0.87436   0.00000  Uiso   1.00
F655   F     0.41190   0.21607   0.52438   0.00000  Uiso   1.00
F656   F     0.53457   0.32764   0.96894   0.00000  Uiso   1.00
C657   C     0.83431   0.16512   0.75048   0.00000  Uiso   1.00
C658   C     0.83321   0.33519   0.74957   0.00000  Uiso   1.00
C659   C     0.87377   0.26900   0.55612   0.00000  Uiso   1.00
C660   C     0.81393   0.21450   0.94658   0.00000  Uiso   1.00
C661   C     0.87332   0.27175   0.60635   0.00000  Uiso   1.00
C662   C     0.81006   0.21474   0.89581   0.00000  Uiso   1.00
C663   C     0.79238   0.22992   0.60109   0.00000  Uiso   1.00
C664   C     0.85465   0.28618   0.89650   0.00000  Uiso   1.00
C665   C     0.78918   0.23248   0.55029   0.00000  Uiso   1.00
C666   C     0.85134   0.28900   0.94649   0.00000  Uiso   1.00
C667   C     0.83078   0.25186   0.52687   0.00000  Uiso   1.00
C668   C     0.83127   0.25236   0.97262   0.00000  Uiso   1.00
C669   C     0.73482   0.24804   0.73854   0.00000  Uiso   1.00
C670   C     0.93175   0.25172   0.76152   0.00000  Uiso   1.00
C671   C     0.68011   0.23848   0.73590   0.00000  Uiso   1.00
C672   C     0.98631   0.26101   0.76453   0.00000  Uiso   1.00
C673   C     0.87684   0.05170   0.78668   0.00000  Uiso   1.00
C674   C     0.86171   0.45502   0.71297   0.00000  Uiso   1.00
C675   C     0.87144   0.09748   0.78697   0.00000  Uiso   1.00
C676   C     0.85325   0.40886   0.71044   0.00000  Uiso   1.00
C677   C     0.83794   0.11715   0.75148   0.00000  Uiso   1.00
C678   C     0.83508   0.38403   0.74918   0.00000  Uiso   1.00
C679   C     0.80973   0.09102   0.71565   0.00000  Uiso   1.00
C680   C     0.82060   0.40639   0.78862   0.00000  Uiso   1.00
C681   C     0.81138   0.04536   0.71750   0.00000  Uiso   1.00
C682   C     0.82423   0.45245   0.78921   0.00000  Uiso   1.00
C683   C     0.84509   0.02540   0.75239   0.00000  Uiso   1.00
C684   C     0.84539   0.47697   0.75206   0.00000  Uiso   1.00
Cu685  Cu    0.83333   0.24999   0.79821   0.00000  Uiso   1.00
Cu686  Cu    0.83333   0.25000   0.70178   0.00000  Uiso   1.00
N687   N     0.83333   0.25001   0.62934   0.00000  Uiso   1.00
N688   N     0.83333   0.24999   0.87065   0.00000  Uiso   1.00
O689   O     0.83334   0.18572   0.79071   0.00000  Uiso   1.00
O690   O     0.83333   0.31427   0.70928   0.00000  Uiso   1.00
O691   O     0.83334   0.18573   0.70928   0.00000  Uiso   1.00
O692   O     0.83333   0.31427   0.79072   0.00000  Uiso   1.00
O693   O     0.75828   0.24999   0.78132   0.00000  Uiso   1.00
O694   O     0.90839   0.25000   0.71868   0.00000  Uiso   1.00
O695   O     0.75828   0.25000   0.69988   0.00000  Uiso   1.00
O696   O     0.90839   0.25000   0.80011   0.00000  Uiso   1.00
S697   S     0.98887   0.18726   0.70860   0.00000  Uiso   1.00
O698   O     0.95750   0.16058   0.74248   0.00000  Uiso   1.00
O699   O     0.95564   0.19530   0.66247   0.00000  Uiso   1.00
O700   O     0.70437   0.15799   0.69664   0.00000  Uiso   1.00
H701   H     0.68758   0.12932   0.68453   0.00000  Uiso   1.00
S702   S     0.67742   0.31043   0.79534   0.00000  Uiso   1.00
O703   O     0.70749   0.29864   0.84215   0.00000  Uiso   1.00
O704   O     0.71179   0.33816   0.76483   0.00000  Uiso   1.00
O705   O     0.96162   0.33996   0.80675   0.00000  Uiso   1.00
H706   H     0.97816   0.36738   0.82219   0.00000  Uiso   1.00
S707   S     0.92418   0.02879   0.82836   0.00000  Uiso   1.00
O708   O     0.94353   0.48829   0.80822   0.00000  Uiso   1.00
O709   O     0.96896   0.06242   0.83988   0.00000  Uiso   1.00
O710   O     0.89765   0.01481   0.87921   0.00000  Uiso   1.00
H711   H     0.92497   0.00068   0.90011   0.00000  Uiso   1.00
S712   S     0.89352   0.48389   0.66718   0.00000  Uiso   1.00
O713   O     0.92101   0.02661   0.68570   0.00000  Uiso   1.00
O714   O     0.93220   0.45547   0.64971   0.00000  Uiso   1.00
O715   O     0.84960   0.49489   0.62090   0.00000  Uiso   1.00
H716   H     0.86943   0.01163   0.59725   0.00000  Uiso   1.00
F717   F     0.90039   0.12330   0.82045   0.00000  Uiso   1.00
F718   F     0.86236   0.38857   0.66980   0.00000  Uiso   1.00
F719   F     0.78030   0.10953   0.67884   0.00000  Uiso   1.00
F720   F     0.80095   0.38385   0.82587   0.00000  Uiso   1.00
F721   F     0.78012   0.02037   0.68489   0.00000  Uiso   1.00
F722   F     0.80634   0.47332   0.82586   0.00000  Uiso   1.00
F723   F     0.91723   0.28276   0.53567   0.00000  Uiso   1.00
F724   F     0.80207   0.17637   0.97104   0.00000  Uiso   1.00
S725   S     0.92661   0.30681   0.63349   0.00000  Uiso   1.00
O726   O     0.92192   0.32436   0.68225   0.00000  Uiso   1.00
O727   O     0.97455   0.28223   0.63569   0.00000  Uiso   1.00
O728   O     0.93439   0.35115   0.59681   0.00000  Uiso   1.00
H729   H     0.96776   0.36658   0.60934   0.00000  Uiso   1.00
S730   S     0.77368   0.16676   0.86988   0.00000  Uiso   1.00
O731   O     0.80992   0.13103   0.86662   0.00000  Uiso   1.00
O732   O     0.73439   0.15017   0.90281   0.00000  Uiso   1.00
O733   O     0.74077   0.17437   0.81595   0.00000  Uiso   1.00
H734   H     0.72694   0.14431   0.80543   0.00000  Uiso   1.00
F735   F     0.75337   0.20754   0.62157   0.00000  Uiso   1.00
F736   F     0.87927   0.32052   0.87436   0.00000  Uiso   1.00
F737   F     0.74523   0.21607   0.52438   0.00000  Uiso   1.00
F738   F     0.86790   0.32764   0.96894   0.00000  Uiso   1.00
C739   C     0.16764   0.66512   0.75048   0.00000  Uiso   1.00
C740   C     0.16654   0.83519   0.74957   0.00000  Uiso   1.00
C741   C     0.20710   0.76900   0.55612   0.00000  Uiso   1.00
C742   C     0.14726   0.71450   0.94658   0.00000  Uiso   1.00
C743   C     0.20665   0.77175   0.60635   0.00000  Uiso   1.00
C744   C     0.14339   0.71474   0.89581   0.00000  Uiso   1.00
C745   C     0.12571   0.72992   0.60109   0.00000  Uiso   1.00
C746   C     0.18798   0.78618   0.89650   0.00000  Uiso   1.00
C747   C     0.12251   0.73248   0.55029   0.00000  Uiso   1.00
C748   C     0.18467   0.78900   0.94649   0.00000  Uiso   1.00
C749   C     0.16411   0.75186   0.52687   0.00000  Uiso   1.00
C750   C     0.16461   0.75236   0.97262   0.00000  Uiso   1.00
C751   C     0.06815   0.74804   0.73854   0.00000  Uiso   1.00
C752   C     0.26508   0.75172   0.76152   0.00000  Uiso   1.00
C753   C     0.01345   0.73848   0.73590   0.00000  Uiso   1.00
C754   C     0.31964   0.76101   0.76453   0.00000  Uiso   1.00
C755   C     0.21018   0.55170   0.78668   0.00000  Uiso   1.00
C756   C     0.19504   0.95502   0.71297   0.00000  Uiso   1.00
C757   C     0.20477   0.59748   0.78697   0.00000  Uiso   1.00
C758   C     0.18659   0.90886   0.71044   0.00000  Uiso   1.00
C759   C     0.17128   0.61715   0.75148   0.00000  Uiso   1.00
C760   C     0.16841   0.88403   0.74918   0.00000  Uiso   1.00
C761   C     0.14306   0.59102   0.71565   0.00000  Uiso   1.00
C762   C     0.15393   0.90639   0.78862   0.00000  Uiso   1.00
C763   C     0.14472   0.54536   0.71750   0.00000  Uiso   1.00
C764   C     0.15756   0.95245   0.78921   0.00000  Uiso   1.00
C765   C     0.17842   0.52540   0.75239   0.00000  Uiso   1.00
C766   C     0.17872   0.97697   0.75206   0.00000  Uiso   1.00
Cu767  Cu    0.16667   0.74999   0.79821   0.00000  Uiso   1.00
Cu768  Cu    0.16667   0.75000   0.70178   0.00000  Uiso   1.00
N769   N     0.16667   0.75001   0.62934   0.00000  Uiso   1.00
N770   N     0.16667   0.74999   0.87065   0.00000  Uiso   1.00
O771   O     0.16667   0.68572   0.79071   0.00000  Uiso   1.00
O772   O     0.16666   0.81427   0.70928   0.00000  Uiso   1.00
O773   O     0.16667   0.68573   0.70928   0.00000  Uiso   1.00
O774   O     0.16666   0.81427   0.79072   0.00000  Uiso   1.00
O775   O     0.09161   0.74999   0.78132   0.00000  Uiso   1.00
O776   O     0.24172   0.75000   0.71868   0.00000  Uiso   1.00
O777   O     0.09161   0.75000   0.69988   0.00000  Uiso   1.00
O778   O     0.24172   0.75000   0.80011   0.00000  Uiso   1.00
S779   S     0.32221   0.68726   0.70860   0.00000  Uiso   1.00
O780   O     0.29083   0.66058   0.74248   0.00000  Uiso   1.00
O781   O     0.28898   0.69530   0.66247   0.00000  Uiso   1.00
O782   O     0.03771   0.65799   0.69664   0.00000  Uiso   1.00
H783   H     0.02091   0.62932   0.68453   0.00000  Uiso   1.00
S784   S     0.01075   0.81043   0.79534   0.00000  Uiso   1.00
O785   O     0.04082   0.79864   0.84215   0.00000  Uiso   1.00
O786   O     0.04513   0.83816   0.76483   0.00000  Uiso   1.00
O787   O     0.29495   0.83996   0.80675   0.00000  Uiso   1.00
H788   H     0.31149   0.86738   0.82219   0.00000  Uiso   1.00
S789   S     0.25751   0.52879   0.82836   0.00000  Uiso   1.00
O790   O     0.27686   0.98829   0.80822   0.00000  Uiso   1.00
O791   O     0.30229   0.56242   0.83988   0.00000  Uiso   1.00
O792   O     0.23098   0.51481   0.87921   0.00000  Uiso   1.00
H793   H     0.25830   0.50068   0.90011   0.00000  Uiso   1.00
S794   S     0.22685   0.98389   0.66718   0.00000  Uiso   1.00
O795   O     0.25434   0.52661   0.68570   0.00000  Uiso   1.00
O796   O     0.26553   0.95547   0.64971   0.00000  Uiso   1.00
O797   O     0.18294   0.99489   0.62090   0.00000  Uiso   1.00
H798   H     0.20277   0.51163   0.59725   0.00000  Uiso   1.00
F799   F     0.23372   0.62330   0.82045   0.00000  Uiso   1.00
F800   F     0.19570   0.88857   0.66980   0.00000  Uiso   1.00
F801   F     0.11364   0.60953   0.67884   0.00000  Uiso   1.00
F802   F     0.13429   0.88385   0.82587   0.00000  Uiso   1.00
F803   F     0.11345   0.52037   0.68489   0.00000  Uiso   1.00
F804   F     0.13967   0.97332   0.82586   0.00000  Uiso   1.00
F805   F     0.25056   0.78276   0.53567   0.00000  Uiso   1.00
F806   F     0.13540   0.67637   0.97104   0.00000  Uiso   1.00
S807   S     0.25994   0.80681   0.63349   0.00000  Uiso   1.00
O808   O     0.25525   0.82436   0.68225   0.00000  Uiso   1.00
O809   O     0.30788   0.78223   0.63569   0.00000  Uiso   1.00
O810   O     0.26772   0.85115   0.59681   0.00000  Uiso   1.00
H811   H     0.30109   0.86658   0.60934   0.00000  Uiso   1.00
S812   S     0.10702   0.66676   0.86988   0.00000  Uiso   1.00
O813   O     0.14326   0.63103   0.86662   0.00000  Uiso   1.00
O814   O     0.06772   0.65017   0.90281   0.00000  Uiso   1.00
O815   O     0.07410   0.67437   0.81595   0.00000  Uiso   1.00
H816   H     0.06027   0.64431   0.80543   0.00000  Uiso   1.00
F817   F     0.08670   0.70754   0.62157   0.00000  Uiso   1.00
F818   F     0.21260   0.82052   0.87436   0.00000  Uiso   1.00
F819   F     0.07856   0.71607   0.52438   0.00000  Uiso   1.00
F820   F     0.20123   0.82764   0.96894   0.00000  Uiso   1.00
C821   C     0.50097   0.66512   0.75048   0.00000  Uiso   1.00
C822   C     0.49988   0.83519   0.74957   0.00000  Uiso   1.00
C823   C     0.54044   0.76900   0.55612   0.00000  Uiso   1.00
C824   C     0.48059   0.71450   0.94658   0.00000  Uiso   1.00
C825   C     0.53998   0.77175   0.60635   0.00000  Uiso   1.00
C826   C     0.47673   0.71474   0.89581   0.00000  Uiso   1.00
C827   C     0.45904   0.72992   0.60109   0.00000  Uiso   1.00
C828   C     0.52132   0.78618   0.89650   0.00000  Uiso   1.00
C829   C     0.45585   0.73248   0.55029   0.00000  Uiso   1.00
C830   C     0.51800   0.78900   0.94649   0.00000  Uiso   1.00
C831   C     0.49744   0.75186   0.52687   0.00000  Uiso   1.00
C832   C     0.49794   0.75236   0.97262   0.00000  Uiso   1.00
C833   C     0.40148   0.74804   0.73854   0.00000  Uiso   1.00
C834   C     0.59841   0.75172   0.76152   0.00000  Uiso   1.00
C835   C     0.34678   0.73848   0.73590   0.00000  Uiso   1.00
C836   C     0.65297   0.76101   0.76453   0.00000  Uiso   1.00
C837   C     0.54351   0.55170   0.78668   0.00000  Uiso   1.00
C838   C     0.52838   0.95502   0.71297   0.00000  Uiso   1.00
C839   C     0.53811   0.59748   0.78697   0.00000  Uiso   1.00
C840   C     0.51992   0.90886   0.71044   0.00000  Uiso   1.00
C841   C     0.50461   0.61715   0.75148   0.00000  Uiso   1.00
C842   C     0.50175   0.88403   0.74918   0.00000  Uiso   1.00
C843   C     0.47639   0.59102   0.71565   0.00000  Uiso   1.00
C844   C     0.48727   0.90639   0.78862   0.00000  Uiso   1.00
C845   C     0.47805   0.54536   0.71750   0.00000  Uiso   1.00
C846   C     0.49090   0.95245   0.78921   0.00000  Uiso   1.00
C847   C     0.51175   0.52540   0.75239   0.00000  Uiso   1.00
C848   C     0.51205   0.97697   0.75206   0.00000  Uiso   1.00
Cu849  Cu    0.50000   0.74999   0.79821   0.00000  Uiso   1.00
Cu850  Cu    0.50000   0.75000   0.70178   0.00000  Uiso   1.00
N851   N     0.50000   0.75001   0.62934   0.00000  Uiso   1.00
N852   N     0.50000   0.74999   0.87065   0.00000  Uiso   1.00
O853   O     0.50000   0.68572   0.79071   0.00000  Uiso   1.00
O854   O     0.50000   0.81427   0.70928   0.00000  Uiso   1.00
O855   O     0.50000   0.68573   0.70928   0.00000  Uiso   1.00
O856   O     0.50000   0.81427   0.79072   0.00000  Uiso   1.00
O857   O     0.42495   0.74999   0.78132   0.00000  Uiso   1.00
O858   O     0.57505   0.75000   0.71868   0.00000  Uiso   1.00
O859   O     0.42495   0.75000   0.69988   0.00000  Uiso   1.00
O860   O     0.57505   0.75000   0.80011   0.00000  Uiso   1.00
S861   S     0.65554   0.68726   0.70860   0.00000  Uiso   1.00
O862   O     0.62416   0.66058   0.74248   0.00000  Uiso   1.00
O863   O     0.62231   0.69530   0.66247   0.00000  Uiso   1.00
O864   O     0.37104   0.65799   0.69664   0.00000  Uiso   1.00
H865   H     0.35424   0.62932   0.68453   0.00000  Uiso   1.00
S866   S     0.34408   0.81043   0.79534   0.00000  Uiso   1.00
O867   O     0.37415   0.79864   0.84215   0.00000  Uiso   1.00
O868   O     0.37846   0.83816   0.76483   0.00000  Uiso   1.00
O869   O     0.62828   0.83996   0.80675   0.00000  Uiso   1.00
H870   H     0.64482   0.86738   0.82219   0.00000  Uiso   1.00
S871   S     0.59085   0.52879   0.82836   0.00000  Uiso   1.00
O872   O     0.61020   0.98829   0.80822   0.00000  Uiso   1.00
O873   O     0.63562   0.56242   0.83988   0.00000  Uiso   1.00
O874   O     0.56431   0.51481   0.87921   0.00000  Uiso   1.00
H875   H     0.59163   0.50068   0.90011   0.00000  Uiso   1.00
S876   S     0.56018   0.98389   0.66718   0.00000  Uiso   1.00
O877   O     0.58767   0.52661   0.68570   0.00000  Uiso   1.00
O878   O     0.59886   0.95547   0.64971   0.00000  Uiso   1.00
O879   O     0.51627   0.99489   0.62090   0.00000  Uiso   1.00
H880   H     0.53610   0.51163   0.59725   0.00000  Uiso   1.00
F881   F     0.56706   0.62330   0.82045   0.00000  Uiso   1.00
F882   F     0.52903   0.88857   0.66980   0.00000  Uiso   1.00
F883   F     0.44697   0.60953   0.67884   0.00000  Uiso   1.00
F884   F     0.46762   0.88385   0.82587   0.00000  Uiso   1.00
F885   F     0.44678   0.52037   0.68489   0.00000  Uiso   1.00
F886   F     0.47301   0.97332   0.82586   0.00000  Uiso   1.00
F887   F     0.58390   0.78276   0.53567   0.00000  Uiso   1.00
F888   F     0.46873   0.67637   0.97104   0.00000  Uiso   1.00
S889   S     0.59327   0.80681   0.63349   0.00000  Uiso   1.00
O890   O     0.58859   0.82436   0.68225   0.00000  Uiso   1.00
O891   O     0.64121   0.78223   0.63569   0.00000  Uiso   1.00
O892   O     0.60106   0.85115   0.59681   0.00000  Uiso   1.00
H893   H     0.63443   0.86658   0.60934   0.00000  Uiso   1.00
S894   S     0.44035   0.66676   0.86988   0.00000  Uiso   1.00
O895   O     0.47659   0.63103   0.86662   0.00000  Uiso   1.00
O896   O     0.40106   0.65017   0.90281   0.00000  Uiso   1.00
O897   O     0.40744   0.67437   0.81595   0.00000  Uiso   1.00
H898   H     0.39360   0.64431   0.80543   0.00000  Uiso   1.00
F899   F     0.42004   0.70754   0.62157   0.00000  Uiso   1.00
F900   F     0.54594   0.82052   0.87436   0.00000  Uiso   1.00
F901   F     0.41190   0.71607   0.52438   0.00000  Uiso   1.00
F902   F     0.53457   0.82764   0.96894   0.00000  Uiso   1.00
C903   C     0.83431   0.66512   0.75048   0.00000  Uiso   1.00
C904   C     0.83321   0.83519   0.74957   0.00000  Uiso   1.00
C905   C     0.87377   0.76900   0.55612   0.00000  Uiso   1.00
C906   C     0.81393   0.71450   0.94658   0.00000  Uiso   1.00
C907   C     0.87332   0.77175   0.60635   0.00000  Uiso   1.00
C908   C     0.81006   0.71474   0.89581   0.00000  Uiso   1.00
C909   C     0.79238   0.72992   0.60109   0.00000  Uiso   1.00
C910   C     0.85465   0.78618   0.89650   0.00000  Uiso   1.00
C911   C     0.78918   0.73248   0.55029   0.00000  Uiso   1.00
C912   C     0.85134   0.78900   0.94649   0.00000  Uiso   1.00
C913   C     0.83078   0.75186   0.52687   0.00000  Uiso   1.00
C914   C     0.83127   0.75236   0.97262   0.00000  Uiso   1.00
C915   C     0.73482   0.74804   0.73854   0.00000  Uiso   1.00
C916   C     0.93175   0.75172   0.76152   0.00000  Uiso   1.00
C917   C     0.68011   0.73848   0.73590   0.00000  Uiso   1.00
C918   C     0.98631   0.76101   0.76453   0.00000  Uiso   1.00
C919   C     0.87684   0.55170   0.78668   0.00000  Uiso   1.00
C920   C     0.86171   0.95502   0.71297   0.00000  Uiso   1.00
C921   C     0.87144   0.59748   0.78697   0.00000  Uiso   1.00
C922   C     0.85325   0.90886   0.71044   0.00000  Uiso   1.00
C923   C     0.83794   0.61715   0.75148   0.00000  Uiso   1.00
C924   C     0.83508   0.88403   0.74918   0.00000  Uiso   1.00
C925   C     0.80973   0.59102   0.71565   0.00000  Uiso   1.00
C926   C     0.82060   0.90639   0.78862   0.00000  Uiso   1.00
C927   C     0.81138   0.54536   0.71750   0.00000  Uiso   1.00
C928   C     0.82423   0.95245   0.78921   0.00000  Uiso   1.00
C929   C     0.84509   0.52540   0.75239   0.00000  Uiso   1.00
C930   C     0.84539   0.97697   0.75206   0.00000  Uiso   1.00
Cu931  Cu    0.83333   0.74999   0.79821   0.00000  Uiso   1.00
Cu932  Cu    0.83333   0.75000   0.70178   0.00000  Uiso   1.00
N933   N     0.83333   0.75001   0.62934   0.00000  Uiso   1.00
N934   N     0.83333   0.74999   0.87065   0.00000  Uiso   1.00
O935   O     0.83334   0.68572   0.79071   0.00000  Uiso   1.00
O936   O     0.83333   0.81427   0.70928   0.00000  Uiso   1.00
O937   O     0.83334   0.68573   0.70928   0.00000  Uiso   1.00
O938   O     0.83333   0.81427   0.79072   0.00000  Uiso   1.00
O939   O     0.75828   0.74999   0.78132   0.00000  Uiso   1.00
O940   O     0.90839   0.75000   0.71868   0.00000  Uiso   1.00
O941   O     0.75828   0.75000   0.69988   0.00000  Uiso   1.00
O942   O     0.90839   0.75000   0.80011   0.00000  Uiso   1.00
S943   S     0.98887   0.68726   0.70860   0.00000  Uiso   1.00
O944   O     0.95750   0.66058   0.74248   0.00000  Uiso   1.00
O945   O     0.95564   0.69530   0.66247   0.00000  Uiso   1.00
O946   O     0.70437   0.65799   0.69664   0.00000  Uiso   1.00
H947   H     0.68758   0.62932   0.68453   0.00000  Uiso   1.00
S948   S     0.67742   0.81043   0.79534   0.00000  Uiso   1.00
O949   O     0.70749   0.79864   0.84215   0.00000  Uiso   1.00
O950   O     0.71179   0.83816   0.76483   0.00000  Uiso   1.00
O951   O     0.96162   0.83996   0.80675   0.00000  Uiso   1.00
H952   H     0.97816   0.86738   0.82219   0.00000  Uiso   1.00
S953   S     0.92418   0.52879   0.82836   0.00000  Uiso   1.00
O954   O     0.94353   0.98829   0.80822   0.00000  Uiso   1.00
O955   O     0.96896   0.56242   0.83988   0.00000  Uiso   1.00
O956   O     0.89765   0.51481   0.87921   0.00000  Uiso   1.00
H957   H     0.92497   0.50068   0.90011   0.00000  Uiso   1.00
S958   S     0.89352   0.98389   0.66718   0.00000  Uiso   1.00
O959   O     0.92101   0.52661   0.68570   0.00000  Uiso   1.00
O960   O     0.93220   0.95547   0.64971   0.00000  Uiso   1.00
O961   O     0.84960   0.99489   0.62090   0.00000  Uiso   1.00
H962   H     0.86943   0.51163   0.59725   0.00000  Uiso   1.00
F963   F     0.90039   0.62330   0.82045   0.00000  Uiso   1.00
F964   F     0.86236   0.88857   0.66980   0.00000  Uiso   1.00
F965   F     0.78030   0.60953   0.67884   0.00000  Uiso   1.00
F966   F     0.80095   0.88385   0.82587   0.00000  Uiso   1.00
F967   F     0.78012   0.52037   0.68489   0.00000  Uiso   1.00
F968   F     0.80634   0.97332   0.82586   0.00000  Uiso   1.00
F969   F     0.91723   0.78276   0.53567   0.00000  Uiso   1.00
F970   F     0.80207   0.67637   0.97104   0.00000  Uiso   1.00
S971   S     0.92661   0.80681   0.63349   0.00000  Uiso   1.00
O972   O     0.92192   0.82436   0.68225   0.00000  Uiso   1.00
O973   O     0.97455   0.78223   0.63569   0.00000  Uiso   1.00
O974   O     0.93439   0.85115   0.59681   0.00000  Uiso   1.00
H975   H     0.96776   0.86658   0.60934   0.00000  Uiso   1.00
S976   S     0.77368   0.66676   0.86988   0.00000  Uiso   1.00
O977   O     0.80992   0.63103   0.86662   0.00000  Uiso   1.00
O978   O     0.73439   0.65017   0.90281   0.00000  Uiso   1.00
O979   O     0.74077   0.67437   0.81595   0.00000  Uiso   1.00
H980   H     0.72694   0.64431   0.80543   0.00000  Uiso   1.00
F981   F     0.75337   0.70754   0.62157   0.00000  Uiso   1.00
F982   F     0.87927   0.82052   0.87436   0.00000  Uiso   1.00
F983   F     0.74523   0.71607   0.52438   0.00000  Uiso   1.00
F984   F     0.86790   0.82764   0.96894   0.00000  Uiso   1.00
loop_
_geom_bond_atom_site_label_1
_geom_bond_atom_site_label_2
_geom_bond_distance
_geom_bond_site_symmetry_2
_ccdc_geom_bond_type
C1     C21     1.460   .     S
C1     O33     1.301   .     A
C1     O35     1.296   .     A
C2     C22     1.474   .     S
C2     O34     1.304   .     A
C2     O36     1.301   .     A
C3     F67     1.360   .     S
C3     C5      1.410   .     A
C3     C11     1.391   .     A
C4     C12     1.390   .     A
C4     C6      1.412   .     A
C4     F68     1.360   .     S
C5     S69     1.796   .     S
C5     N31     1.401   .     A
C6     N32     1.401   .     A
C6     S74     1.795   .     S
C7     N31     1.371   .     A
C7     F79     1.353   .     S
C7     C9      1.414   .     A
C8     N32     1.373   .     A
C8     C10     1.414   .     A
C8     F80     1.353   .     S
C9     C11     1.413   .     A
C9     F81     1.357   .     S
C10    F82     1.357   .     S
C10    C12     1.412   .     A
C11    C504    1.518   1_554 S
C12    C503    1.518   .     S
C13    O37     1.285   .     A
C13    C15     1.433   .     S
C13    O39     1.298   .     A
C14    O38     1.285   .     A
C14    C16     1.428   .     S
C14    O40     1.295   .     A
C15    C180    1.353   1_455 S
C15    S205    1.785   1_455 S
C16    C97     1.353   .     S
C16    S128    1.782   .     S
C17    S51     1.777   .     S
C17    C27     1.415   .     A
C17    C19     1.403   .     A
C18    C20     1.398   .     A
C18    S56     1.779   .     S
C18    C28     1.412   .     A
C19    C21     1.405   .     A
C19    F61     1.359   .     S
C20    C22     1.409   .     A
C20    F62     1.355   .     S
C21    C23     1.399   .     A
C22    C24     1.407   .     A
C23    F63     1.355   .     S
C23    C25     1.384   .     A
C24    C26     1.389   .     A
C24    F64     1.358   .     S
C25    F65     1.359   .     S
C25    C27     1.402   .     A
C26    F66     1.358   .     S
C26    C28     1.401   .     A
C27    C274    1.465   1_545 S
C28    C273    1.465   .     S
Cu29   N32     2.025   .     S
Cu29   O33     1.959   .     S
Cu29   Cu30    2.696   .     S
Cu29   O36     1.950   .     S
Cu29   O40     1.959   .     S
Cu29   O37     1.970   .     S
Cu30   O35     1.950   .     S
Cu30   N31     2.025   .     S
Cu30   O38     1.970   .     S
Cu30   O34     1.959   .     S
Cu30   O39     1.959   .     S
S41    O42     1.502   .     D
S41    O43     1.502   .     D
S41    C97     1.785   .     S
S41    O126    1.676   .     S
O44    H45     0.991   .     S
O44    S205    1.676   1_455 S
S46    O47     1.503   .     D
S46    O48     1.503   .     D
S46    C180    1.782   1_455 S
S46    O213    1.682   1_455 S
O49    H50     0.990   .     S
O49    S128    1.682   .     S
S51    O53     1.503   .     D
S51    O54     1.681   .     S
S51    O298    1.503   1_545 S
O52    S297    1.503   .     S
O54    H55     0.990   .     S
S56    O59     1.681   .     S
S56    O58     1.504   .     D
S56    O303    1.503   .     S
O57    S302    1.503   1_545 S
O59    H306    0.991   .     S
H60    O305    0.991   1_545 S
S69    O71     1.502   .     D
S69    O72     1.683   .     S
S69    O70     1.494   .     D
O72    H73     0.991   .     S
S74    O76     1.504   .     D
S74    O77     1.674   .     S
S74    O75     1.502   .     D
O77    H78     0.991   .     S
C83    C103    1.460   .     S
C83    O115    1.301   .     A
C83    O117    1.296   .     A
C84    C104    1.474   .     S
C84    O116    1.304   .     A
C84    O118    1.301   .     A
C85    F149    1.360   .     S
C85    C87     1.410   .     A
C85    C93     1.391   .     A
C86    C94     1.390   .     A
C86    C88     1.412   .     A
C86    F150    1.360   .     S
C87    S151    1.796   .     S
C87    N113    1.401   .     A
C88    N114    1.401   .     A
C88    S156    1.795   .     S
C89    N113    1.371   .     A
C89    F161    1.353   .     S
C89    C91     1.414   .     A
C90    N114    1.373   .     A
C90    C92     1.414   .     A
C90    F162    1.353   .     S
C91    C93     1.413   .     A
C91    F163    1.357   .     S
C92    F164    1.357   .     S
C92    C94     1.412   .     A
C93    C586    1.518   1_554 S
C94    C585    1.518   .     S
C95    O119    1.285   .     A
C95    C97     1.433   .     S
C95    O121    1.298   .     A
C96    O120    1.285   .     A
C96    C98     1.428   .     S
C96    O122    1.295   .     A
C98    C179    1.353   .     S
C98    S210    1.782   .     S
C99    S133    1.777   .     S
C99    C109    1.415   .     A
C99    C101    1.403   .     A
C100   C102    1.398   .     A
C100   S138    1.779   .     S
C100   C110    1.412   .     A
C101   C103    1.405   .     A
C101   F143    1.359   .     S
C102   C104    1.409   .     A
C102   F144    1.355   .     S
C103   C105    1.399   .     A
C104   C106    1.407   .     A
C105   F145    1.355   .     S
C105   C107    1.384   .     A
C106   C108    1.389   .     A
C106   F146    1.358   .     S
C107   F147    1.359   .     S
C107   C109    1.402   .     A
C108   F148    1.358   .     S
C108   C110    1.401   .     A
C109   C356    1.465   1_545 S
C110   C355    1.465   .     S
Cu111  N114    2.025   .     S
Cu111  O115    1.959   .     S
Cu111  Cu112   2.696   .     S
Cu111  O118    1.950   .     S
Cu111  O122    1.959   .     S
Cu111  O119    1.970   .     S
Cu112  O117    1.950   .     S
Cu112  N113    2.025   .     S
Cu112  O120    1.970   .     S
Cu112  O116    1.959   .     S
Cu112  O121    1.959   .     S
S123   O124    1.502   .     D
S123   O125    1.502   .     D
S123   C179    1.785   .     S
S123   O208    1.676   .     S
O126   H127    0.991   .     S
S128   O129    1.503   .     D
S128   O130    1.503   .     D
O131   H132    0.990   .     S
O131   S210    1.682   .     S
S133   O135    1.503   .     D
S133   O136    1.681   .     S
S133   O380    1.503   1_545 S
O134   S379    1.503   .     S
O136   H137    0.990   .     S
S138   O141    1.681   .     S
S138   O140    1.504   .     D
S138   O385    1.503   .     S
O139   S384    1.503   1_545 S
O141   H388    0.991   .     S
H142   O387    0.991   1_545 S
S151   O153    1.502   .     D
S151   O154    1.683   .     S
S151   O152    1.494   .     D
O154   H155    0.991   .     S
S156   O158    1.504   .     D
S156   O159    1.674   .     S
S156   O157    1.502   .     D
O159   H160    0.991   .     S
C165   C185    1.460   .     S
C165   O197    1.301   .     A
C165   O199    1.296   .     A
C166   C186    1.474   .     S
C166   O198    1.304   .     A
C166   O200    1.301   .     A
C167   F231    1.360   .     S
C167   C169    1.410   .     A
C167   C175    1.391   .     A
C168   C176    1.390   .     A
C168   C170    1.412   .     A
C168   F232    1.360   .     S
C169   S233    1.796   .     S
C169   N195    1.401   .     A
C170   N196    1.401   .     A
C170   S238    1.795   .     S
C171   N195    1.371   .     A
C171   F243    1.353   .     S
C171   C173    1.414   .     A
C172   N196    1.373   .     A
C172   C174    1.414   .     A
C172   F244    1.353   .     S
C173   C175    1.413   .     A
C173   F245    1.357   .     S
C174   F246    1.357   .     S
C174   C176    1.412   .     A
C175   C668    1.518   1_554 S
C176   C667    1.518   .     S
C177   O201    1.285   .     A
C177   C179    1.433   .     S
C177   O203    1.298   .     A
C178   O202    1.285   .     A
C178   C180    1.428   .     S
C178   O204    1.295   .     A
C180   C15     1.353   1_655 S
C180   S46     1.782   1_655 S
C181   S215    1.777   .     S
C181   C191    1.415   .     A
C181   C183    1.403   .     A
C182   C184    1.398   .     A
C182   S220    1.779   .     S
C182   C192    1.412   .     A
C183   C185    1.405   .     A
C183   F225    1.359   .     S
C184   C186    1.409   .     A
C184   F226    1.355   .     S
C185   C187    1.399   .     A
C186   C188    1.407   .     A
C187   F227    1.355   .     S
C187   C189    1.384   .     A
C188   C190    1.389   .     A
C188   F228    1.358   .     S
C189   F229    1.359   .     S
C189   C191    1.402   .     A
C190   F230    1.358   .     S
C190   C192    1.401   .     A
C191   C438    1.465   1_545 S
C192   C437    1.465   .     S
Cu193  N196    2.025   .     S
Cu193  O197    1.959   .     S
Cu193  Cu194   2.696   .     S
Cu193  O200    1.950   .     S
Cu193  O204    1.959   .     S
Cu193  O201    1.970   .     S
Cu194  O199    1.950   .     S
Cu194  N195    2.025   .     S
Cu194  O202    1.970   .     S
Cu194  O198    1.959   .     S
Cu194  O203    1.959   .     S
S205   O206    1.502   .     D
S205   O207    1.502   .     D
S205   C15     1.785   1_655 S
S205   O44     1.676   1_655 S
O208   H209    0.991   .     S
S210   O211    1.503   .     D
S210   O212    1.503   .     D
O213   H214    0.990   .     S
O213   S46     1.682   1_655 S
S215   O217    1.503   .     D
S215   O218    1.681   .     S
S215   O462    1.503   1_545 S
O216   S461    1.503   .     S
O218   H219    0.990   .     S
S220   O223    1.681   .     S
S220   O222    1.504   .     D
S220   O467    1.503   .     S
O221   S466    1.503   1_545 S
O223   H470    0.991   .     S
H224   O469    0.991   1_545 S
S233   O235    1.502   .     D
S233   O236    1.683   .     S
S233   O234    1.494   .     D
O236   H237    0.991   .     S
S238   O240    1.504   .     D
S238   O241    1.674   .     S
S238   O239    1.502   .     D
O241   H242    0.991   .     S
C247   C267    1.460   .     S
C247   O279    1.301   .     A
C247   O281    1.296   .     A
C248   C268    1.474   .     S
C248   O280    1.304   .     A
C248   O282    1.301   .     A
C249   F313    1.360   .     S
C249   C251    1.410   .     A
C249   C257    1.391   .     A
C250   C258    1.390   .     A
C250   C252    1.412   .     A
C250   F314    1.360   .     S
C251   S315    1.796   .     S
C251   N277    1.401   .     A
C252   N278    1.401   .     A
C252   S320    1.795   .     S
C253   N277    1.371   .     A
C253   F325    1.353   .     S
C253   C255    1.414   .     A
C254   N278    1.373   .     A
C254   C256    1.414   .     A
C254   F326    1.353   .     S
C255   C257    1.413   .     A
C255   F327    1.357   .     S
C256   F328    1.357   .     S
C256   C258    1.412   .     A
C257   C750    1.518   1_554 S
C258   C749    1.518   .     S
C259   O283    1.285   .     A
C259   C261    1.433   .     S
C259   O285    1.298   .     A
C260   O284    1.285   .     A
C260   C262    1.428   .     S
C260   O286    1.295   .     A
C261   C426    1.353   1_455 S
C261   S451    1.785   1_455 S
C262   C343    1.353   .     S
C262   S374    1.782   .     S
C263   S297    1.777   .     S
C263   C273    1.415   .     A
C263   C265    1.403   .     A
C264   C266    1.398   .     A
C264   S302    1.779   .     S
C264   C274    1.412   .     A
C265   C267    1.405   .     A
C265   F307    1.359   .     S
C266   C268    1.409   .     A
C266   F308    1.355   .     S
C267   C269    1.399   .     A
C268   C270    1.407   .     A
C269   F309    1.355   .     S
C269   C271    1.384   .     A
C270   C272    1.389   .     A
C270   F310    1.358   .     S
C271   F311    1.359   .     S
C271   C273    1.402   .     A
C272   F312    1.358   .     S
C272   C274    1.401   .     A
C274   C27     1.465   1_565 S
Cu275  N278    2.025   .     S
Cu275  O279    1.959   .     S
Cu275  Cu276   2.696   .     S
Cu275  O282    1.950   .     S
Cu275  O286    1.959   .     S
Cu275  O283    1.970   .     S
Cu276  O281    1.950   .     S
Cu276  N277    2.025   .     S
Cu276  O284    1.970   .     S
Cu276  O280    1.959   .     S
Cu276  O285    1.959   .     S
S287   O288    1.502   .     D
S287   O289    1.502   .     D
S287   C343    1.785   .     S
S287   O372    1.676   .     S
O290   H291    0.991   .     S
O290   S451    1.676   1_455 S
S292   O293    1.503   .     D
S292   O294    1.503   .     D
S292   C426    1.782   1_455 S
S292   O459    1.682   1_455 S
O295   H296    0.990   .     S
O295   S374    1.682   .     S
S297   O299    1.503   .     D
S297   O300    1.681   .     S
O298   S51     1.503   1_565 S
O300   H301    0.990   .     S
S302   O305    1.681   .     S
S302   O304    1.504   .     D
S302   O57     1.503   1_565 S
O305   H60     0.991   1_565 S
S315   O317    1.502   .     D
S315   O318    1.683   .     S
S315   O316    1.494   .     D
O318   H319    0.991   .     S
S320   O322    1.504   .     D
S320   O323    1.674   .     S
S320   O321    1.502   .     D
O323   H324    0.991   .     S
C329   C349    1.460   .     S
C329   O361    1.301   .     A
C329   O363    1.296   .     A
C330   C350    1.474   .     S
C330   O362    1.304   .     A
C330   O364    1.301   .     A
C331   F395    1.360   .     S
C331   C333    1.410   .     A
C331   C339    1.391   .     A
C332   C340    1.390   .     A
C332   C334    1.412   .     A
C332   F396    1.360   .     S
C333   S397    1.796   .     S
C333   N359    1.401   .     A
C334   N360    1.401   .     A
C334   S402    1.795   .     S
C335   N359    1.371   .     A
C335   F407    1.353   .     S
C335   C337    1.414   .     A
C336   N360    1.373   .     A
C336   C338    1.414   .     A
C336   F408    1.353   .     S
C337   C339    1.413   .     A
C337   F409    1.357   .     S
C338   F410    1.357   .     S
C338   C340    1.412   .     A
C339   C832    1.518   1_554 S
C340   C831    1.518   .     S
C341   O365    1.285   .     A
C341   C343    1.433   .     S
C341   O367    1.298   .     A
C342   O366    1.285   .     A
C342   C344    1.428   .     S
C342   O368    1.295   .     A
C344   C425    1.353   .     S
C344   S456    1.782   .     S
C345   S379    1.777   .     S
C345   C355    1.415   .     A
C345   C347    1.403   .     A
C346   C348    1.398   .     A
C346   S384    1.779   .     S
C346   C356    1.412   .     A
C347   C349    1.405   .     A
C347   F389    1.359   .     S
C348   C350    1.409   .     A
C348   F390    1.355   .     S
C349   C351    1.399   .     A
C350   C352    1.407   .     A
C351   F391    1.355   .     S
C351   C353    1.384   .     A
C352   C354    1.389   .     A
C352   F392    1.358   .     S
C353   F393    1.359   .     S
C353   C355    1.402   .     A
C354   F394    1.358   .     S
C354   C356    1.401   .     A
C356   C109    1.465   1_565 S
Cu357  N360    2.025   .     S
Cu357  O361    1.959   .     S
Cu357  Cu358   2.696   .     S
Cu357  O364    1.950   .     S
Cu357  O368    1.959   .     S
Cu357  O365    1.970   .     S
Cu358  O363    1.950   .     S
Cu358  N359    2.025   .     S
Cu358  O366    1.970   .     S
Cu358  O362    1.959   .     S
Cu358  O367    1.959   .     S
S369   O370    1.502   .     D
S369   O371    1.502   .     D
S369   C425    1.785   .     S
S369   O454    1.676   .     S
O372   H373    0.991   .     S
S374   O375    1.503   .     D
S374   O376    1.503   .     D
O377   H378    0.990   .     S
O377   S456    1.682   .     S
S379   O381    1.503   .     D
S379   O382    1.681   .     S
O380   S133    1.503   1_565 S
O382   H383    0.990   .     S
S384   O387    1.681   .     S
S384   O386    1.504   .     D
S384   O139    1.503   1_565 S
O387   H142    0.991   1_565 S
S397   O399    1.502   .     D
S397   O400    1.683   .     S
S397   O398    1.494   .     D
O400   H401    0.991   .     S
S402   O404    1.504   .     D
S402   O405    1.674   .     S
S402   O403    1.502   .     D
O405   H406    0.991   .     S
C411   C431    1.460   .     S
C411   O443    1.301   .     A
C411   O445    1.296   .     A
C412   C432    1.474   .     S
C412   O444    1.304   .     A
C412   O446    1.301   .     A
C413   F477    1.360   .     S
C413   C415    1.410   .     A
C413   C421    1.391   .     A
C414   C422    1.390   .     A
C414   C416    1.412   .     A
C414   F478    1.360   .     S
C415   S479    1.796   .     S
C415   N441    1.401   .     A
C416   N442    1.401   .     A
C416   S484    1.795   .     S
C417   N441    1.371   .     A
C417   F489    1.353   .     S
C417   C419    1.414   .     A
C418   N442    1.373   .     A
C418   C420    1.414   .     A
C418   F490    1.353   .     S
C419   C421    1.413   .     A
C419   F491    1.357   .     S
C420   F492    1.357   .     S
C420   C422    1.412   .     A
C421   C914    1.518   1_554 S
C422   C913    1.518   .     S
C423   O447    1.285   .     A
C423   C425    1.433   .     S
C423   O449    1.298   .     A
C424   O448    1.285   .     A
C424   C426    1.428   .     S
C424   O450    1.295   .     A
C426   C261    1.353   1_655 S
C426   S292    1.782   1_655 S
C427   S461    1.777   .     S
C427   C437    1.415   .     A
C427   C429    1.403   .     A
C428   C430    1.398   .     A
C428   S466    1.779   .     S
C428   C438    1.412   .     A
C429   C431    1.405   .     A
C429   F471    1.359   .     S
C430   C432    1.409   .     A
C430   F472    1.355   .     S
C431   C433    1.399   .     A
C432   C434    1.407   .     A
C433   F473    1.355   .     S
C433   C435    1.384   .     A
C434   C436    1.389   .     A
C434   F474    1.358   .     S
C435   F475    1.359   .     S
C435   C437    1.402   .     A
C436   F476    1.358   .     S
C436   C438    1.401   .     A
C438   C191    1.465   1_565 S
Cu439  N442    2.025   .     S
Cu439  O443    1.959   .     S
Cu439  Cu440   2.696   .     S
Cu439  O446    1.950   .     S
Cu439  O450    1.959   .     S
Cu439  O447    1.970   .     S
Cu440  O445    1.950   .     S
Cu440  N441    2.025   .     S
Cu440  O448    1.970   .     S
Cu440  O444    1.959   .     S
Cu440  O449    1.959   .     S
S451   O452    1.502   .     D
S451   O453    1.502   .     D
S451   C261    1.785   1_655 S
S451   O290    1.676   1_655 S
O454   H455    0.991   .     S
S456   O457    1.503   .     D
S456   O458    1.503   .     D
O459   H460    0.990   .     S
O459   S292    1.682   1_655 S
S461   O463    1.503   .     D
S461   O464    1.681   .     S
O462   S215    1.503   1_565 S
O464   H465    0.990   .     S
S466   O469    1.681   .     S
S466   O468    1.504   .     D
S466   O221    1.503   1_565 S
O469   H224    0.991   1_565 S
S479   O481    1.502   .     D
S479   O482    1.683   .     S
S479   O480    1.494   .     D
O482   H483    0.991   .     S
S484   O486    1.504   .     D
S484   O487    1.674   .     S
S484   O485    1.502   .     D
O487   H488    0.991   .     S
C493   C513    1.460   .     S
C493   O525    1.301   .     A
C493   O527    1.296   .     A
C494   C514    1.474   .     S
C494   O526    1.304   .     A
C494   O528    1.301   .     A
C495   F559    1.360   .     S
C495   C497    1.410   .     A
C495   C503    1.391   .     A
C496   C504    1.390   .     A
C496   C498    1.412   .     A
C496   F560    1.360   .     S
C497   S561    1.796   .     S
C497   N523    1.401   .     A
C498   N524    1.401   .     A
C498   S566    1.795   .     S
C499   N523    1.371   .     A
C499   F571    1.353   .     S
C499   C501    1.414   .     A
C500   N524    1.373   .     A
C500   C502    1.414   .     A
C500   F572    1.353   .     S
C501   C503    1.413   .     A
C501   F573    1.357   .     S
C502   F574    1.357   .     S
C502   C504    1.412   .     A
C504   C11     1.518   1_556 S
C505   O529    1.285   .     A
C505   C507    1.433   .     S
C505   O531    1.298   .     A
C506   O530    1.285   .     A
C506   C508    1.428   .     S
C506   O532    1.295   .     A
C507   C672    1.353   1_455 S
C507   S697    1.785   1_455 S
C508   C589    1.353   .     S
C508   S620    1.782   .     S
C509   S543    1.777   .     S
C509   C519    1.415   .     A
C509   C511    1.403   .     A
C510   C512    1.398   .     A
C510   S548    1.779   .     S
C510   C520    1.412   .     A
C511   C513    1.405   .     A
C511   F553    1.359   .     S
C512   C514    1.409   .     A
C512   F554    1.355   .     S
C513   C515    1.399   .     A
C514   C516    1.407   .     A
C515   F555    1.355   .     S
C515   C517    1.384   .     A
C516   C518    1.389   .     A
C516   F556    1.358   .     S
C517   F557    1.359   .     S
C517   C519    1.402   .     A
C518   F558    1.358   .     S
C518   C520    1.401   .     A
C519   C766    1.465   1_545 S
C520   C765    1.465   .     S
Cu521  N524    2.025   .     S
Cu521  O525    1.959   .     S
Cu521  Cu522   2.696   .     S
Cu521  O528    1.950   .     S
Cu521  O532    1.959   .     S
Cu521  O529    1.970   .     S
Cu522  O527    1.950   .     S
Cu522  N523    2.025   .     S
Cu522  O530    1.970   .     S
Cu522  O526    1.959   .     S
Cu522  O531    1.959   .     S
S533   O534    1.502   .     D
S533   O535    1.502   .     D
S533   C589    1.785   .     S
S533   O618    1.676   .     S
O536   H537    0.991   .     S
O536   S697    1.676   1_455 S
S538   O539    1.503   .     D
S538   O540    1.503   .     D
S538   C672    1.782   1_455 S
S538   O705    1.682   1_455 S
O541   H542    0.990   .     S
O541   S620    1.682   .     S
S543   O545    1.503   .     D
S543   O546    1.681   .     S
S543   O790    1.503   1_545 S
O544   S789    1.503   .     S
O546   H547    0.990   .     S
S548   O551    1.681   .     S
S548   O550    1.504   .     D
S548   O795    1.503   .     S
O549   S794    1.503   1_545 S
O551   H798    0.991   .     S
H552   O797    0.991   1_545 S
S561   O563    1.502   .     D
S561   O564    1.683   .     S
S561   O562    1.494   .     D
O564   H565    0.991   .     S
S566   O568    1.504   .     D
S566   O569    1.674   .     S
S566   O567    1.502   .     D
O569   H570    0.991   .     S
C575   C595    1.460   .     S
C575   O607    1.301   .     A
C575   O609    1.296   .     A
C576   C596    1.474   .     S
C576   O608    1.304   .     A
C576   O610    1.301   .     A
C577   F641    1.360   .     S
C577   C579    1.410   .     A
C577   C585    1.391   .     A
C578   C586    1.390   .     A
C578   C580    1.412   .     A
C578   F642    1.360   .     S
C579   S643    1.796   .     S
C579   N605    1.401   .     A
C580   N606    1.401   .     A
C580   S648    1.795   .     S
C581   N605    1.371   .     A
C581   F653    1.353   .     S
C581   C583    1.414   .     A
C582   N606    1.373   .     A
C582   C584    1.414   .     A
C582   F654    1.353   .     S
C583   C585    1.413   .     A
C583   F655    1.357   .     S
C584   F656    1.357   .     S
C584   C586    1.412   .     A
C586   C93     1.518   1_556 S
C587   O611    1.285   .     A
C587   C589    1.433   .     S
C587   O613    1.298   .     A
C588   O612    1.285   .     A
C588   C590    1.428   .     S
C588   O614    1.295   .     A
C590   C671    1.353   .     S
C590   S702    1.782   .     S
C591   S625    1.777   .     S
C591   C601    1.415   .     A
C591   C593    1.403   .     A
C592   C594    1.398   .     A
C592   S630    1.779   .     S
C592   C602    1.412   .     A
C593   C595    1.405   .     A
C593   F635    1.359   .     S
C594   C596    1.409   .     A
C594   F636    1.355   .     S
C595   C597    1.399   .     A
C596   C598    1.407   .     A
C597   F637    1.355   .     S
C597   C599    1.384   .     A
C598   C600    1.389   .     A
C598   F638    1.358   .     S
C599   F639    1.359   .     S
C599   C601    1.402   .     A
C600   F640    1.358   .     S
C600   C602    1.401   .     A
C601   C848    1.465   1_545 S
C602   C847    1.465   .     S
Cu603  N606    2.025   .     S
Cu603  O607    1.959   .     S
Cu603  Cu604   2.696   .     S
Cu603  O610    1.950   .     S
Cu603  O614    1.959   .     S
Cu603  O611    1.970   .     S
Cu604  O609    1.950   .     S
Cu604  N605    2.025   .     S
Cu604  O612    1.970   .     S
Cu604  O608    1.959   .     S
Cu604  O613    1.959   .     S
S615   O616    1.502   .     D
S615   O617    1.502   .     D
S615   C671    1.785   .     S
S615   O700    1.676   .     S
O618   H619    0.991   .     S
S620   O621    1.503   .     D
S620   O622    1.503   .     D
O623   H624    0.990   .     S
O623   S702    1.682   .     S
S625   O627    1.503   .     D
S625   O628    1.681   .     S
S625   O872    1.503   1_545 S
O626   S871    1.503   .     S
O628   H629    0.990   .     S
S630   O633    1.681   .     S
S630   O632    1.504   .     D
S630   O877    1.503   .     S
O631   S876    1.503   1_545 S
O633   H880    0.991   .     S
H634   O879    0.991   1_545 S
S643   O645    1.502   .     D
S643   O646    1.683   .     S
S643   O644    1.494   .     D
O646   H647    0.991   .     S
S648   O650    1.504   .     D
S648   O651    1.674   .     S
S648   O649    1.502   .     D
O651   H652    0.991   .     S
C657   C677    1.460   .     S
C657   O689    1.301   .     A
C657   O691    1.296   .     A
C658   C678    1.474   .     S
C658   O690    1.304   .     A
C658   O692    1.301   .     A
C659   F723    1.360   .     S
C659   C661    1.410   .     A
C659   C667    1.391   .     A
C660   C668    1.390   .     A
C660   C662    1.412   .     A
C660   F724    1.360   .     S
C661   S725    1.796   .     S
C661   N687    1.401   .     A
C662   N688    1.401   .     A
C662   S730    1.795   .     S
C663   N687    1.371   .     A
C663   F735    1.353   .     S
C663   C665    1.414   .     A
C664   N688    1.373   .     A
C664   C666    1.414   .     A
C664   F736    1.353   .     S
C665   C667    1.413   .     A
C665   F737    1.357   .     S
C666   F738    1.357   .     S
C666   C668    1.412   .     A
C668   C175    1.518   1_556 S
C669   O693    1.285   .     A
C669   C671    1.433   .     S
C669   O695    1.298   .     A
C670   O694    1.285   .     A
C670   C672    1.428   .     S
C670   O696    1.295   .     A
C672   C507    1.353   1_655 S
C672   S538    1.782   1_655 S
C673   S707    1.777   .     S
C673   C683    1.415   .     A
C673   C675    1.403   .     A
C674   C676    1.398   .     A
C674   S712    1.779   .     S
C674   C684    1.412   .     A
C675   C677    1.405   .     A
C675   F717    1.359   .     S
C676   C678    1.409   .     A
C676   F718    1.355   .     S
C677   C679    1.399   .     A
C678   C680    1.407   .     A
C679   F719    1.355   .     S
C679   C681    1.384   .     A
C680   C682    1.389   .     A
C680   F720    1.358   .     S
C681   F721    1.359   .     S
C681   C683    1.402   .     A
C682   F722    1.358   .     S
C682   C684    1.401   .     A
C683   C930    1.465   1_545 S
C684   C929    1.465   .     S
Cu685  N688    2.025   .     S
Cu685  O689    1.959   .     S
Cu685  Cu686   2.696   .     S
Cu685  O692    1.950   .     S
Cu685  O696    1.959   .     S
Cu685  O693    1.970   .     S
Cu686  O691    1.950   .     S
Cu686  N687    2.025   .     S
Cu686  O694    1.970   .     S
Cu686  O690    1.959   .     S
Cu686  O695    1.959   .     S
S697   O698    1.502   .     D
S697   O699    1.502   .     D
S697   C507    1.785   1_655 S
S697   O536    1.676   1_655 S
O700   H701    0.991   .     S
S702   O703    1.503   .     D
S702   O704    1.503   .     D
O705   H706    0.990   .     S
O705   S538    1.682   1_655 S
S707   O709    1.503   .     D
S707   O710    1.681   .     S
S707   O954    1.503   1_545 S
O708   S953    1.503   .     S
O710   H711    0.990   .     S
S712   O715    1.681   .     S
S712   O714    1.504   .     D
S712   O959    1.503   .     S
O713   S958    1.503   1_545 S
O715   H962    0.991   .     S
H716   O961    0.991   1_545 S
S725   O727    1.502   .     D
S725   O728    1.683   .     S
S725   O726    1.494   .     D
O728   H729    0.991   .     S
S730   O732    1.504   .     D
S730   O733    1.674   .     S
S730   O731    1.502   .     D
O733   H734    0.991   .     S
C739   C759    1.460   .     S
C739   O771    1.301   .     A
C739   O773    1.296   .     A
C740   C760    1.474   .     S
C740   O772    1.304   .     A
C740   O774    1.301   .     A
C741   F805    1.360   .     S
C741   C743    1.410   .     A
C741   C749    1.391   .     A
C742   C750    1.390   .     A
C742   C744    1.412   .     A
C742   F806    1.360   .     S
C743   S807    1.796   .     S
C743   N769    1.401   .     A
C744   N770    1.401   .     A
C744   S812    1.795   .     S
C745   N769    1.371   .     A
C745   F817    1.353   .     S
C745   C747    1.414   .     A
C746   N770    1.373   .     A
C746   C748    1.414   .     A
C746   F818    1.353   .     S
C747   C749    1.413   .     A
C747   F819    1.357   .     S
C748   F820    1.357   .     S
C748   C750    1.412   .     A
C750   C257    1.518   1_556 S
C751   O775    1.285   .     A
C751   C753    1.433   .     S
C751   O777    1.298   .     A
C752   O776    1.285   .     A
C752   C754    1.428   .     S
C752   O778    1.295   .     A
C753   C918    1.353   1_455 S
C753   S943    1.785   1_455 S
C754   C835    1.353   .     S
C754   S866    1.782   .     S
C755   S789    1.777   .     S
C755   C765    1.415   .     A
C755   C757    1.403   .     A
C756   C758    1.398   .     A
C756   S794    1.779   .     S
C756   C766    1.412   .     A
C757   C759    1.405   .     A
C757   F799    1.359   .     S
C758   C760    1.409   .     A
C758   F800    1.355   .     S
C759   C761    1.399   .     A
C760   C762    1.407   .     A
C761   F801    1.355   .     S
C761   C763    1.384   .     A
C762   C764    1.389   .     A
C762   F802    1.358   .     S
C763   F803    1.359   .     S
C763   C765    1.402   .     A
C764   F804    1.358   .     S
C764   C766    1.401   .     A
C766   C519    1.465   1_565 S
Cu767  N770    2.025   .     S
Cu767  O771    1.959   .     S
Cu767  Cu768   2.696   .     S
Cu767  O774    1.950   .     S
Cu767  O778    1.959   .     S
Cu767  O775    1.970   .     S
Cu768  O773    1.950   .     S
Cu768  N769    2.025   .     S
Cu768  O776    1.970   .     S
Cu768  O772    1.959   .     S
Cu768  O777    1.959   .     S
S779   O780    1.502   .     D
S779   O781    1.502   .     D
S779   C835    1.785   .     S
S779   O864    1.676   .     S
O782   H783    0.991   .     S
O782   S943    1.676   1_455 S
S784   O785    1.503   .     D
S784   O786    1.503   .     D
S784   C918    1.782   1_455 S
S784   O951    1.682   1_455 S
O787   H788    0.990   .     S
O787   S866    1.682   .     S
S789   O791    1.503   .     D
S789   O792    1.681   .     S
O790   S543    1.503   1_565 S
O792   H793    0.990   .     S
S794   O797    1.681   .     S
S794   O796    1.504   .     D
S794   O549    1.503   1_565 S
O797   H552    0.991   1_565 S
S807   O809    1.502   .     D
S807   O810    1.683   .     S
S807   O808    1.494   .     D
O810   H811    0.991   .     S
S812   O814    1.504   .     D
S812   O815    1.674   .     S
S812   O813    1.502   .     D
O815   H816    0.991   .     S
C821   C841    1.460   .     S
C821   O853    1.301   .     A
C821   O855    1.296   .     A
C822   C842    1.474   .     S
C822   O854    1.304   .     A
C822   O856    1.301   .     A
C823   F887    1.360   .     S
C823   C825    1.410   .     A
C823   C831    1.391   .     A
C824   C832    1.390   .     A
C824   C826    1.412   .     A
C824   F888    1.360   .     S
C825   S889    1.796   .     S
C825   N851    1.401   .     A
C826   N852    1.401   .     A
C826   S894    1.795   .     S
C827   N851    1.371   .     A
C827   F899    1.353   .     S
C827   C829    1.414   .     A
C828   N852    1.373   .     A
C828   C830    1.414   .     A
C828   F900    1.353   .     S
C829   C831    1.413   .     A
C829   F901    1.357   .     S
C830   F902    1.357   .     S
C830   C832    1.412   .     A
C832   C339    1.518   1_556 S
C833   O857    1.285   .     A
C833   C835    1.433   .     S
C833   O859    1.298   .     A
C834   O858    1.285   .     A
C834   C836    1.428   .     S
C834   O860    1.295   .     A
C836   C917    1.353   .     S
C836   S948    1.782   .     S
C837   S871    1.777   .     S
C837   C847    1.415   .     A
C837   C839    1.403   .     A
C838   C840    1.398   .     A
C838   S876    1.779   .     S
C838   C848    1.412   .     A
C839   C841    1.405   .     A
C839   F881    1.359   .     S
C840   C842    1.409   .     A
C840   F882    1.355   .     S
C841   C843    1.399   .     A
C842   C844    1.407   .     A
C843   F883    1.355   .     S
C843   C845    1.384   .     A
C844   C846    1.389   .     A
C844   F884    1.358   .     S
C845   F885    1.359   .     S
C845   C847    1.402   .     A
C846   F886    1.358   .     S
C846   C848    1.401   .     A
C848   C601    1.465   1_565 S
Cu849  N852    2.025   .     S
Cu849  O853    1.959   .     S
Cu849  Cu850   2.696   .     S
Cu849  O856    1.950   .     S
Cu849  O860    1.959   .     S
Cu849  O857    1.970   .     S
Cu850  O855    1.950   .     S
Cu850  N851    2.025   .     S
Cu850  O858    1.970   .     S
Cu850  O854    1.959   .     S
Cu850  O859    1.959   .     S
S861   O862    1.502   .     D
S861   O863    1.502   .     D
S861   C917    1.785   .     S
S861   O946    1.676   .     S
O864   H865    0.991   .     S
S866   O867    1.503   .     D
S866   O868    1.503   .     D
O869   H870    0.990   .     S
O869   S948    1.682   .     S
S871   O873    1.503   .     D
S871   O874    1.681   .     S
O872   S625    1.503   1_565 S
O874   H875    0.990   .     S
S876   O879    1.681   .     S
S876   O878    1.504   .     D
S876   O631    1.503   1_565 S
O879   H634    0.991   1_565 S
S889   O891    1.502   .     D
S889   O892    1.683   .     S
S889   O890    1.494   .     D
O892   H893    0.991   .     S
S894   O896    1.504   .     D
S894   O897    1.674   .     S
S894   O895    1.502   .     D
O897   H898    0.991   .     S
C903   C923    1.460   .     S
C903   O935    1.301   .     A
C903   O937    1.296   .     A
C904   C924    1.474   .     S
C904   O936    1.304   .     A
C904   O938    1.301   .     A
C905   F969    1.360   .     S
C905   C907    1.410   .     A
C905   C913    1.391   .     A
C906   C914    1.390   .     A
C906   C908    1.412   .     A
C906   F970    1.360   .     S
C907   S971    1.796   .     S
C907   N933    1.401   .     A
C908   N934    1.401   .     A
C908   S976    1.795   .     S
C909   N933    1.371   .     A
C909   F981    1.353   .     S
C909   C911    1.414   .     A
C910   N934    1.373   .     A
C910   C912    1.414   .     A
C910   F982    1.353   .     S
C911   C913    1.413   .     A
C911   F983    1.357   .     S
C912   F984    1.357   .     S
C912   C914    1.412   .     A
C914   C421    1.518   1_556 S
C915   O939    1.285   .     A
C915   C917    1.433   .     S
C915   O941    1.298   .     A
C916   O940    1.285   .     A
C916   C918    1.428   .     S
C916   O942    1.295   .     A
C918   C753    1.353   1_655 S
C918   S784    1.782   1_655 S
C919   S953    1.777   .     S
C919   C929    1.415   .     A
C919   C921    1.403   .     A
C920   C922    1.398   .     A
C920   S958    1.779   .     S
C920   C930    1.412   .     A
C921   C923    1.405   .     A
C921   F963    1.359   .     S
C922   C924    1.409   .     A
C922   F964    1.355   .     S
C923   C925    1.399   .     A
C924   C926    1.407   .     A
C925   F965    1.355   .     S
C925   C927    1.384   .     A
C926   C928    1.389   .     A
C926   F966    1.358   .     S
C927   F967    1.359   .     S
C927   C929    1.402   .     A
C928   F968    1.358   .     S
C928   C930    1.401   .     A
C930   C683    1.465   1_565 S
Cu931  N934    2.025   .     S
Cu931  O935    1.959   .     S
Cu931  Cu932   2.696   .     S
Cu931  O938    1.950   .     S
Cu931  O942    1.959   .     S
Cu931  O939    1.970   .     S
Cu932  O937    1.950   .     S
Cu932  N933    2.025   .     S
Cu932  O940    1.970   .     S
Cu932  O936    1.959   .     S
Cu932  O941    1.959   .     S
S943   O944    1.502   .     D
S943   O945    1.502   .     D
S943   C753    1.785   1_655 S
S943   O782    1.676   1_655 S
O946   H947    0.991   .     S
S948   O949    1.503   .     D
S948   O950    1.503   .     D
O951   H952    0.990   .     S
O951   S784    1.682   1_655 S
S953   O955    1.503   .     D
S953   O956    1.681   .     S
O954   S707    1.503   1_565 S
O956   H957    0.990   .     S
S958   O961    1.681   .     S
S958   O960    1.504   .     D
S958   O713    1.503   1_565 S
O961   H716    0.991   1_565 S
S971   O973    1.502   .     D
S971   O974    1.683   .     S
S971   O972    1.494   .     D
O974   H975    0.991   .     S
S976   O978    1.504   .     D
S976   O979    1.674   .     S
S976   O977    1.502   .     D
O979   H980    0.991   .     S
