data_str_m2_o10_o17_pcu_sym.119
_audit_creation_date              2020-01-03
_audit_creation_method            'Materials Studio'
_symmetry_space_group_name_H-M    'P1'
_symmetry_Int_Tables_number       1
_symmetry_cell_setting            triclinic
loop_
_symmetry_equiv_pos_as_xyz
  x,y,z
_cell_length_a                    29.9313
_cell_length_b                    26.0091
_cell_length_c                    22.5484
_cell_angle_alpha                 101.0176
_cell_angle_beta                  95.4245
_cell_angle_gamma                 93.3531
loop_
_atom_site_label
_atom_site_type_symbol
_atom_site_fract_x
_atom_site_fract_y
_atom_site_fract_z
_atom_site_U_iso_or_equiv
_atom_site_adp_type
_atom_site_occupancy
C1     C     0.25069   0.06736   0.15245   0.00000  Uiso   1.00
C2     C     0.24892   0.26596   0.18107   0.00000  Uiso   1.00
C3     C     0.01338   0.08391   0.09152   0.00000  Uiso   1.00
C4     C     0.48663   0.24905   0.24204   0.00000  Uiso   1.00
C5     C     0.26010   0.01396   0.14940   0.00000  Uiso   1.00
C6     C     0.23983   0.31966   0.18505   0.00000  Uiso   1.00
C7     C     0.16458   0.16610   0.16685   0.00000  Uiso   1.00
C8     C     0.33542   0.16714   0.16649   0.00000  Uiso   1.00
C9     C     0.41142   0.20722   0.20498   0.00000  Uiso   1.00
C10    C     0.08859   0.12592   0.12834   0.00000  Uiso   1.00
C11    C     0.38364   0.16742   0.16598   0.00000  Uiso   1.00
C12    C     0.11636   0.16568   0.16743   0.00000  Uiso   1.00
C13    C     0.40175   0.12779   0.12667   0.00000  Uiso   1.00
C14    C     0.09825   0.20508   0.20704   0.00000  Uiso   1.00
C15    C     0.44824   0.12660   0.12752   0.00000  Uiso   1.00
C16    C     0.05177   0.20628   0.20616   0.00000  Uiso   1.00
C17    C     0.47660   0.16685   0.16658   0.00000  Uiso   1.00
C18    C     0.02340   0.16609   0.16701   0.00000  Uiso   1.00
C19    C     0.45812   0.20796   0.20496   0.00000  Uiso   1.00
C20    C     0.04190   0.12504   0.12854   0.00000  Uiso   1.00
C21    C     0.46668   0.08559   0.09035   0.00000  Uiso   1.00
C22    C     0.03333   0.24727   0.24337   0.00000  Uiso   1.00
Cu23   Cu    0.25500   0.17246   0.22813   0.00000  Uiso   1.00
Cu24   Cu    0.24499   0.16087   0.10521   0.00000  Uiso   1.00
H25    H     0.39638   0.23789   0.23441   0.00000  Uiso   1.00
H26    H     0.10364   0.09538   0.09874   0.00000  Uiso   1.00
H27    H     0.37958   0.09724   0.09666   0.00000  Uiso   1.00
H28    H     0.12040   0.23547   0.23729   0.00000  Uiso   1.00
H29    H     0.44491   0.05449   0.06070   0.00000  Uiso   1.00
H30    H     0.05512   0.27832   0.27308   0.00000  Uiso   1.00
N31    N     0.23744   0.15214   0.01284   0.00000  Uiso   1.00
N32    N     0.26255   0.18119   0.32049   0.00000  Uiso   1.00
O33    O     0.25325   0.09538   0.20659   0.00000  Uiso   1.00
O34    O     0.24674   0.23796   0.12674   0.00000  Uiso   1.00
O35    O     0.24480   0.08559   0.10279   0.00000  Uiso   1.00
O36    O     0.25520   0.24774   0.23055   0.00000  Uiso   1.00
O37    O     0.18935   0.17155   0.21857   0.00000  Uiso   1.00
O38    O     0.31064   0.16179   0.11476   0.00000  Uiso   1.00
O39    O     0.18090   0.16176   0.11477   0.00000  Uiso   1.00
O40    O     0.31910   0.17157   0.21857   0.00000  Uiso   1.00
O41    O     0.03102   0.04309   0.05452   0.00000  Uiso   1.00
C42    C     0.03153   0.33306   0.08375   0.00000  Uiso   1.00
H43    H     0.49679   0.31784   0.08854   0.00000  Uiso   1.00
H44    H     0.05187   0.00973   0.12898   0.00000  Uiso   1.00
H45    H     0.04742   0.30097   0.05547   0.00000  Uiso   1.00
O46    O     0.46900   0.28991   0.27899   0.00000  Uiso   1.00
C47    C     0.46882   0.00005   0.24994   0.00000  Uiso   1.00
H48    H     0.44873   0.32353   0.20452   0.00000  Uiso   1.00
H49    H     0.00367   0.01521   0.24559   0.00000  Uiso   1.00
H50    H     0.45283   0.03212   0.27810   0.00000  Uiso   1.00
O51    O     0.29506   0.32855   0.11750   0.00000  Uiso   1.00
C52    C     0.33583   0.00860   0.15611   0.00000  Uiso   1.00
H53    H     0.33717   0.31966   0.19366   0.00000  Uiso   1.00
H54    H     0.34098   0.05155   0.17505   0.00000  Uiso   1.00
H55    H     0.36444   0.33133   0.12959   0.00000  Uiso   1.00
O56    O     0.20740   0.00648   0.22118   0.00000  Uiso   1.00
C57    C     0.16475   0.32738   0.18710   0.00000  Uiso   1.00
H58    H     0.15896   0.28491   0.16581   0.00000  Uiso   1.00
H59    H     0.16052   0.01832   0.15164   0.00000  Uiso   1.00
H60    H     0.13828   0.00298   0.21791   0.00000  Uiso   1.00
O61    O     0.21204   0.11399   0.30613   0.00000  Uiso   1.00
C62    C     0.17028   0.10656   0.32773   0.00000  Uiso   1.00
H63    H     0.14705   0.08227   0.29042   0.00000  Uiso   1.00
H64    H     0.15470   0.14441   0.00675   0.00000  Uiso   1.00
H65    H     0.17318   0.08446   0.03184   0.00000  Uiso   1.00
O66    O     0.29765   0.20719   0.02512   0.00000  Uiso   1.00
C67    C     0.31103   0.25303   0.00537   0.00000  Uiso   1.00
H68    H     0.33898   0.27423   0.03807   0.00000  Uiso   1.00
H69    H     0.28310   0.27931   0.00464   0.00000  Uiso   1.00
H70    H     0.32543   0.24497   0.29510   0.00000  Uiso   1.00
C71    C     0.75069   0.06736   0.15245   0.00000  Uiso   1.00
C72    C     0.74892   0.26596   0.18107   0.00000  Uiso   1.00
C73    C     0.51338   0.08391   0.09152   0.00000  Uiso   1.00
C74    C     0.98663   0.24905   0.24204   0.00000  Uiso   1.00
C75    C     0.76010   0.01396   0.14940   0.00000  Uiso   1.00
C76    C     0.73983   0.31966   0.18505   0.00000  Uiso   1.00
C77    C     0.66458   0.16610   0.16685   0.00000  Uiso   1.00
C78    C     0.83542   0.16714   0.16649   0.00000  Uiso   1.00
C79    C     0.91142   0.20722   0.20498   0.00000  Uiso   1.00
C80    C     0.58859   0.12592   0.12834   0.00000  Uiso   1.00
C81    C     0.88364   0.16742   0.16598   0.00000  Uiso   1.00
C82    C     0.61636   0.16568   0.16743   0.00000  Uiso   1.00
C83    C     0.90175   0.12779   0.12667   0.00000  Uiso   1.00
C84    C     0.59825   0.20508   0.20704   0.00000  Uiso   1.00
C85    C     0.94824   0.12660   0.12752   0.00000  Uiso   1.00
C86    C     0.55177   0.20628   0.20616   0.00000  Uiso   1.00
C87    C     0.97660   0.16685   0.16658   0.00000  Uiso   1.00
C88    C     0.52340   0.16609   0.16701   0.00000  Uiso   1.00
C89    C     0.95812   0.20796   0.20496   0.00000  Uiso   1.00
C90    C     0.54190   0.12504   0.12854   0.00000  Uiso   1.00
C91    C     0.96668   0.08559   0.09035   0.00000  Uiso   1.00
C92    C     0.53333   0.24727   0.24337   0.00000  Uiso   1.00
Cu93   Cu    0.75500   0.17246   0.22813   0.00000  Uiso   1.00
Cu94   Cu    0.74499   0.16087   0.10521   0.00000  Uiso   1.00
H95    H     0.89638   0.23789   0.23441   0.00000  Uiso   1.00
H96    H     0.60364   0.09538   0.09874   0.00000  Uiso   1.00
H97    H     0.87958   0.09724   0.09666   0.00000  Uiso   1.00
H98    H     0.62040   0.23547   0.23729   0.00000  Uiso   1.00
H99    H     0.94491   0.05449   0.06070   0.00000  Uiso   1.00
H100   H     0.55512   0.27832   0.27308   0.00000  Uiso   1.00
N101   N     0.73744   0.15214   0.01284   0.00000  Uiso   1.00
N102   N     0.76255   0.18119   0.32049   0.00000  Uiso   1.00
O103   O     0.75325   0.09538   0.20659   0.00000  Uiso   1.00
O104   O     0.74674   0.23796   0.12674   0.00000  Uiso   1.00
O105   O     0.74480   0.08559   0.10279   0.00000  Uiso   1.00
O106   O     0.75520   0.24774   0.23055   0.00000  Uiso   1.00
O107   O     0.68935   0.17155   0.21857   0.00000  Uiso   1.00
O108   O     0.81064   0.16179   0.11476   0.00000  Uiso   1.00
O109   O     0.68090   0.16176   0.11477   0.00000  Uiso   1.00
O110   O     0.81910   0.17157   0.21857   0.00000  Uiso   1.00
O111   O     0.53102   0.04309   0.05452   0.00000  Uiso   1.00
C112   C     0.53153   0.33306   0.08375   0.00000  Uiso   1.00
H113   H     0.99679   0.31784   0.08854   0.00000  Uiso   1.00
H114   H     0.55187   0.00973   0.12898   0.00000  Uiso   1.00
H115   H     0.54742   0.30097   0.05547   0.00000  Uiso   1.00
O116   O     0.96900   0.28991   0.27899   0.00000  Uiso   1.00
C117   C     0.96882   0.00005   0.24994   0.00000  Uiso   1.00
H118   H     0.94873   0.32353   0.20452   0.00000  Uiso   1.00
H119   H     0.50367   0.01521   0.24559   0.00000  Uiso   1.00
H120   H     0.95283   0.03212   0.27810   0.00000  Uiso   1.00
O121   O     0.79506   0.32855   0.11750   0.00000  Uiso   1.00
C122   C     0.83583   0.00860   0.15611   0.00000  Uiso   1.00
H123   H     0.83717   0.31966   0.19366   0.00000  Uiso   1.00
H124   H     0.84098   0.05155   0.17505   0.00000  Uiso   1.00
H125   H     0.86444   0.33133   0.12959   0.00000  Uiso   1.00
O126   O     0.70740   0.00648   0.22118   0.00000  Uiso   1.00
C127   C     0.66475   0.32738   0.18710   0.00000  Uiso   1.00
H128   H     0.65896   0.28491   0.16581   0.00000  Uiso   1.00
H129   H     0.66052   0.01832   0.15164   0.00000  Uiso   1.00
H130   H     0.63828   0.00298   0.21791   0.00000  Uiso   1.00
O131   O     0.71204   0.11399   0.30613   0.00000  Uiso   1.00
C132   C     0.67028   0.10656   0.32773   0.00000  Uiso   1.00
H133   H     0.64705   0.08227   0.29042   0.00000  Uiso   1.00
H134   H     0.65470   0.14441   0.00675   0.00000  Uiso   1.00
H135   H     0.67318   0.08446   0.03184   0.00000  Uiso   1.00
O136   O     0.79765   0.20719   0.02512   0.00000  Uiso   1.00
C137   C     0.81103   0.25303   0.00537   0.00000  Uiso   1.00
H138   H     0.83898   0.27423   0.03807   0.00000  Uiso   1.00
H139   H     0.78310   0.27931   0.00464   0.00000  Uiso   1.00
H140   H     0.82543   0.24497   0.29510   0.00000  Uiso   1.00
C141   C     0.25069   0.40070   0.15245   0.00000  Uiso   1.00
C142   C     0.24892   0.59930   0.18107   0.00000  Uiso   1.00
C143   C     0.01338   0.41725   0.09152   0.00000  Uiso   1.00
C144   C     0.48663   0.58239   0.24204   0.00000  Uiso   1.00
C145   C     0.26010   0.34729   0.14940   0.00000  Uiso   1.00
C146   C     0.23983   0.65299   0.18505   0.00000  Uiso   1.00
C147   C     0.16458   0.49944   0.16685   0.00000  Uiso   1.00
C148   C     0.33542   0.50048   0.16649   0.00000  Uiso   1.00
C149   C     0.41142   0.54056   0.20498   0.00000  Uiso   1.00
C150   C     0.08859   0.45925   0.12834   0.00000  Uiso   1.00
C151   C     0.38364   0.50075   0.16598   0.00000  Uiso   1.00
C152   C     0.11636   0.49901   0.16743   0.00000  Uiso   1.00
C153   C     0.40175   0.46112   0.12667   0.00000  Uiso   1.00
C154   C     0.09825   0.53841   0.20704   0.00000  Uiso   1.00
C155   C     0.44824   0.45993   0.12752   0.00000  Uiso   1.00
C156   C     0.05177   0.53961   0.20616   0.00000  Uiso   1.00
C157   C     0.47660   0.50018   0.16658   0.00000  Uiso   1.00
C158   C     0.02340   0.49942   0.16701   0.00000  Uiso   1.00
C159   C     0.45812   0.54130   0.20496   0.00000  Uiso   1.00
C160   C     0.04190   0.45838   0.12854   0.00000  Uiso   1.00
C161   C     0.46668   0.41893   0.09035   0.00000  Uiso   1.00
C162   C     0.03333   0.58060   0.24337   0.00000  Uiso   1.00
Cu163  Cu    0.25500   0.50579   0.22813   0.00000  Uiso   1.00
Cu164  Cu    0.24499   0.49421   0.10521   0.00000  Uiso   1.00
H165   H     0.39638   0.57122   0.23441   0.00000  Uiso   1.00
H166   H     0.10364   0.42871   0.09874   0.00000  Uiso   1.00
H167   H     0.37958   0.43057   0.09666   0.00000  Uiso   1.00
H168   H     0.12040   0.56880   0.23729   0.00000  Uiso   1.00
H169   H     0.44491   0.38782   0.06070   0.00000  Uiso   1.00
H170   H     0.05512   0.61165   0.27308   0.00000  Uiso   1.00
N171   N     0.23744   0.48547   0.01284   0.00000  Uiso   1.00
N172   N     0.26255   0.51453   0.32049   0.00000  Uiso   1.00
O173   O     0.25325   0.42871   0.20659   0.00000  Uiso   1.00
O174   O     0.24674   0.57129   0.12674   0.00000  Uiso   1.00
O175   O     0.24480   0.41892   0.10279   0.00000  Uiso   1.00
O176   O     0.25520   0.58108   0.23055   0.00000  Uiso   1.00
O177   O     0.18935   0.50488   0.21857   0.00000  Uiso   1.00
O178   O     0.31064   0.49512   0.11476   0.00000  Uiso   1.00
O179   O     0.18090   0.49510   0.11477   0.00000  Uiso   1.00
O180   O     0.31910   0.50490   0.21857   0.00000  Uiso   1.00
O181   O     0.03102   0.37642   0.05452   0.00000  Uiso   1.00
C182   C     0.03153   0.66639   0.08375   0.00000  Uiso   1.00
H183   H     0.49679   0.65118   0.08854   0.00000  Uiso   1.00
H184   H     0.05187   0.34307   0.12898   0.00000  Uiso   1.00
H185   H     0.04742   0.63430   0.05547   0.00000  Uiso   1.00
O186   O     0.46900   0.62324   0.27899   0.00000  Uiso   1.00
C187   C     0.46882   0.33338   0.24994   0.00000  Uiso   1.00
H188   H     0.44873   0.65686   0.20452   0.00000  Uiso   1.00
H189   H     0.00367   0.34854   0.24559   0.00000  Uiso   1.00
H190   H     0.45283   0.36546   0.27810   0.00000  Uiso   1.00
O191   O     0.29506   0.66188   0.11750   0.00000  Uiso   1.00
C192   C     0.33583   0.34194   0.15611   0.00000  Uiso   1.00
H193   H     0.33717   0.65300   0.19366   0.00000  Uiso   1.00
H194   H     0.34098   0.38488   0.17505   0.00000  Uiso   1.00
H195   H     0.36444   0.66466   0.12959   0.00000  Uiso   1.00
O196   O     0.20740   0.33981   0.22118   0.00000  Uiso   1.00
C197   C     0.16475   0.66071   0.18710   0.00000  Uiso   1.00
H198   H     0.15896   0.61824   0.16581   0.00000  Uiso   1.00
H199   H     0.16052   0.35165   0.15164   0.00000  Uiso   1.00
H200   H     0.13828   0.33632   0.21791   0.00000  Uiso   1.00
O201   O     0.21204   0.44732   0.30613   0.00000  Uiso   1.00
C202   C     0.17028   0.43990   0.32773   0.00000  Uiso   1.00
H203   H     0.14705   0.41560   0.29042   0.00000  Uiso   1.00
H204   H     0.15470   0.47775   0.00675   0.00000  Uiso   1.00
H205   H     0.17318   0.41779   0.03184   0.00000  Uiso   1.00
O206   O     0.29765   0.54052   0.02512   0.00000  Uiso   1.00
C207   C     0.31103   0.58637   0.00537   0.00000  Uiso   1.00
H208   H     0.33898   0.60756   0.03807   0.00000  Uiso   1.00
H209   H     0.28310   0.61264   0.00464   0.00000  Uiso   1.00
H210   H     0.32543   0.57830   0.29510   0.00000  Uiso   1.00
C211   C     0.75069   0.40070   0.15245   0.00000  Uiso   1.00
C212   C     0.74892   0.59930   0.18107   0.00000  Uiso   1.00
C213   C     0.51338   0.41725   0.09152   0.00000  Uiso   1.00
C214   C     0.98663   0.58239   0.24204   0.00000  Uiso   1.00
C215   C     0.76010   0.34729   0.14940   0.00000  Uiso   1.00
C216   C     0.73983   0.65299   0.18505   0.00000  Uiso   1.00
C217   C     0.66458   0.49944   0.16685   0.00000  Uiso   1.00
C218   C     0.83542   0.50048   0.16649   0.00000  Uiso   1.00
C219   C     0.91142   0.54056   0.20498   0.00000  Uiso   1.00
C220   C     0.58859   0.45925   0.12834   0.00000  Uiso   1.00
C221   C     0.88364   0.50075   0.16598   0.00000  Uiso   1.00
C222   C     0.61636   0.49901   0.16743   0.00000  Uiso   1.00
C223   C     0.90175   0.46112   0.12667   0.00000  Uiso   1.00
C224   C     0.59825   0.53841   0.20704   0.00000  Uiso   1.00
C225   C     0.94824   0.45993   0.12752   0.00000  Uiso   1.00
C226   C     0.55177   0.53961   0.20616   0.00000  Uiso   1.00
C227   C     0.97660   0.50018   0.16658   0.00000  Uiso   1.00
C228   C     0.52340   0.49942   0.16701   0.00000  Uiso   1.00
C229   C     0.95812   0.54130   0.20496   0.00000  Uiso   1.00
C230   C     0.54190   0.45838   0.12854   0.00000  Uiso   1.00
C231   C     0.96668   0.41893   0.09035   0.00000  Uiso   1.00
C232   C     0.53333   0.58060   0.24337   0.00000  Uiso   1.00
Cu233  Cu    0.75500   0.50579   0.22813   0.00000  Uiso   1.00
Cu234  Cu    0.74499   0.49421   0.10521   0.00000  Uiso   1.00
H235   H     0.89638   0.57122   0.23441   0.00000  Uiso   1.00
H236   H     0.60364   0.42871   0.09874   0.00000  Uiso   1.00
H237   H     0.87958   0.43057   0.09666   0.00000  Uiso   1.00
H238   H     0.62040   0.56880   0.23729   0.00000  Uiso   1.00
H239   H     0.94491   0.38782   0.06070   0.00000  Uiso   1.00
H240   H     0.55512   0.61165   0.27308   0.00000  Uiso   1.00
N241   N     0.73744   0.48547   0.01284   0.00000  Uiso   1.00
N242   N     0.76255   0.51453   0.32049   0.00000  Uiso   1.00
O243   O     0.75325   0.42871   0.20659   0.00000  Uiso   1.00
O244   O     0.74674   0.57129   0.12674   0.00000  Uiso   1.00
O245   O     0.74480   0.41892   0.10279   0.00000  Uiso   1.00
O246   O     0.75520   0.58108   0.23055   0.00000  Uiso   1.00
O247   O     0.68935   0.50488   0.21857   0.00000  Uiso   1.00
O248   O     0.81064   0.49512   0.11476   0.00000  Uiso   1.00
O249   O     0.68090   0.49510   0.11477   0.00000  Uiso   1.00
O250   O     0.81910   0.50490   0.21857   0.00000  Uiso   1.00
O251   O     0.53102   0.37642   0.05452   0.00000  Uiso   1.00
C252   C     0.53153   0.66639   0.08375   0.00000  Uiso   1.00
H253   H     0.99679   0.65118   0.08854   0.00000  Uiso   1.00
H254   H     0.55187   0.34307   0.12898   0.00000  Uiso   1.00
H255   H     0.54742   0.63430   0.05547   0.00000  Uiso   1.00
O256   O     0.96900   0.62324   0.27899   0.00000  Uiso   1.00
C257   C     0.96882   0.33338   0.24994   0.00000  Uiso   1.00
H258   H     0.94873   0.65686   0.20452   0.00000  Uiso   1.00
H259   H     0.50367   0.34854   0.24559   0.00000  Uiso   1.00
H260   H     0.95283   0.36546   0.27810   0.00000  Uiso   1.00
O261   O     0.79506   0.66188   0.11750   0.00000  Uiso   1.00
C262   C     0.83583   0.34194   0.15611   0.00000  Uiso   1.00
H263   H     0.83717   0.65300   0.19366   0.00000  Uiso   1.00
H264   H     0.84098   0.38488   0.17505   0.00000  Uiso   1.00
H265   H     0.86444   0.66466   0.12959   0.00000  Uiso   1.00
O266   O     0.70740   0.33981   0.22118   0.00000  Uiso   1.00
C267   C     0.66475   0.66071   0.18710   0.00000  Uiso   1.00
H268   H     0.65896   0.61824   0.16581   0.00000  Uiso   1.00
H269   H     0.66052   0.35165   0.15164   0.00000  Uiso   1.00
H270   H     0.63828   0.33632   0.21791   0.00000  Uiso   1.00
O271   O     0.71204   0.44732   0.30613   0.00000  Uiso   1.00
C272   C     0.67028   0.43990   0.32773   0.00000  Uiso   1.00
H273   H     0.64705   0.41560   0.29042   0.00000  Uiso   1.00
H274   H     0.65470   0.47775   0.00675   0.00000  Uiso   1.00
H275   H     0.67318   0.41779   0.03184   0.00000  Uiso   1.00
O276   O     0.79765   0.54052   0.02512   0.00000  Uiso   1.00
C277   C     0.81103   0.58637   0.00537   0.00000  Uiso   1.00
H278   H     0.83898   0.60756   0.03807   0.00000  Uiso   1.00
H279   H     0.78310   0.61264   0.00464   0.00000  Uiso   1.00
H280   H     0.82543   0.57830   0.29510   0.00000  Uiso   1.00
C281   C     0.25069   0.73403   0.15245   0.00000  Uiso   1.00
C282   C     0.24892   0.93263   0.18107   0.00000  Uiso   1.00
C283   C     0.01338   0.75058   0.09152   0.00000  Uiso   1.00
C284   C     0.48663   0.91572   0.24204   0.00000  Uiso   1.00
C285   C     0.26010   0.68062   0.14940   0.00000  Uiso   1.00
C286   C     0.23983   0.98632   0.18505   0.00000  Uiso   1.00
C287   C     0.16458   0.83277   0.16685   0.00000  Uiso   1.00
C288   C     0.33542   0.83381   0.16649   0.00000  Uiso   1.00
C289   C     0.41142   0.87389   0.20498   0.00000  Uiso   1.00
C290   C     0.08859   0.79259   0.12834   0.00000  Uiso   1.00
C291   C     0.38364   0.83409   0.16598   0.00000  Uiso   1.00
C292   C     0.11636   0.83235   0.16743   0.00000  Uiso   1.00
C293   C     0.40175   0.79445   0.12667   0.00000  Uiso   1.00
C294   C     0.09825   0.87174   0.20704   0.00000  Uiso   1.00
C295   C     0.44824   0.79326   0.12752   0.00000  Uiso   1.00
C296   C     0.05177   0.87294   0.20616   0.00000  Uiso   1.00
C297   C     0.47660   0.83352   0.16658   0.00000  Uiso   1.00
C298   C     0.02340   0.83275   0.16701   0.00000  Uiso   1.00
C299   C     0.45812   0.87463   0.20496   0.00000  Uiso   1.00
C300   C     0.04190   0.79171   0.12854   0.00000  Uiso   1.00
C301   C     0.46668   0.75226   0.09035   0.00000  Uiso   1.00
C302   C     0.03333   0.91393   0.24337   0.00000  Uiso   1.00
Cu303  Cu    0.25500   0.83913   0.22813   0.00000  Uiso   1.00
Cu304  Cu    0.24499   0.82754   0.10521   0.00000  Uiso   1.00
H305   H     0.39638   0.90456   0.23441   0.00000  Uiso   1.00
H306   H     0.10364   0.76204   0.09874   0.00000  Uiso   1.00
H307   H     0.37958   0.76390   0.09666   0.00000  Uiso   1.00
H308   H     0.12040   0.90214   0.23729   0.00000  Uiso   1.00
H309   H     0.44491   0.72116   0.06070   0.00000  Uiso   1.00
H310   H     0.05512   0.94499   0.27308   0.00000  Uiso   1.00
N311   N     0.23744   0.81881   0.01284   0.00000  Uiso   1.00
N312   N     0.26255   0.84786   0.32049   0.00000  Uiso   1.00
O313   O     0.25325   0.76204   0.20659   0.00000  Uiso   1.00
O314   O     0.24674   0.90462   0.12674   0.00000  Uiso   1.00
O315   O     0.24480   0.75226   0.10279   0.00000  Uiso   1.00
O316   O     0.25520   0.91441   0.23055   0.00000  Uiso   1.00
O317   O     0.18935   0.83821   0.21857   0.00000  Uiso   1.00
O318   O     0.31064   0.82845   0.11476   0.00000  Uiso   1.00
O319   O     0.18090   0.82843   0.11477   0.00000  Uiso   1.00
O320   O     0.31910   0.83824   0.21857   0.00000  Uiso   1.00
O321   O     0.03102   0.70975   0.05452   0.00000  Uiso   1.00
C322   C     0.03153   0.99973   0.08375   0.00000  Uiso   1.00
H323   H     0.49679   0.98451   0.08854   0.00000  Uiso   1.00
H324   H     0.05187   0.67640   0.12898   0.00000  Uiso   1.00
H325   H     0.04742   0.96763   0.05547   0.00000  Uiso   1.00
O326   O     0.46900   0.95658   0.27899   0.00000  Uiso   1.00
C327   C     0.46882   0.66671   0.24994   0.00000  Uiso   1.00
H328   H     0.44873   0.99020   0.20452   0.00000  Uiso   1.00
H329   H     0.00367   0.68187   0.24559   0.00000  Uiso   1.00
H330   H     0.45283   0.69879   0.27810   0.00000  Uiso   1.00
O331   O     0.29506   0.99521   0.11750   0.00000  Uiso   1.00
C332   C     0.33583   0.67527   0.15611   0.00000  Uiso   1.00
H333   H     0.33717   0.98633   0.19366   0.00000  Uiso   1.00
H334   H     0.34098   0.71822   0.17505   0.00000  Uiso   1.00
H335   H     0.36444   0.99800   0.12959   0.00000  Uiso   1.00
O336   O     0.20740   0.67315   0.22118   0.00000  Uiso   1.00
C337   C     0.16475   0.99405   0.18710   0.00000  Uiso   1.00
H338   H     0.15896   0.95157   0.16581   0.00000  Uiso   1.00
H339   H     0.16052   0.68499   0.15164   0.00000  Uiso   1.00
H340   H     0.13828   0.66965   0.21791   0.00000  Uiso   1.00
O341   O     0.21204   0.78066   0.30613   0.00000  Uiso   1.00
C342   C     0.17028   0.77323   0.32773   0.00000  Uiso   1.00
H343   H     0.14705   0.74893   0.29042   0.00000  Uiso   1.00
H344   H     0.15470   0.81108   0.00675   0.00000  Uiso   1.00
H345   H     0.17318   0.75113   0.03184   0.00000  Uiso   1.00
O346   O     0.29765   0.87385   0.02512   0.00000  Uiso   1.00
C347   C     0.31103   0.91970   0.00537   0.00000  Uiso   1.00
H348   H     0.33898   0.94089   0.03807   0.00000  Uiso   1.00
H349   H     0.28310   0.94597   0.00464   0.00000  Uiso   1.00
H350   H     0.32543   0.91163   0.29510   0.00000  Uiso   1.00
C351   C     0.75069   0.73403   0.15245   0.00000  Uiso   1.00
C352   C     0.74892   0.93263   0.18107   0.00000  Uiso   1.00
C353   C     0.51338   0.75058   0.09152   0.00000  Uiso   1.00
C354   C     0.98663   0.91572   0.24204   0.00000  Uiso   1.00
C355   C     0.76010   0.68062   0.14940   0.00000  Uiso   1.00
C356   C     0.73983   0.98632   0.18505   0.00000  Uiso   1.00
C357   C     0.66458   0.83277   0.16685   0.00000  Uiso   1.00
C358   C     0.83542   0.83381   0.16649   0.00000  Uiso   1.00
C359   C     0.91142   0.87389   0.20498   0.00000  Uiso   1.00
C360   C     0.58859   0.79259   0.12834   0.00000  Uiso   1.00
C361   C     0.88364   0.83409   0.16598   0.00000  Uiso   1.00
C362   C     0.61636   0.83235   0.16743   0.00000  Uiso   1.00
C363   C     0.90175   0.79445   0.12667   0.00000  Uiso   1.00
C364   C     0.59825   0.87174   0.20704   0.00000  Uiso   1.00
C365   C     0.94824   0.79326   0.12752   0.00000  Uiso   1.00
C366   C     0.55177   0.87294   0.20616   0.00000  Uiso   1.00
C367   C     0.97660   0.83352   0.16658   0.00000  Uiso   1.00
C368   C     0.52340   0.83275   0.16701   0.00000  Uiso   1.00
C369   C     0.95812   0.87463   0.20496   0.00000  Uiso   1.00
C370   C     0.54190   0.79171   0.12854   0.00000  Uiso   1.00
C371   C     0.96668   0.75226   0.09035   0.00000  Uiso   1.00
C372   C     0.53333   0.91393   0.24337   0.00000  Uiso   1.00
Cu373  Cu    0.75500   0.83913   0.22813   0.00000  Uiso   1.00
Cu374  Cu    0.74499   0.82754   0.10521   0.00000  Uiso   1.00
H375   H     0.89638   0.90456   0.23441   0.00000  Uiso   1.00
H376   H     0.60364   0.76204   0.09874   0.00000  Uiso   1.00
H377   H     0.87958   0.76390   0.09666   0.00000  Uiso   1.00
H378   H     0.62040   0.90214   0.23729   0.00000  Uiso   1.00
H379   H     0.94491   0.72116   0.06070   0.00000  Uiso   1.00
H380   H     0.55512   0.94499   0.27308   0.00000  Uiso   1.00
N381   N     0.73744   0.81881   0.01284   0.00000  Uiso   1.00
N382   N     0.76255   0.84786   0.32049   0.00000  Uiso   1.00
O383   O     0.75325   0.76204   0.20659   0.00000  Uiso   1.00
O384   O     0.74674   0.90462   0.12674   0.00000  Uiso   1.00
O385   O     0.74480   0.75226   0.10279   0.00000  Uiso   1.00
O386   O     0.75520   0.91441   0.23055   0.00000  Uiso   1.00
O387   O     0.68935   0.83821   0.21857   0.00000  Uiso   1.00
O388   O     0.81064   0.82845   0.11476   0.00000  Uiso   1.00
O389   O     0.68090   0.82843   0.11477   0.00000  Uiso   1.00
O390   O     0.81910   0.83824   0.21857   0.00000  Uiso   1.00
O391   O     0.53102   0.70975   0.05452   0.00000  Uiso   1.00
C392   C     0.53153   0.99973   0.08375   0.00000  Uiso   1.00
H393   H     0.99679   0.98451   0.08854   0.00000  Uiso   1.00
H394   H     0.55187   0.67640   0.12898   0.00000  Uiso   1.00
H395   H     0.54742   0.96763   0.05547   0.00000  Uiso   1.00
O396   O     0.96900   0.95658   0.27899   0.00000  Uiso   1.00
C397   C     0.96882   0.66671   0.24994   0.00000  Uiso   1.00
H398   H     0.94873   0.99020   0.20452   0.00000  Uiso   1.00
H399   H     0.50367   0.68187   0.24559   0.00000  Uiso   1.00
H400   H     0.95283   0.69879   0.27810   0.00000  Uiso   1.00
O401   O     0.79506   0.99521   0.11750   0.00000  Uiso   1.00
C402   C     0.83583   0.67527   0.15611   0.00000  Uiso   1.00
H403   H     0.83717   0.98633   0.19366   0.00000  Uiso   1.00
H404   H     0.84098   0.71822   0.17505   0.00000  Uiso   1.00
H405   H     0.86444   0.99800   0.12959   0.00000  Uiso   1.00
O406   O     0.70740   0.67315   0.22118   0.00000  Uiso   1.00
C407   C     0.66475   0.99405   0.18710   0.00000  Uiso   1.00
H408   H     0.65896   0.95157   0.16581   0.00000  Uiso   1.00
H409   H     0.66052   0.68499   0.15164   0.00000  Uiso   1.00
H410   H     0.63828   0.66965   0.21791   0.00000  Uiso   1.00
O411   O     0.71204   0.78066   0.30613   0.00000  Uiso   1.00
C412   C     0.67028   0.77323   0.32773   0.00000  Uiso   1.00
H413   H     0.64705   0.74893   0.29042   0.00000  Uiso   1.00
H414   H     0.65470   0.81108   0.00675   0.00000  Uiso   1.00
H415   H     0.67318   0.75113   0.03184   0.00000  Uiso   1.00
O416   O     0.79765   0.87385   0.02512   0.00000  Uiso   1.00
C417   C     0.81103   0.91970   0.00537   0.00000  Uiso   1.00
H418   H     0.83898   0.94089   0.03807   0.00000  Uiso   1.00
H419   H     0.78310   0.94597   0.00464   0.00000  Uiso   1.00
H420   H     0.82543   0.91163   0.29510   0.00000  Uiso   1.00
C421   C     0.25069   0.06736   0.48578   0.00000  Uiso   1.00
C422   C     0.24892   0.26596   0.51440   0.00000  Uiso   1.00
C423   C     0.01338   0.08391   0.42485   0.00000  Uiso   1.00
C424   C     0.48663   0.24905   0.57538   0.00000  Uiso   1.00
C425   C     0.26010   0.01396   0.48273   0.00000  Uiso   1.00
C426   C     0.23983   0.31966   0.51838   0.00000  Uiso   1.00
C427   C     0.16458   0.16610   0.50018   0.00000  Uiso   1.00
C428   C     0.33542   0.16714   0.49982   0.00000  Uiso   1.00
C429   C     0.41142   0.20722   0.53831   0.00000  Uiso   1.00
C430   C     0.08859   0.12592   0.46167   0.00000  Uiso   1.00
C431   C     0.38364   0.16742   0.49931   0.00000  Uiso   1.00
C432   C     0.11636   0.16568   0.50076   0.00000  Uiso   1.00
C433   C     0.40175   0.12779   0.46001   0.00000  Uiso   1.00
C434   C     0.09825   0.20508   0.54037   0.00000  Uiso   1.00
C435   C     0.44824   0.12660   0.46086   0.00000  Uiso   1.00
C436   C     0.05177   0.20628   0.53949   0.00000  Uiso   1.00
C437   C     0.47660   0.16685   0.49991   0.00000  Uiso   1.00
C438   C     0.02340   0.16609   0.50035   0.00000  Uiso   1.00
C439   C     0.45812   0.20796   0.53829   0.00000  Uiso   1.00
C440   C     0.04190   0.12504   0.46187   0.00000  Uiso   1.00
C441   C     0.46668   0.08559   0.42368   0.00000  Uiso   1.00
C442   C     0.03333   0.24727   0.57670   0.00000  Uiso   1.00
Cu443  Cu    0.25500   0.17246   0.56146   0.00000  Uiso   1.00
Cu444  Cu    0.24499   0.16087   0.43854   0.00000  Uiso   1.00
H445   H     0.39638   0.23789   0.56774   0.00000  Uiso   1.00
H446   H     0.10364   0.09538   0.43207   0.00000  Uiso   1.00
H447   H     0.37958   0.09724   0.42999   0.00000  Uiso   1.00
H448   H     0.12040   0.23547   0.57063   0.00000  Uiso   1.00
H449   H     0.44491   0.05449   0.39404   0.00000  Uiso   1.00
H450   H     0.05512   0.27832   0.60641   0.00000  Uiso   1.00
N451   N     0.23744   0.15214   0.34617   0.00000  Uiso   1.00
N452   N     0.26255   0.18119   0.65383   0.00000  Uiso   1.00
O453   O     0.25325   0.09538   0.53992   0.00000  Uiso   1.00
O454   O     0.24674   0.23796   0.46008   0.00000  Uiso   1.00
O455   O     0.24480   0.08559   0.43612   0.00000  Uiso   1.00
O456   O     0.25520   0.24774   0.56388   0.00000  Uiso   1.00
O457   O     0.18935   0.17155   0.55191   0.00000  Uiso   1.00
O458   O     0.31064   0.16179   0.44809   0.00000  Uiso   1.00
O459   O     0.18090   0.16176   0.44810   0.00000  Uiso   1.00
O460   O     0.31910   0.17157   0.55190   0.00000  Uiso   1.00
O461   O     0.03102   0.04309   0.38786   0.00000  Uiso   1.00
C462   C     0.03153   0.33306   0.41708   0.00000  Uiso   1.00
H463   H     0.49679   0.31784   0.42187   0.00000  Uiso   1.00
H464   H     0.05187   0.00973   0.46231   0.00000  Uiso   1.00
H465   H     0.04742   0.30097   0.38881   0.00000  Uiso   1.00
O466   O     0.46900   0.28991   0.61233   0.00000  Uiso   1.00
C467   C     0.46882   0.00005   0.58328   0.00000  Uiso   1.00
H468   H     0.44873   0.32353   0.53786   0.00000  Uiso   1.00
H469   H     0.00367   0.01521   0.57892   0.00000  Uiso   1.00
H470   H     0.45283   0.03212   0.61144   0.00000  Uiso   1.00
O471   O     0.29506   0.32855   0.45083   0.00000  Uiso   1.00
C472   C     0.33583   0.00860   0.48944   0.00000  Uiso   1.00
H473   H     0.33717   0.31966   0.52699   0.00000  Uiso   1.00
H474   H     0.34098   0.05155   0.50838   0.00000  Uiso   1.00
H475   H     0.36444   0.33133   0.46292   0.00000  Uiso   1.00
O476   O     0.20740   0.00648   0.55451   0.00000  Uiso   1.00
C477   C     0.16475   0.32738   0.52043   0.00000  Uiso   1.00
H478   H     0.15896   0.28491   0.49914   0.00000  Uiso   1.00
H479   H     0.16052   0.01832   0.48497   0.00000  Uiso   1.00
H480   H     0.13828   0.00298   0.55124   0.00000  Uiso   1.00
O481   O     0.21204   0.11399   0.63946   0.00000  Uiso   1.00
C482   C     0.17028   0.10656   0.66106   0.00000  Uiso   1.00
H483   H     0.14705   0.08227   0.62376   0.00000  Uiso   1.00
H484   H     0.15470   0.14441   0.34008   0.00000  Uiso   1.00
H485   H     0.17318   0.08446   0.36517   0.00000  Uiso   1.00
O486   O     0.29765   0.20719   0.35846   0.00000  Uiso   1.00
C487   C     0.31103   0.25303   0.33870   0.00000  Uiso   1.00
H488   H     0.33898   0.27423   0.37141   0.00000  Uiso   1.00
H489   H     0.28310   0.27931   0.33797   0.00000  Uiso   1.00
H490   H     0.32543   0.24497   0.62843   0.00000  Uiso   1.00
C491   C     0.75069   0.06736   0.48578   0.00000  Uiso   1.00
C492   C     0.74892   0.26596   0.51440   0.00000  Uiso   1.00
C493   C     0.51338   0.08391   0.42485   0.00000  Uiso   1.00
C494   C     0.98663   0.24905   0.57538   0.00000  Uiso   1.00
C495   C     0.76010   0.01396   0.48273   0.00000  Uiso   1.00
C496   C     0.73983   0.31966   0.51838   0.00000  Uiso   1.00
C497   C     0.66458   0.16610   0.50018   0.00000  Uiso   1.00
C498   C     0.83542   0.16714   0.49982   0.00000  Uiso   1.00
C499   C     0.91142   0.20722   0.53831   0.00000  Uiso   1.00
C500   C     0.58859   0.12592   0.46167   0.00000  Uiso   1.00
C501   C     0.88364   0.16742   0.49931   0.00000  Uiso   1.00
C502   C     0.61636   0.16568   0.50076   0.00000  Uiso   1.00
C503   C     0.90175   0.12779   0.46001   0.00000  Uiso   1.00
C504   C     0.59825   0.20508   0.54037   0.00000  Uiso   1.00
C505   C     0.94824   0.12660   0.46086   0.00000  Uiso   1.00
C506   C     0.55177   0.20628   0.53949   0.00000  Uiso   1.00
C507   C     0.97660   0.16685   0.49991   0.00000  Uiso   1.00
C508   C     0.52340   0.16609   0.50035   0.00000  Uiso   1.00
C509   C     0.95812   0.20796   0.53829   0.00000  Uiso   1.00
C510   C     0.54190   0.12504   0.46187   0.00000  Uiso   1.00
C511   C     0.96668   0.08559   0.42368   0.00000  Uiso   1.00
C512   C     0.53333   0.24727   0.57670   0.00000  Uiso   1.00
Cu513  Cu    0.75500   0.17246   0.56146   0.00000  Uiso   1.00
Cu514  Cu    0.74499   0.16087   0.43854   0.00000  Uiso   1.00
H515   H     0.89638   0.23789   0.56774   0.00000  Uiso   1.00
H516   H     0.60364   0.09538   0.43207   0.00000  Uiso   1.00
H517   H     0.87958   0.09724   0.42999   0.00000  Uiso   1.00
H518   H     0.62040   0.23547   0.57063   0.00000  Uiso   1.00
H519   H     0.94491   0.05449   0.39404   0.00000  Uiso   1.00
H520   H     0.55512   0.27832   0.60641   0.00000  Uiso   1.00
N521   N     0.73744   0.15214   0.34617   0.00000  Uiso   1.00
N522   N     0.76255   0.18119   0.65383   0.00000  Uiso   1.00
O523   O     0.75325   0.09538   0.53992   0.00000  Uiso   1.00
O524   O     0.74674   0.23796   0.46008   0.00000  Uiso   1.00
O525   O     0.74480   0.08559   0.43612   0.00000  Uiso   1.00
O526   O     0.75520   0.24774   0.56388   0.00000  Uiso   1.00
O527   O     0.68935   0.17155   0.55191   0.00000  Uiso   1.00
O528   O     0.81064   0.16179   0.44809   0.00000  Uiso   1.00
O529   O     0.68090   0.16176   0.44810   0.00000  Uiso   1.00
O530   O     0.81910   0.17157   0.55190   0.00000  Uiso   1.00
O531   O     0.53102   0.04309   0.38786   0.00000  Uiso   1.00
C532   C     0.53153   0.33306   0.41708   0.00000  Uiso   1.00
H533   H     0.99679   0.31784   0.42187   0.00000  Uiso   1.00
H534   H     0.55187   0.00973   0.46231   0.00000  Uiso   1.00
H535   H     0.54742   0.30097   0.38881   0.00000  Uiso   1.00
O536   O     0.96900   0.28991   0.61233   0.00000  Uiso   1.00
C537   C     0.96882   0.00005   0.58328   0.00000  Uiso   1.00
H538   H     0.94873   0.32353   0.53786   0.00000  Uiso   1.00
H539   H     0.50367   0.01521   0.57892   0.00000  Uiso   1.00
H540   H     0.95283   0.03212   0.61144   0.00000  Uiso   1.00
O541   O     0.79506   0.32855   0.45083   0.00000  Uiso   1.00
C542   C     0.83583   0.00860   0.48944   0.00000  Uiso   1.00
H543   H     0.83717   0.31966   0.52699   0.00000  Uiso   1.00
H544   H     0.84098   0.05155   0.50838   0.00000  Uiso   1.00
H545   H     0.86444   0.33133   0.46292   0.00000  Uiso   1.00
O546   O     0.70740   0.00648   0.55451   0.00000  Uiso   1.00
C547   C     0.66475   0.32738   0.52043   0.00000  Uiso   1.00
H548   H     0.65896   0.28491   0.49914   0.00000  Uiso   1.00
H549   H     0.66052   0.01832   0.48497   0.00000  Uiso   1.00
H550   H     0.63828   0.00298   0.55124   0.00000  Uiso   1.00
O551   O     0.71204   0.11399   0.63946   0.00000  Uiso   1.00
C552   C     0.67028   0.10656   0.66106   0.00000  Uiso   1.00
H553   H     0.64705   0.08227   0.62376   0.00000  Uiso   1.00
H554   H     0.65470   0.14441   0.34008   0.00000  Uiso   1.00
H555   H     0.67318   0.08446   0.36517   0.00000  Uiso   1.00
O556   O     0.79765   0.20719   0.35846   0.00000  Uiso   1.00
C557   C     0.81103   0.25303   0.33870   0.00000  Uiso   1.00
H558   H     0.83898   0.27423   0.37141   0.00000  Uiso   1.00
H559   H     0.78310   0.27931   0.33797   0.00000  Uiso   1.00
H560   H     0.82543   0.24497   0.62843   0.00000  Uiso   1.00
C561   C     0.25069   0.40070   0.48578   0.00000  Uiso   1.00
C562   C     0.24892   0.59930   0.51440   0.00000  Uiso   1.00
C563   C     0.01338   0.41725   0.42485   0.00000  Uiso   1.00
C564   C     0.48663   0.58239   0.57538   0.00000  Uiso   1.00
C565   C     0.26010   0.34729   0.48273   0.00000  Uiso   1.00
C566   C     0.23983   0.65299   0.51838   0.00000  Uiso   1.00
C567   C     0.16458   0.49944   0.50018   0.00000  Uiso   1.00
C568   C     0.33542   0.50048   0.49982   0.00000  Uiso   1.00
C569   C     0.41142   0.54056   0.53831   0.00000  Uiso   1.00
C570   C     0.08859   0.45925   0.46167   0.00000  Uiso   1.00
C571   C     0.38364   0.50075   0.49931   0.00000  Uiso   1.00
C572   C     0.11636   0.49901   0.50076   0.00000  Uiso   1.00
C573   C     0.40175   0.46112   0.46001   0.00000  Uiso   1.00
C574   C     0.09825   0.53841   0.54037   0.00000  Uiso   1.00
C575   C     0.44824   0.45993   0.46086   0.00000  Uiso   1.00
C576   C     0.05177   0.53961   0.53949   0.00000  Uiso   1.00
C577   C     0.47660   0.50018   0.49991   0.00000  Uiso   1.00
C578   C     0.02340   0.49942   0.50035   0.00000  Uiso   1.00
C579   C     0.45812   0.54130   0.53829   0.00000  Uiso   1.00
C580   C     0.04190   0.45838   0.46187   0.00000  Uiso   1.00
C581   C     0.46668   0.41893   0.42368   0.00000  Uiso   1.00
C582   C     0.03333   0.58060   0.57670   0.00000  Uiso   1.00
Cu583  Cu    0.25500   0.50579   0.56146   0.00000  Uiso   1.00
Cu584  Cu    0.24499   0.49421   0.43854   0.00000  Uiso   1.00
H585   H     0.39638   0.57122   0.56774   0.00000  Uiso   1.00
H586   H     0.10364   0.42871   0.43207   0.00000  Uiso   1.00
H587   H     0.37958   0.43057   0.42999   0.00000  Uiso   1.00
H588   H     0.12040   0.56880   0.57063   0.00000  Uiso   1.00
H589   H     0.44491   0.38782   0.39404   0.00000  Uiso   1.00
H590   H     0.05512   0.61165   0.60641   0.00000  Uiso   1.00
N591   N     0.23744   0.48547   0.34617   0.00000  Uiso   1.00
N592   N     0.26255   0.51453   0.65383   0.00000  Uiso   1.00
O593   O     0.25325   0.42871   0.53992   0.00000  Uiso   1.00
O594   O     0.24674   0.57129   0.46008   0.00000  Uiso   1.00
O595   O     0.24480   0.41892   0.43612   0.00000  Uiso   1.00
O596   O     0.25520   0.58108   0.56388   0.00000  Uiso   1.00
O597   O     0.18935   0.50488   0.55191   0.00000  Uiso   1.00
O598   O     0.31064   0.49512   0.44809   0.00000  Uiso   1.00
O599   O     0.18090   0.49510   0.44810   0.00000  Uiso   1.00
O600   O     0.31910   0.50490   0.55190   0.00000  Uiso   1.00
O601   O     0.03102   0.37642   0.38786   0.00000  Uiso   1.00
C602   C     0.03153   0.66639   0.41708   0.00000  Uiso   1.00
H603   H     0.49679   0.65118   0.42187   0.00000  Uiso   1.00
H604   H     0.05187   0.34307   0.46231   0.00000  Uiso   1.00
H605   H     0.04742   0.63430   0.38881   0.00000  Uiso   1.00
O606   O     0.46900   0.62324   0.61233   0.00000  Uiso   1.00
C607   C     0.46882   0.33338   0.58328   0.00000  Uiso   1.00
H608   H     0.44873   0.65686   0.53786   0.00000  Uiso   1.00
H609   H     0.00367   0.34854   0.57892   0.00000  Uiso   1.00
H610   H     0.45283   0.36546   0.61144   0.00000  Uiso   1.00
O611   O     0.29506   0.66188   0.45083   0.00000  Uiso   1.00
C612   C     0.33583   0.34194   0.48944   0.00000  Uiso   1.00
H613   H     0.33717   0.65300   0.52699   0.00000  Uiso   1.00
H614   H     0.34098   0.38488   0.50838   0.00000  Uiso   1.00
H615   H     0.36444   0.66466   0.46292   0.00000  Uiso   1.00
O616   O     0.20740   0.33981   0.55451   0.00000  Uiso   1.00
C617   C     0.16475   0.66071   0.52043   0.00000  Uiso   1.00
H618   H     0.15896   0.61824   0.49914   0.00000  Uiso   1.00
H619   H     0.16052   0.35165   0.48497   0.00000  Uiso   1.00
H620   H     0.13828   0.33632   0.55124   0.00000  Uiso   1.00
O621   O     0.21204   0.44732   0.63946   0.00000  Uiso   1.00
C622   C     0.17028   0.43990   0.66106   0.00000  Uiso   1.00
H623   H     0.14705   0.41560   0.62376   0.00000  Uiso   1.00
H624   H     0.15470   0.47775   0.34008   0.00000  Uiso   1.00
H625   H     0.17318   0.41779   0.36517   0.00000  Uiso   1.00
O626   O     0.29765   0.54052   0.35846   0.00000  Uiso   1.00
C627   C     0.31103   0.58637   0.33870   0.00000  Uiso   1.00
H628   H     0.33898   0.60756   0.37141   0.00000  Uiso   1.00
H629   H     0.28310   0.61264   0.33797   0.00000  Uiso   1.00
H630   H     0.32543   0.57830   0.62843   0.00000  Uiso   1.00
C631   C     0.75069   0.40070   0.48578   0.00000  Uiso   1.00
C632   C     0.74892   0.59930   0.51440   0.00000  Uiso   1.00
C633   C     0.51338   0.41725   0.42485   0.00000  Uiso   1.00
C634   C     0.98663   0.58239   0.57538   0.00000  Uiso   1.00
C635   C     0.76010   0.34729   0.48273   0.00000  Uiso   1.00
C636   C     0.73983   0.65299   0.51838   0.00000  Uiso   1.00
C637   C     0.66458   0.49944   0.50018   0.00000  Uiso   1.00
C638   C     0.83542   0.50048   0.49982   0.00000  Uiso   1.00
C639   C     0.91142   0.54056   0.53831   0.00000  Uiso   1.00
C640   C     0.58859   0.45925   0.46167   0.00000  Uiso   1.00
C641   C     0.88364   0.50075   0.49931   0.00000  Uiso   1.00
C642   C     0.61636   0.49901   0.50076   0.00000  Uiso   1.00
C643   C     0.90175   0.46112   0.46001   0.00000  Uiso   1.00
C644   C     0.59825   0.53841   0.54037   0.00000  Uiso   1.00
C645   C     0.94824   0.45993   0.46086   0.00000  Uiso   1.00
C646   C     0.55177   0.53961   0.53949   0.00000  Uiso   1.00
C647   C     0.97660   0.50018   0.49991   0.00000  Uiso   1.00
C648   C     0.52340   0.49942   0.50035   0.00000  Uiso   1.00
C649   C     0.95812   0.54130   0.53829   0.00000  Uiso   1.00
C650   C     0.54190   0.45838   0.46187   0.00000  Uiso   1.00
C651   C     0.96668   0.41893   0.42368   0.00000  Uiso   1.00
C652   C     0.53333   0.58060   0.57670   0.00000  Uiso   1.00
Cu653  Cu    0.75500   0.50579   0.56146   0.00000  Uiso   1.00
Cu654  Cu    0.74499   0.49421   0.43854   0.00000  Uiso   1.00
H655   H     0.89638   0.57122   0.56774   0.00000  Uiso   1.00
H656   H     0.60364   0.42871   0.43207   0.00000  Uiso   1.00
H657   H     0.87958   0.43057   0.42999   0.00000  Uiso   1.00
H658   H     0.62040   0.56880   0.57063   0.00000  Uiso   1.00
H659   H     0.94491   0.38782   0.39404   0.00000  Uiso   1.00
H660   H     0.55512   0.61165   0.60641   0.00000  Uiso   1.00
N661   N     0.73744   0.48547   0.34617   0.00000  Uiso   1.00
N662   N     0.76255   0.51453   0.65383   0.00000  Uiso   1.00
O663   O     0.75325   0.42871   0.53992   0.00000  Uiso   1.00
O664   O     0.74674   0.57129   0.46008   0.00000  Uiso   1.00
O665   O     0.74480   0.41892   0.43612   0.00000  Uiso   1.00
O666   O     0.75520   0.58108   0.56388   0.00000  Uiso   1.00
O667   O     0.68935   0.50488   0.55191   0.00000  Uiso   1.00
O668   O     0.81064   0.49512   0.44809   0.00000  Uiso   1.00
O669   O     0.68090   0.49510   0.44810   0.00000  Uiso   1.00
O670   O     0.81910   0.50490   0.55190   0.00000  Uiso   1.00
O671   O     0.53102   0.37642   0.38786   0.00000  Uiso   1.00
C672   C     0.53153   0.66639   0.41708   0.00000  Uiso   1.00
H673   H     0.99679   0.65118   0.42187   0.00000  Uiso   1.00
H674   H     0.55187   0.34307   0.46231   0.00000  Uiso   1.00
H675   H     0.54742   0.63430   0.38881   0.00000  Uiso   1.00
O676   O     0.96900   0.62324   0.61233   0.00000  Uiso   1.00
C677   C     0.96882   0.33338   0.58328   0.00000  Uiso   1.00
H678   H     0.94873   0.65686   0.53786   0.00000  Uiso   1.00
H679   H     0.50367   0.34854   0.57892   0.00000  Uiso   1.00
H680   H     0.95283   0.36546   0.61144   0.00000  Uiso   1.00
O681   O     0.79506   0.66188   0.45083   0.00000  Uiso   1.00
C682   C     0.83583   0.34194   0.48944   0.00000  Uiso   1.00
H683   H     0.83717   0.65300   0.52699   0.00000  Uiso   1.00
H684   H     0.84098   0.38488   0.50838   0.00000  Uiso   1.00
H685   H     0.86444   0.66466   0.46292   0.00000  Uiso   1.00
O686   O     0.70740   0.33981   0.55451   0.00000  Uiso   1.00
C687   C     0.66475   0.66071   0.52043   0.00000  Uiso   1.00
H688   H     0.65896   0.61824   0.49914   0.00000  Uiso   1.00
H689   H     0.66052   0.35165   0.48497   0.00000  Uiso   1.00
H690   H     0.63828   0.33632   0.55124   0.00000  Uiso   1.00
O691   O     0.71204   0.44732   0.63946   0.00000  Uiso   1.00
C692   C     0.67028   0.43990   0.66106   0.00000  Uiso   1.00
H693   H     0.64705   0.41560   0.62376   0.00000  Uiso   1.00
H694   H     0.65470   0.47775   0.34008   0.00000  Uiso   1.00
H695   H     0.67318   0.41779   0.36517   0.00000  Uiso   1.00
O696   O     0.79765   0.54052   0.35846   0.00000  Uiso   1.00
C697   C     0.81103   0.58637   0.33870   0.00000  Uiso   1.00
H698   H     0.83898   0.60756   0.37141   0.00000  Uiso   1.00
H699   H     0.78310   0.61264   0.33797   0.00000  Uiso   1.00
H700   H     0.82543   0.57830   0.62843   0.00000  Uiso   1.00
C701   C     0.25069   0.73403   0.48578   0.00000  Uiso   1.00
C702   C     0.24892   0.93263   0.51440   0.00000  Uiso   1.00
C703   C     0.01338   0.75058   0.42485   0.00000  Uiso   1.00
C704   C     0.48663   0.91572   0.57538   0.00000  Uiso   1.00
C705   C     0.26010   0.68062   0.48273   0.00000  Uiso   1.00
C706   C     0.23983   0.98632   0.51838   0.00000  Uiso   1.00
C707   C     0.16458   0.83277   0.50018   0.00000  Uiso   1.00
C708   C     0.33542   0.83381   0.49982   0.00000  Uiso   1.00
C709   C     0.41142   0.87389   0.53831   0.00000  Uiso   1.00
C710   C     0.08859   0.79259   0.46167   0.00000  Uiso   1.00
C711   C     0.38364   0.83409   0.49931   0.00000  Uiso   1.00
C712   C     0.11636   0.83235   0.50076   0.00000  Uiso   1.00
C713   C     0.40175   0.79445   0.46001   0.00000  Uiso   1.00
C714   C     0.09825   0.87174   0.54037   0.00000  Uiso   1.00
C715   C     0.44824   0.79326   0.46086   0.00000  Uiso   1.00
C716   C     0.05177   0.87294   0.53949   0.00000  Uiso   1.00
C717   C     0.47660   0.83352   0.49991   0.00000  Uiso   1.00
C718   C     0.02340   0.83275   0.50035   0.00000  Uiso   1.00
C719   C     0.45812   0.87463   0.53829   0.00000  Uiso   1.00
C720   C     0.04190   0.79171   0.46187   0.00000  Uiso   1.00
C721   C     0.46668   0.75226   0.42368   0.00000  Uiso   1.00
C722   C     0.03333   0.91393   0.57670   0.00000  Uiso   1.00
Cu723  Cu    0.25500   0.83913   0.56146   0.00000  Uiso   1.00
Cu724  Cu    0.24499   0.82754   0.43854   0.00000  Uiso   1.00
H725   H     0.39638   0.90456   0.56774   0.00000  Uiso   1.00
H726   H     0.10364   0.76204   0.43207   0.00000  Uiso   1.00
H727   H     0.37958   0.76390   0.42999   0.00000  Uiso   1.00
H728   H     0.12040   0.90214   0.57063   0.00000  Uiso   1.00
H729   H     0.44491   0.72116   0.39404   0.00000  Uiso   1.00
H730   H     0.05512   0.94499   0.60641   0.00000  Uiso   1.00
N731   N     0.23744   0.81881   0.34617   0.00000  Uiso   1.00
N732   N     0.26255   0.84786   0.65383   0.00000  Uiso   1.00
O733   O     0.25325   0.76204   0.53992   0.00000  Uiso   1.00
O734   O     0.24674   0.90462   0.46008   0.00000  Uiso   1.00
O735   O     0.24480   0.75226   0.43612   0.00000  Uiso   1.00
O736   O     0.25520   0.91441   0.56388   0.00000  Uiso   1.00
O737   O     0.18935   0.83821   0.55191   0.00000  Uiso   1.00
O738   O     0.31064   0.82845   0.44809   0.00000  Uiso   1.00
O739   O     0.18090   0.82843   0.44810   0.00000  Uiso   1.00
O740   O     0.31910   0.83824   0.55190   0.00000  Uiso   1.00
O741   O     0.03102   0.70975   0.38786   0.00000  Uiso   1.00
C742   C     0.03153   0.99973   0.41708   0.00000  Uiso   1.00
H743   H     0.49679   0.98451   0.42187   0.00000  Uiso   1.00
H744   H     0.05187   0.67640   0.46231   0.00000  Uiso   1.00
H745   H     0.04742   0.96763   0.38881   0.00000  Uiso   1.00
O746   O     0.46900   0.95658   0.61233   0.00000  Uiso   1.00
C747   C     0.46882   0.66671   0.58328   0.00000  Uiso   1.00
H748   H     0.44873   0.99020   0.53786   0.00000  Uiso   1.00
H749   H     0.00367   0.68187   0.57892   0.00000  Uiso   1.00
H750   H     0.45283   0.69879   0.61144   0.00000  Uiso   1.00
O751   O     0.29506   0.99521   0.45083   0.00000  Uiso   1.00
C752   C     0.33583   0.67527   0.48944   0.00000  Uiso   1.00
H753   H     0.33717   0.98633   0.52699   0.00000  Uiso   1.00
H754   H     0.34098   0.71822   0.50838   0.00000  Uiso   1.00
H755   H     0.36444   0.99800   0.46292   0.00000  Uiso   1.00
O756   O     0.20740   0.67315   0.55451   0.00000  Uiso   1.00
C757   C     0.16475   0.99405   0.52043   0.00000  Uiso   1.00
H758   H     0.15896   0.95157   0.49914   0.00000  Uiso   1.00
H759   H     0.16052   0.68499   0.48497   0.00000  Uiso   1.00
H760   H     0.13828   0.66965   0.55124   0.00000  Uiso   1.00
O761   O     0.21204   0.78066   0.63946   0.00000  Uiso   1.00
C762   C     0.17028   0.77323   0.66106   0.00000  Uiso   1.00
H763   H     0.14705   0.74893   0.62376   0.00000  Uiso   1.00
H764   H     0.15470   0.81108   0.34008   0.00000  Uiso   1.00
H765   H     0.17318   0.75113   0.36517   0.00000  Uiso   1.00
O766   O     0.29765   0.87385   0.35846   0.00000  Uiso   1.00
C767   C     0.31103   0.91970   0.33870   0.00000  Uiso   1.00
H768   H     0.33898   0.94089   0.37141   0.00000  Uiso   1.00
H769   H     0.28310   0.94597   0.33797   0.00000  Uiso   1.00
H770   H     0.32543   0.91163   0.62843   0.00000  Uiso   1.00
C771   C     0.75069   0.73403   0.48578   0.00000  Uiso   1.00
C772   C     0.74892   0.93263   0.51440   0.00000  Uiso   1.00
C773   C     0.51338   0.75058   0.42485   0.00000  Uiso   1.00
C774   C     0.98663   0.91572   0.57538   0.00000  Uiso   1.00
C775   C     0.76010   0.68062   0.48273   0.00000  Uiso   1.00
C776   C     0.73983   0.98632   0.51838   0.00000  Uiso   1.00
C777   C     0.66458   0.83277   0.50018   0.00000  Uiso   1.00
C778   C     0.83542   0.83381   0.49982   0.00000  Uiso   1.00
C779   C     0.91142   0.87389   0.53831   0.00000  Uiso   1.00
C780   C     0.58859   0.79259   0.46167   0.00000  Uiso   1.00
C781   C     0.88364   0.83409   0.49931   0.00000  Uiso   1.00
C782   C     0.61636   0.83235   0.50076   0.00000  Uiso   1.00
C783   C     0.90175   0.79445   0.46001   0.00000  Uiso   1.00
C784   C     0.59825   0.87174   0.54037   0.00000  Uiso   1.00
C785   C     0.94824   0.79326   0.46086   0.00000  Uiso   1.00
C786   C     0.55177   0.87294   0.53949   0.00000  Uiso   1.00
C787   C     0.97660   0.83352   0.49991   0.00000  Uiso   1.00
C788   C     0.52340   0.83275   0.50035   0.00000  Uiso   1.00
C789   C     0.95812   0.87463   0.53829   0.00000  Uiso   1.00
C790   C     0.54190   0.79171   0.46187   0.00000  Uiso   1.00
C791   C     0.96668   0.75226   0.42368   0.00000  Uiso   1.00
C792   C     0.53333   0.91393   0.57670   0.00000  Uiso   1.00
Cu793  Cu    0.75500   0.83913   0.56146   0.00000  Uiso   1.00
Cu794  Cu    0.74499   0.82754   0.43854   0.00000  Uiso   1.00
H795   H     0.89638   0.90456   0.56774   0.00000  Uiso   1.00
H796   H     0.60364   0.76204   0.43207   0.00000  Uiso   1.00
H797   H     0.87958   0.76390   0.42999   0.00000  Uiso   1.00
H798   H     0.62040   0.90214   0.57063   0.00000  Uiso   1.00
H799   H     0.94491   0.72116   0.39404   0.00000  Uiso   1.00
H800   H     0.55512   0.94499   0.60641   0.00000  Uiso   1.00
N801   N     0.73744   0.81881   0.34617   0.00000  Uiso   1.00
N802   N     0.76255   0.84786   0.65383   0.00000  Uiso   1.00
O803   O     0.75325   0.76204   0.53992   0.00000  Uiso   1.00
O804   O     0.74674   0.90462   0.46008   0.00000  Uiso   1.00
O805   O     0.74480   0.75226   0.43612   0.00000  Uiso   1.00
O806   O     0.75520   0.91441   0.56388   0.00000  Uiso   1.00
O807   O     0.68935   0.83821   0.55191   0.00000  Uiso   1.00
O808   O     0.81064   0.82845   0.44809   0.00000  Uiso   1.00
O809   O     0.68090   0.82843   0.44810   0.00000  Uiso   1.00
O810   O     0.81910   0.83824   0.55190   0.00000  Uiso   1.00
O811   O     0.53102   0.70975   0.38786   0.00000  Uiso   1.00
C812   C     0.53153   0.99973   0.41708   0.00000  Uiso   1.00
H813   H     0.99679   0.98451   0.42187   0.00000  Uiso   1.00
H814   H     0.55187   0.67640   0.46231   0.00000  Uiso   1.00
H815   H     0.54742   0.96763   0.38881   0.00000  Uiso   1.00
O816   O     0.96900   0.95658   0.61233   0.00000  Uiso   1.00
C817   C     0.96882   0.66671   0.58328   0.00000  Uiso   1.00
H818   H     0.94873   0.99020   0.53786   0.00000  Uiso   1.00
H819   H     0.50367   0.68187   0.57892   0.00000  Uiso   1.00
H820   H     0.95283   0.69879   0.61144   0.00000  Uiso   1.00
O821   O     0.79506   0.99521   0.45083   0.00000  Uiso   1.00
C822   C     0.83583   0.67527   0.48944   0.00000  Uiso   1.00
H823   H     0.83717   0.98633   0.52699   0.00000  Uiso   1.00
H824   H     0.84098   0.71822   0.50838   0.00000  Uiso   1.00
H825   H     0.86444   0.99800   0.46292   0.00000  Uiso   1.00
O826   O     0.70740   0.67315   0.55451   0.00000  Uiso   1.00
C827   C     0.66475   0.99405   0.52043   0.00000  Uiso   1.00
H828   H     0.65896   0.95157   0.49914   0.00000  Uiso   1.00
H829   H     0.66052   0.68499   0.48497   0.00000  Uiso   1.00
H830   H     0.63828   0.66965   0.55124   0.00000  Uiso   1.00
O831   O     0.71204   0.78066   0.63946   0.00000  Uiso   1.00
C832   C     0.67028   0.77323   0.66106   0.00000  Uiso   1.00
H833   H     0.64705   0.74893   0.62376   0.00000  Uiso   1.00
H834   H     0.65470   0.81108   0.34008   0.00000  Uiso   1.00
H835   H     0.67318   0.75113   0.36517   0.00000  Uiso   1.00
O836   O     0.79765   0.87385   0.35846   0.00000  Uiso   1.00
C837   C     0.81103   0.91970   0.33870   0.00000  Uiso   1.00
H838   H     0.83898   0.94089   0.37141   0.00000  Uiso   1.00
H839   H     0.78310   0.94597   0.33797   0.00000  Uiso   1.00
H840   H     0.82543   0.91163   0.62843   0.00000  Uiso   1.00
C841   C     0.25069   0.06736   0.81912   0.00000  Uiso   1.00
C842   C     0.24892   0.26596   0.84773   0.00000  Uiso   1.00
C843   C     0.01338   0.08391   0.75819   0.00000  Uiso   1.00
C844   C     0.48663   0.24905   0.90871   0.00000  Uiso   1.00
C845   C     0.26010   0.01396   0.81607   0.00000  Uiso   1.00
C846   C     0.23983   0.31966   0.85172   0.00000  Uiso   1.00
C847   C     0.16458   0.16610   0.83351   0.00000  Uiso   1.00
C848   C     0.33542   0.16714   0.83316   0.00000  Uiso   1.00
C849   C     0.41142   0.20722   0.87165   0.00000  Uiso   1.00
C850   C     0.08859   0.12592   0.79500   0.00000  Uiso   1.00
C851   C     0.38364   0.16742   0.83264   0.00000  Uiso   1.00
C852   C     0.11636   0.16568   0.83409   0.00000  Uiso   1.00
C853   C     0.40175   0.12779   0.79334   0.00000  Uiso   1.00
C854   C     0.09825   0.20508   0.87370   0.00000  Uiso   1.00
C855   C     0.44824   0.12660   0.79419   0.00000  Uiso   1.00
C856   C     0.05177   0.20628   0.87283   0.00000  Uiso   1.00
C857   C     0.47660   0.16685   0.83325   0.00000  Uiso   1.00
C858   C     0.02340   0.16609   0.83368   0.00000  Uiso   1.00
C859   C     0.45812   0.20796   0.87162   0.00000  Uiso   1.00
C860   C     0.04190   0.12504   0.79521   0.00000  Uiso   1.00
C861   C     0.46668   0.08559   0.75701   0.00000  Uiso   1.00
C862   C     0.03333   0.24727   0.91003   0.00000  Uiso   1.00
Cu863  Cu    0.25500   0.17246   0.89479   0.00000  Uiso   1.00
Cu864  Cu    0.24499   0.16087   0.77187   0.00000  Uiso   1.00
H865   H     0.39638   0.23789   0.90108   0.00000  Uiso   1.00
H866   H     0.10364   0.09538   0.76540   0.00000  Uiso   1.00
H867   H     0.37958   0.09724   0.76333   0.00000  Uiso   1.00
H868   H     0.12040   0.23547   0.90396   0.00000  Uiso   1.00
H869   H     0.44491   0.05449   0.72737   0.00000  Uiso   1.00
H870   H     0.05512   0.27832   0.93974   0.00000  Uiso   1.00
N871   N     0.23744   0.15214   0.67951   0.00000  Uiso   1.00
N872   N     0.26255   0.18119   0.98716   0.00000  Uiso   1.00
O873   O     0.25325   0.09538   0.87326   0.00000  Uiso   1.00
O874   O     0.24674   0.23796   0.79341   0.00000  Uiso   1.00
O875   O     0.24480   0.08559   0.76945   0.00000  Uiso   1.00
O876   O     0.25520   0.24774   0.89721   0.00000  Uiso   1.00
O877   O     0.18935   0.17155   0.88524   0.00000  Uiso   1.00
O878   O     0.31064   0.16179   0.78143   0.00000  Uiso   1.00
O879   O     0.18090   0.16176   0.78143   0.00000  Uiso   1.00
O880   O     0.31910   0.17157   0.88523   0.00000  Uiso   1.00
O881   O     0.03102   0.04309   0.72119   0.00000  Uiso   1.00
C882   C     0.03153   0.33306   0.75041   0.00000  Uiso   1.00
H883   H     0.49679   0.31784   0.75520   0.00000  Uiso   1.00
H884   H     0.05187   0.00973   0.79564   0.00000  Uiso   1.00
H885   H     0.04742   0.30097   0.72214   0.00000  Uiso   1.00
O886   O     0.46900   0.28991   0.94566   0.00000  Uiso   1.00
C887   C     0.46882   0.00005   0.91661   0.00000  Uiso   1.00
H888   H     0.44873   0.32353   0.87119   0.00000  Uiso   1.00
H889   H     0.00367   0.01521   0.91225   0.00000  Uiso   1.00
H890   H     0.45283   0.03212   0.94477   0.00000  Uiso   1.00
O891   O     0.29506   0.32855   0.78416   0.00000  Uiso   1.00
C892   C     0.33583   0.00860   0.82277   0.00000  Uiso   1.00
H893   H     0.33717   0.31966   0.86032   0.00000  Uiso   1.00
H894   H     0.34098   0.05155   0.84171   0.00000  Uiso   1.00
H895   H     0.36444   0.33133   0.79625   0.00000  Uiso   1.00
O896   O     0.20740   0.00648   0.88785   0.00000  Uiso   1.00
C897   C     0.16475   0.32738   0.85377   0.00000  Uiso   1.00
H898   H     0.15896   0.28491   0.83247   0.00000  Uiso   1.00
H899   H     0.16052   0.01832   0.81830   0.00000  Uiso   1.00
H900   H     0.13828   0.00298   0.88457   0.00000  Uiso   1.00
O901   O     0.21204   0.11399   0.97280   0.00000  Uiso   1.00
C902   C     0.17028   0.10656   0.99440   0.00000  Uiso   1.00
H903   H     0.14705   0.08227   0.95709   0.00000  Uiso   1.00
H904   H     0.15470   0.14441   0.67342   0.00000  Uiso   1.00
H905   H     0.17318   0.08446   0.69850   0.00000  Uiso   1.00
O906   O     0.29765   0.20719   0.69179   0.00000  Uiso   1.00
C907   C     0.31103   0.25303   0.67204   0.00000  Uiso   1.00
H908   H     0.33898   0.27423   0.70474   0.00000  Uiso   1.00
H909   H     0.28310   0.27931   0.67130   0.00000  Uiso   1.00
H910   H     0.32543   0.24497   0.96176   0.00000  Uiso   1.00
C911   C     0.75069   0.06736   0.81912   0.00000  Uiso   1.00
C912   C     0.74892   0.26596   0.84773   0.00000  Uiso   1.00
C913   C     0.51338   0.08391   0.75819   0.00000  Uiso   1.00
C914   C     0.98663   0.24905   0.90871   0.00000  Uiso   1.00
C915   C     0.76010   0.01396   0.81607   0.00000  Uiso   1.00
C916   C     0.73983   0.31966   0.85172   0.00000  Uiso   1.00
C917   C     0.66458   0.16610   0.83351   0.00000  Uiso   1.00
C918   C     0.83542   0.16714   0.83316   0.00000  Uiso   1.00
C919   C     0.91142   0.20722   0.87165   0.00000  Uiso   1.00
C920   C     0.58859   0.12592   0.79500   0.00000  Uiso   1.00
C921   C     0.88364   0.16742   0.83264   0.00000  Uiso   1.00
C922   C     0.61636   0.16568   0.83409   0.00000  Uiso   1.00
C923   C     0.90175   0.12779   0.79334   0.00000  Uiso   1.00
C924   C     0.59825   0.20508   0.87370   0.00000  Uiso   1.00
C925   C     0.94824   0.12660   0.79419   0.00000  Uiso   1.00
C926   C     0.55177   0.20628   0.87283   0.00000  Uiso   1.00
C927   C     0.97660   0.16685   0.83325   0.00000  Uiso   1.00
C928   C     0.52340   0.16609   0.83368   0.00000  Uiso   1.00
C929   C     0.95812   0.20796   0.87162   0.00000  Uiso   1.00
C930   C     0.54190   0.12504   0.79521   0.00000  Uiso   1.00
C931   C     0.96668   0.08559   0.75701   0.00000  Uiso   1.00
C932   C     0.53333   0.24727   0.91003   0.00000  Uiso   1.00
Cu933  Cu    0.75500   0.17246   0.89479   0.00000  Uiso   1.00
Cu934  Cu    0.74499   0.16087   0.77187   0.00000  Uiso   1.00
H935   H     0.89638   0.23789   0.90108   0.00000  Uiso   1.00
H936   H     0.60364   0.09538   0.76540   0.00000  Uiso   1.00
H937   H     0.87958   0.09724   0.76333   0.00000  Uiso   1.00
H938   H     0.62040   0.23547   0.90396   0.00000  Uiso   1.00
H939   H     0.94491   0.05449   0.72737   0.00000  Uiso   1.00
H940   H     0.55512   0.27832   0.93974   0.00000  Uiso   1.00
N941   N     0.73744   0.15214   0.67951   0.00000  Uiso   1.00
N942   N     0.76255   0.18119   0.98716   0.00000  Uiso   1.00
O943   O     0.75325   0.09538   0.87326   0.00000  Uiso   1.00
O944   O     0.74674   0.23796   0.79341   0.00000  Uiso   1.00
O945   O     0.74480   0.08559   0.76945   0.00000  Uiso   1.00
O946   O     0.75520   0.24774   0.89721   0.00000  Uiso   1.00
O947   O     0.68935   0.17155   0.88524   0.00000  Uiso   1.00
O948   O     0.81064   0.16179   0.78143   0.00000  Uiso   1.00
O949   O     0.68090   0.16176   0.78143   0.00000  Uiso   1.00
O950   O     0.81910   0.17157   0.88523   0.00000  Uiso   1.00
O951   O     0.53102   0.04309   0.72119   0.00000  Uiso   1.00
C952   C     0.53153   0.33306   0.75041   0.00000  Uiso   1.00
H953   H     0.99679   0.31784   0.75520   0.00000  Uiso   1.00
H954   H     0.55187   0.00973   0.79564   0.00000  Uiso   1.00
H955   H     0.54742   0.30097   0.72214   0.00000  Uiso   1.00
O956   O     0.96900   0.28991   0.94566   0.00000  Uiso   1.00
C957   C     0.96882   0.00005   0.91661   0.00000  Uiso   1.00
H958   H     0.94873   0.32353   0.87119   0.00000  Uiso   1.00
H959   H     0.50367   0.01521   0.91225   0.00000  Uiso   1.00
H960   H     0.95283   0.03212   0.94477   0.00000  Uiso   1.00
O961   O     0.79506   0.32855   0.78416   0.00000  Uiso   1.00
C962   C     0.83583   0.00860   0.82277   0.00000  Uiso   1.00
H963   H     0.83717   0.31966   0.86032   0.00000  Uiso   1.00
H964   H     0.84098   0.05155   0.84171   0.00000  Uiso   1.00
H965   H     0.86444   0.33133   0.79625   0.00000  Uiso   1.00
O966   O     0.70740   0.00648   0.88785   0.00000  Uiso   1.00
C967   C     0.66475   0.32738   0.85377   0.00000  Uiso   1.00
H968   H     0.65896   0.28491   0.83247   0.00000  Uiso   1.00
H969   H     0.66052   0.01832   0.81830   0.00000  Uiso   1.00
H970   H     0.63828   0.00298   0.88457   0.00000  Uiso   1.00
O971   O     0.71204   0.11399   0.97280   0.00000  Uiso   1.00
C972   C     0.67028   0.10656   0.99440   0.00000  Uiso   1.00
H973   H     0.64705   0.08227   0.95709   0.00000  Uiso   1.00
H974   H     0.65470   0.14441   0.67342   0.00000  Uiso   1.00
H975   H     0.67318   0.08446   0.69850   0.00000  Uiso   1.00
O976   O     0.79765   0.20719   0.69179   0.00000  Uiso   1.00
C977   C     0.81103   0.25303   0.67204   0.00000  Uiso   1.00
H978   H     0.83898   0.27423   0.70474   0.00000  Uiso   1.00
H979   H     0.78310   0.27931   0.67130   0.00000  Uiso   1.00
H980   H     0.82543   0.24497   0.96176   0.00000  Uiso   1.00
C981   C     0.25069   0.40070   0.81912   0.00000  Uiso   1.00
C982   C     0.24892   0.59930   0.84773   0.00000  Uiso   1.00
C983   C     0.01338   0.41725   0.75819   0.00000  Uiso   1.00
C984   C     0.48663   0.58239   0.90871   0.00000  Uiso   1.00
C985   C     0.26010   0.34729   0.81607   0.00000  Uiso   1.00
C986   C     0.23983   0.65299   0.85172   0.00000  Uiso   1.00
C987   C     0.16458   0.49944   0.83351   0.00000  Uiso   1.00
C988   C     0.33542   0.50048   0.83316   0.00000  Uiso   1.00
C989   C     0.41142   0.54056   0.87165   0.00000  Uiso   1.00
C990   C     0.08859   0.45925   0.79500   0.00000  Uiso   1.00
C991   C     0.38364   0.50075   0.83264   0.00000  Uiso   1.00
C992   C     0.11636   0.49901   0.83409   0.00000  Uiso   1.00
C993   C     0.40175   0.46112   0.79334   0.00000  Uiso   1.00
C994   C     0.09825   0.53841   0.87370   0.00000  Uiso   1.00
C995   C     0.44824   0.45993   0.79419   0.00000  Uiso   1.00
C996   C     0.05177   0.53961   0.87283   0.00000  Uiso   1.00
C997   C     0.47660   0.50018   0.83325   0.00000  Uiso   1.00
C998   C     0.02340   0.49942   0.83368   0.00000  Uiso   1.00
C999   C     0.45812   0.54130   0.87162   0.00000  Uiso   1.00
C1000  C     0.04190   0.45838   0.79521   0.00000  Uiso   1.00
C1001  C     0.46668   0.41893   0.75701   0.00000  Uiso   1.00
C1002  C     0.03333   0.58060   0.91003   0.00000  Uiso   1.00
Cu1003 Cu    0.25500   0.50579   0.89479   0.00000  Uiso   1.00
Cu1004 Cu    0.24499   0.49421   0.77187   0.00000  Uiso   1.00
H1005  H     0.39638   0.57122   0.90108   0.00000  Uiso   1.00
H1006  H     0.10364   0.42871   0.76540   0.00000  Uiso   1.00
H1007  H     0.37958   0.43057   0.76333   0.00000  Uiso   1.00
H1008  H     0.12040   0.56880   0.90396   0.00000  Uiso   1.00
H1009  H     0.44491   0.38782   0.72737   0.00000  Uiso   1.00
H1010  H     0.05512   0.61165   0.93974   0.00000  Uiso   1.00
N1011  N     0.23744   0.48547   0.67951   0.00000  Uiso   1.00
N1012  N     0.26255   0.51453   0.98716   0.00000  Uiso   1.00
O1013  O     0.25325   0.42871   0.87326   0.00000  Uiso   1.00
O1014  O     0.24674   0.57129   0.79341   0.00000  Uiso   1.00
O1015  O     0.24480   0.41892   0.76945   0.00000  Uiso   1.00
O1016  O     0.25520   0.58108   0.89721   0.00000  Uiso   1.00
O1017  O     0.18935   0.50488   0.88524   0.00000  Uiso   1.00
O1018  O     0.31064   0.49512   0.78143   0.00000  Uiso   1.00
O1019  O     0.18090   0.49510   0.78143   0.00000  Uiso   1.00
O1020  O     0.31910   0.50490   0.88523   0.00000  Uiso   1.00
O1021  O     0.03102   0.37642   0.72119   0.00000  Uiso   1.00
C1022  C     0.03153   0.66639   0.75041   0.00000  Uiso   1.00
H1023  H     0.49679   0.65118   0.75520   0.00000  Uiso   1.00
H1024  H     0.05187   0.34307   0.79564   0.00000  Uiso   1.00
H1025  H     0.04742   0.63430   0.72214   0.00000  Uiso   1.00
O1026  O     0.46900   0.62324   0.94566   0.00000  Uiso   1.00
C1027  C     0.46882   0.33338   0.91661   0.00000  Uiso   1.00
H1028  H     0.44873   0.65686   0.87119   0.00000  Uiso   1.00
H1029  H     0.00367   0.34854   0.91225   0.00000  Uiso   1.00
H1030  H     0.45283   0.36546   0.94477   0.00000  Uiso   1.00
O1031  O     0.29506   0.66188   0.78416   0.00000  Uiso   1.00
C1032  C     0.33583   0.34194   0.82277   0.00000  Uiso   1.00
H1033  H     0.33717   0.65300   0.86032   0.00000  Uiso   1.00
H1034  H     0.34098   0.38488   0.84171   0.00000  Uiso   1.00
H1035  H     0.36444   0.66466   0.79625   0.00000  Uiso   1.00
O1036  O     0.20740   0.33981   0.88785   0.00000  Uiso   1.00
C1037  C     0.16475   0.66071   0.85377   0.00000  Uiso   1.00
H1038  H     0.15896   0.61824   0.83247   0.00000  Uiso   1.00
H1039  H     0.16052   0.35165   0.81830   0.00000  Uiso   1.00
H1040  H     0.13828   0.33632   0.88457   0.00000  Uiso   1.00
O1041  O     0.21204   0.44732   0.97280   0.00000  Uiso   1.00
C1042  C     0.17028   0.43990   0.99440   0.00000  Uiso   1.00
H1043  H     0.14705   0.41560   0.95709   0.00000  Uiso   1.00
H1044  H     0.15470   0.47775   0.67342   0.00000  Uiso   1.00
H1045  H     0.17318   0.41779   0.69850   0.00000  Uiso   1.00
O1046  O     0.29765   0.54052   0.69179   0.00000  Uiso   1.00
C1047  C     0.31103   0.58637   0.67204   0.00000  Uiso   1.00
H1048  H     0.33898   0.60756   0.70474   0.00000  Uiso   1.00
H1049  H     0.28310   0.61264   0.67130   0.00000  Uiso   1.00
H1050  H     0.32543   0.57830   0.96176   0.00000  Uiso   1.00
C1051  C     0.75069   0.40070   0.81912   0.00000  Uiso   1.00
C1052  C     0.74892   0.59930   0.84773   0.00000  Uiso   1.00
C1053  C     0.51338   0.41725   0.75819   0.00000  Uiso   1.00
C1054  C     0.98663   0.58239   0.90871   0.00000  Uiso   1.00
C1055  C     0.76010   0.34729   0.81607   0.00000  Uiso   1.00
C1056  C     0.73983   0.65299   0.85172   0.00000  Uiso   1.00
C1057  C     0.66458   0.49944   0.83351   0.00000  Uiso   1.00
C1058  C     0.83542   0.50048   0.83316   0.00000  Uiso   1.00
C1059  C     0.91142   0.54056   0.87165   0.00000  Uiso   1.00
C1060  C     0.58859   0.45925   0.79500   0.00000  Uiso   1.00
C1061  C     0.88364   0.50075   0.83264   0.00000  Uiso   1.00
C1062  C     0.61636   0.49901   0.83409   0.00000  Uiso   1.00
C1063  C     0.90175   0.46112   0.79334   0.00000  Uiso   1.00
C1064  C     0.59825   0.53841   0.87370   0.00000  Uiso   1.00
C1065  C     0.94824   0.45993   0.79419   0.00000  Uiso   1.00
C1066  C     0.55177   0.53961   0.87283   0.00000  Uiso   1.00
C1067  C     0.97660   0.50018   0.83325   0.00000  Uiso   1.00
C1068  C     0.52340   0.49942   0.83368   0.00000  Uiso   1.00
C1069  C     0.95812   0.54130   0.87162   0.00000  Uiso   1.00
C1070  C     0.54190   0.45838   0.79521   0.00000  Uiso   1.00
C1071  C     0.96668   0.41893   0.75701   0.00000  Uiso   1.00
C1072  C     0.53333   0.58060   0.91003   0.00000  Uiso   1.00
Cu1073 Cu    0.75500   0.50579   0.89479   0.00000  Uiso   1.00
Cu1074 Cu    0.74499   0.49421   0.77187   0.00000  Uiso   1.00
H1075  H     0.89638   0.57122   0.90108   0.00000  Uiso   1.00
H1076  H     0.60364   0.42871   0.76540   0.00000  Uiso   1.00
H1077  H     0.87958   0.43057   0.76333   0.00000  Uiso   1.00
H1078  H     0.62040   0.56880   0.90396   0.00000  Uiso   1.00
H1079  H     0.94491   0.38782   0.72737   0.00000  Uiso   1.00
H1080  H     0.55512   0.61165   0.93974   0.00000  Uiso   1.00
N1081  N     0.73744   0.48547   0.67951   0.00000  Uiso   1.00
N1082  N     0.76255   0.51453   0.98716   0.00000  Uiso   1.00
O1083  O     0.75325   0.42871   0.87326   0.00000  Uiso   1.00
O1084  O     0.74674   0.57129   0.79341   0.00000  Uiso   1.00
O1085  O     0.74480   0.41892   0.76945   0.00000  Uiso   1.00
O1086  O     0.75520   0.58108   0.89721   0.00000  Uiso   1.00
O1087  O     0.68935   0.50488   0.88524   0.00000  Uiso   1.00
O1088  O     0.81064   0.49512   0.78143   0.00000  Uiso   1.00
O1089  O     0.68090   0.49510   0.78143   0.00000  Uiso   1.00
O1090  O     0.81910   0.50490   0.88523   0.00000  Uiso   1.00
O1091  O     0.53102   0.37642   0.72119   0.00000  Uiso   1.00
C1092  C     0.53153   0.66639   0.75041   0.00000  Uiso   1.00
H1093  H     0.99679   0.65118   0.75520   0.00000  Uiso   1.00
H1094  H     0.55187   0.34307   0.79564   0.00000  Uiso   1.00
H1095  H     0.54742   0.63430   0.72214   0.00000  Uiso   1.00
O1096  O     0.96900   0.62324   0.94566   0.00000  Uiso   1.00
C1097  C     0.96882   0.33338   0.91661   0.00000  Uiso   1.00
H1098  H     0.94873   0.65686   0.87119   0.00000  Uiso   1.00
H1099  H     0.50367   0.34854   0.91225   0.00000  Uiso   1.00
H1100  H     0.95283   0.36546   0.94477   0.00000  Uiso   1.00
O1101  O     0.79506   0.66188   0.78416   0.00000  Uiso   1.00
C1102  C     0.83583   0.34194   0.82277   0.00000  Uiso   1.00
H1103  H     0.83717   0.65300   0.86032   0.00000  Uiso   1.00
H1104  H     0.84098   0.38488   0.84171   0.00000  Uiso   1.00
H1105  H     0.86444   0.66466   0.79625   0.00000  Uiso   1.00
O1106  O     0.70740   0.33981   0.88785   0.00000  Uiso   1.00
C1107  C     0.66475   0.66071   0.85377   0.00000  Uiso   1.00
H1108  H     0.65896   0.61824   0.83247   0.00000  Uiso   1.00
H1109  H     0.66052   0.35165   0.81830   0.00000  Uiso   1.00
H1110  H     0.63828   0.33632   0.88457   0.00000  Uiso   1.00
O1111  O     0.71204   0.44732   0.97280   0.00000  Uiso   1.00
C1112  C     0.67028   0.43990   0.99440   0.00000  Uiso   1.00
H1113  H     0.64705   0.41560   0.95709   0.00000  Uiso   1.00
H1114  H     0.65470   0.47775   0.67342   0.00000  Uiso   1.00
H1115  H     0.67318   0.41779   0.69850   0.00000  Uiso   1.00
O1116  O     0.79765   0.54052   0.69179   0.00000  Uiso   1.00
C1117  C     0.81103   0.58637   0.67204   0.00000  Uiso   1.00
H1118  H     0.83898   0.60756   0.70474   0.00000  Uiso   1.00
H1119  H     0.78310   0.61264   0.67130   0.00000  Uiso   1.00
H1120  H     0.82543   0.57830   0.96176   0.00000  Uiso   1.00
C1121  C     0.25069   0.73403   0.81912   0.00000  Uiso   1.00
C1122  C     0.24892   0.93263   0.84773   0.00000  Uiso   1.00
C1123  C     0.01338   0.75058   0.75819   0.00000  Uiso   1.00
C1124  C     0.48663   0.91572   0.90871   0.00000  Uiso   1.00
C1125  C     0.26010   0.68062   0.81607   0.00000  Uiso   1.00
C1126  C     0.23983   0.98632   0.85172   0.00000  Uiso   1.00
C1127  C     0.16458   0.83277   0.83351   0.00000  Uiso   1.00
C1128  C     0.33542   0.83381   0.83316   0.00000  Uiso   1.00
C1129  C     0.41142   0.87389   0.87165   0.00000  Uiso   1.00
C1130  C     0.08859   0.79259   0.79500   0.00000  Uiso   1.00
C1131  C     0.38364   0.83409   0.83264   0.00000  Uiso   1.00
C1132  C     0.11636   0.83235   0.83409   0.00000  Uiso   1.00
C1133  C     0.40175   0.79445   0.79334   0.00000  Uiso   1.00
C1134  C     0.09825   0.87174   0.87370   0.00000  Uiso   1.00
C1135  C     0.44824   0.79326   0.79419   0.00000  Uiso   1.00
C1136  C     0.05177   0.87294   0.87283   0.00000  Uiso   1.00
C1137  C     0.47660   0.83352   0.83325   0.00000  Uiso   1.00
C1138  C     0.02340   0.83275   0.83368   0.00000  Uiso   1.00
C1139  C     0.45812   0.87463   0.87162   0.00000  Uiso   1.00
C1140  C     0.04190   0.79171   0.79521   0.00000  Uiso   1.00
C1141  C     0.46668   0.75226   0.75701   0.00000  Uiso   1.00
C1142  C     0.03333   0.91393   0.91003   0.00000  Uiso   1.00
Cu1143 Cu    0.25500   0.83913   0.89479   0.00000  Uiso   1.00
Cu1144 Cu    0.24499   0.82754   0.77187   0.00000  Uiso   1.00
H1145  H     0.39638   0.90456   0.90108   0.00000  Uiso   1.00
H1146  H     0.10364   0.76204   0.76540   0.00000  Uiso   1.00
H1147  H     0.37958   0.76390   0.76333   0.00000  Uiso   1.00
H1148  H     0.12040   0.90214   0.90396   0.00000  Uiso   1.00
H1149  H     0.44491   0.72116   0.72737   0.00000  Uiso   1.00
H1150  H     0.05512   0.94499   0.93974   0.00000  Uiso   1.00
N1151  N     0.23744   0.81881   0.67951   0.00000  Uiso   1.00
N1152  N     0.26255   0.84786   0.98716   0.00000  Uiso   1.00
O1153  O     0.25325   0.76204   0.87326   0.00000  Uiso   1.00
O1154  O     0.24674   0.90462   0.79341   0.00000  Uiso   1.00
O1155  O     0.24480   0.75226   0.76945   0.00000  Uiso   1.00
O1156  O     0.25520   0.91441   0.89721   0.00000  Uiso   1.00
O1157  O     0.18935   0.83821   0.88524   0.00000  Uiso   1.00
O1158  O     0.31064   0.82845   0.78143   0.00000  Uiso   1.00
O1159  O     0.18090   0.82843   0.78143   0.00000  Uiso   1.00
O1160  O     0.31910   0.83824   0.88523   0.00000  Uiso   1.00
O1161  O     0.03102   0.70975   0.72119   0.00000  Uiso   1.00
C1162  C     0.03153   0.99973   0.75041   0.00000  Uiso   1.00
H1163  H     0.49679   0.98451   0.75520   0.00000  Uiso   1.00
H1164  H     0.05187   0.67640   0.79564   0.00000  Uiso   1.00
H1165  H     0.04742   0.96763   0.72214   0.00000  Uiso   1.00
O1166  O     0.46900   0.95658   0.94566   0.00000  Uiso   1.00
C1167  C     0.46882   0.66671   0.91661   0.00000  Uiso   1.00
H1168  H     0.44873   0.99020   0.87119   0.00000  Uiso   1.00
H1169  H     0.00367   0.68187   0.91225   0.00000  Uiso   1.00
H1170  H     0.45283   0.69879   0.94477   0.00000  Uiso   1.00
O1171  O     0.29506   0.99521   0.78416   0.00000  Uiso   1.00
C1172  C     0.33583   0.67527   0.82277   0.00000  Uiso   1.00
H1173  H     0.33717   0.98633   0.86032   0.00000  Uiso   1.00
H1174  H     0.34098   0.71822   0.84171   0.00000  Uiso   1.00
H1175  H     0.36444   0.99800   0.79625   0.00000  Uiso   1.00
O1176  O     0.20740   0.67315   0.88785   0.00000  Uiso   1.00
C1177  C     0.16475   0.99405   0.85377   0.00000  Uiso   1.00
H1178  H     0.15896   0.95157   0.83247   0.00000  Uiso   1.00
H1179  H     0.16052   0.68499   0.81830   0.00000  Uiso   1.00
H1180  H     0.13828   0.66965   0.88457   0.00000  Uiso   1.00
O1181  O     0.21204   0.78066   0.97280   0.00000  Uiso   1.00
C1182  C     0.17028   0.77323   0.99440   0.00000  Uiso   1.00
H1183  H     0.14705   0.74893   0.95709   0.00000  Uiso   1.00
H1184  H     0.15470   0.81108   0.67342   0.00000  Uiso   1.00
H1185  H     0.17318   0.75113   0.69850   0.00000  Uiso   1.00
O1186  O     0.29765   0.87385   0.69179   0.00000  Uiso   1.00
C1187  C     0.31103   0.91970   0.67204   0.00000  Uiso   1.00
H1188  H     0.33898   0.94089   0.70474   0.00000  Uiso   1.00
H1189  H     0.28310   0.94597   0.67130   0.00000  Uiso   1.00
H1190  H     0.32543   0.91163   0.96176   0.00000  Uiso   1.00
C1191  C     0.75069   0.73403   0.81912   0.00000  Uiso   1.00
C1192  C     0.74892   0.93263   0.84773   0.00000  Uiso   1.00
C1193  C     0.51338   0.75058   0.75819   0.00000  Uiso   1.00
C1194  C     0.98663   0.91572   0.90871   0.00000  Uiso   1.00
C1195  C     0.76010   0.68062   0.81607   0.00000  Uiso   1.00
C1196  C     0.73983   0.98632   0.85172   0.00000  Uiso   1.00
C1197  C     0.66458   0.83277   0.83351   0.00000  Uiso   1.00
C1198  C     0.83542   0.83381   0.83316   0.00000  Uiso   1.00
C1199  C     0.91142   0.87389   0.87165   0.00000  Uiso   1.00
C1200  C     0.58859   0.79259   0.79500   0.00000  Uiso   1.00
C1201  C     0.88364   0.83409   0.83264   0.00000  Uiso   1.00
C1202  C     0.61636   0.83235   0.83409   0.00000  Uiso   1.00
C1203  C     0.90175   0.79445   0.79334   0.00000  Uiso   1.00
C1204  C     0.59825   0.87174   0.87370   0.00000  Uiso   1.00
C1205  C     0.94824   0.79326   0.79419   0.00000  Uiso   1.00
C1206  C     0.55177   0.87294   0.87283   0.00000  Uiso   1.00
C1207  C     0.97660   0.83352   0.83325   0.00000  Uiso   1.00
C1208  C     0.52340   0.83275   0.83368   0.00000  Uiso   1.00
C1209  C     0.95812   0.87463   0.87162   0.00000  Uiso   1.00
C1210  C     0.54190   0.79171   0.79521   0.00000  Uiso   1.00
C1211  C     0.96668   0.75226   0.75701   0.00000  Uiso   1.00
C1212  C     0.53333   0.91393   0.91003   0.00000  Uiso   1.00
Cu1213 Cu    0.75500   0.83913   0.89479   0.00000  Uiso   1.00
Cu1214 Cu    0.74499   0.82754   0.77187   0.00000  Uiso   1.00
H1215  H     0.89638   0.90456   0.90108   0.00000  Uiso   1.00
H1216  H     0.60364   0.76204   0.76540   0.00000  Uiso   1.00
H1217  H     0.87958   0.76390   0.76333   0.00000  Uiso   1.00
H1218  H     0.62040   0.90214   0.90396   0.00000  Uiso   1.00
H1219  H     0.94491   0.72116   0.72737   0.00000  Uiso   1.00
H1220  H     0.55512   0.94499   0.93974   0.00000  Uiso   1.00
N1221  N     0.73744   0.81881   0.67951   0.00000  Uiso   1.00
N1222  N     0.76255   0.84786   0.98716   0.00000  Uiso   1.00
O1223  O     0.75325   0.76204   0.87326   0.00000  Uiso   1.00
O1224  O     0.74674   0.90462   0.79341   0.00000  Uiso   1.00
O1225  O     0.74480   0.75226   0.76945   0.00000  Uiso   1.00
O1226  O     0.75520   0.91441   0.89721   0.00000  Uiso   1.00
O1227  O     0.68935   0.83821   0.88524   0.00000  Uiso   1.00
O1228  O     0.81064   0.82845   0.78143   0.00000  Uiso   1.00
O1229  O     0.68090   0.82843   0.78143   0.00000  Uiso   1.00
O1230  O     0.81910   0.83824   0.88523   0.00000  Uiso   1.00
O1231  O     0.53102   0.70975   0.72119   0.00000  Uiso   1.00
C1232  C     0.53153   0.99973   0.75041   0.00000  Uiso   1.00
H1233  H     0.99679   0.98451   0.75520   0.00000  Uiso   1.00
H1234  H     0.55187   0.67640   0.79564   0.00000  Uiso   1.00
H1235  H     0.54742   0.96763   0.72214   0.00000  Uiso   1.00
O1236  O     0.96900   0.95658   0.94566   0.00000  Uiso   1.00
C1237  C     0.96882   0.66671   0.91661   0.00000  Uiso   1.00
H1238  H     0.94873   0.99020   0.87119   0.00000  Uiso   1.00
H1239  H     0.50367   0.68187   0.91225   0.00000  Uiso   1.00
H1240  H     0.95283   0.69879   0.94477   0.00000  Uiso   1.00
O1241  O     0.79506   0.99521   0.78416   0.00000  Uiso   1.00
C1242  C     0.83583   0.67527   0.82277   0.00000  Uiso   1.00
H1243  H     0.83717   0.98633   0.86032   0.00000  Uiso   1.00
H1244  H     0.84098   0.71822   0.84171   0.00000  Uiso   1.00
H1245  H     0.86444   0.99800   0.79625   0.00000  Uiso   1.00
O1246  O     0.70740   0.67315   0.88785   0.00000  Uiso   1.00
C1247  C     0.66475   0.99405   0.85377   0.00000  Uiso   1.00
H1248  H     0.65896   0.95157   0.83247   0.00000  Uiso   1.00
H1249  H     0.66052   0.68499   0.81830   0.00000  Uiso   1.00
H1250  H     0.63828   0.66965   0.88457   0.00000  Uiso   1.00
O1251  O     0.71204   0.78066   0.97280   0.00000  Uiso   1.00
C1252  C     0.67028   0.77323   0.99440   0.00000  Uiso   1.00
H1253  H     0.64705   0.74893   0.95709   0.00000  Uiso   1.00
H1254  H     0.65470   0.81108   0.67342   0.00000  Uiso   1.00
H1255  H     0.67318   0.75113   0.69850   0.00000  Uiso   1.00
O1256  O     0.79765   0.87385   0.69179   0.00000  Uiso   1.00
C1257  C     0.81103   0.91970   0.67204   0.00000  Uiso   1.00
H1258  H     0.83898   0.94089   0.70474   0.00000  Uiso   1.00
H1259  H     0.78310   0.94597   0.67130   0.00000  Uiso   1.00
H1260  H     0.82543   0.91163   0.96176   0.00000  Uiso   1.00
loop_
_geom_bond_atom_site_label_1
_geom_bond_atom_site_label_2
_geom_bond_distance
_geom_bond_site_symmetry_2
_ccdc_geom_bond_type
C1     C5      1.423   .     S
C1     O33     1.289   .     A
C1     O35     1.298   .     A
C2     O34     1.294   .     A
C2     C6      1.426   .     S
C2     O36     1.295   .     A
C3     C20     1.409   .     A
C3     O41     1.383   .     S
C3     C91     1.399   1_455 S
C4     O46     1.383   .     S
C4     C19     1.409   .     A
C4     C92     1.399   .     S
C5     C286    1.339   1_545 S
C5     O331    1.385   1_545 S
C6     C145    1.339   .     S
C6     O196    1.388   .     S
C7     O37     1.301   .     A
C7     C12     1.444   .     S
C7     O39     1.302   .     A
C8     C11     1.444   .     S
C8     O38     1.301   .     A
C8     O40     1.302   .     A
C9     H25     1.084   .     S
C9     C11     1.396   .     A
C9     C19     1.397   .     A
C10    H26     1.084   .     S
C10    C12     1.396   .     A
C10    C20     1.397   .     A
C11    C13     1.396   .     A
C12    C14     1.396   .     A
C13    C15     1.392   .     A
C13    H27     1.085   .     S
C14    C16     1.392   .     A
C14    H28     1.085   .     S
C15    C21     1.400   .     A
C15    C17     1.412   .     A
C16    C22     1.400   .     A
C16    C18     1.412   .     A
C17    C19     1.416   .     A
C17    C88     1.401   .     S
C18    C20     1.416   .     A
C18    C87     1.401   1_455 S
C21    H29     1.084   .     S
C21    C73     1.399   .     S
C22    H30     1.084   .     S
C22    C74     1.399   1_455 S
Cu23   O40     1.952   .     S
Cu23   O33     1.967   .     S
Cu23   Cu24    2.716   .     S
Cu23   N32     2.041   .     S
Cu23   O36     1.948   .     S
Cu23   O37     1.955   .     S
Cu24   O38     1.955   .     S
Cu24   N31     2.041   .     S
Cu24   O35     1.948   .     S
Cu24   O39     1.952   .     S
Cu24   O34     1.967   .     S
N31    N872    1.286   1_554 S
N31    O901    1.348   1_554 S
N32    N451    1.286   .     S
N32    O486    1.349   .     S
O41    C322    1.411   1_545 S
C42    H45     1.109   .     S
C42    O181    1.411   .     S
C42    H113    1.113   1_455 S
C42    H184    1.114   .     S
H43    C112    1.113   .     S
H44    C322    1.114   1_545 S
O46    C187    1.411   .     S
C47    H50     1.109   .     S
C47    O326    1.411   1_545 S
C47    H328    1.114   1_545 S
C47    H119    1.113   .     S
H48    C187    1.114   .     S
H49    C117    1.113   1_455 S
O51    C145    1.385   .     S
O51    C192    1.415   .     S
C52    H54     1.113   .     S
C52    O331    1.415   1_545 S
C52    H333    1.113   1_545 S
C52    H335    1.108   1_545 S
H53    C192    1.113   .     S
H55    C192    1.108   .     S
O56    C286    1.388   1_545 S
O56    C337    1.413   1_545 S
C57    H58     1.114   .     S
C57    O196    1.413   .     S
C57    H199    1.112   .     S
C57    H200    1.108   .     S
H59    C337    1.112   1_545 S
H60    C337    1.108   1_545 S
O61    C62     1.400   .     S
O61    N451    1.348   .     S
C62    H63     1.107   .     S
C62    H484    1.112   .     S
C62    H485    1.108   .     S
H64    C902    1.112   1_554 S
H65    C902    1.108   1_554 S
O66    C67     1.401   .     S
O66    N872    1.349   1_554 S
C67    H68     1.105   .     S
C67    H69     1.111   .     S
C67    H910    1.099   1_554 S
H70    C487    1.099   .     S
C71    C75     1.423   .     S
C71    O103    1.289   .     A
C71    O105    1.298   .     A
C72    O104    1.294   .     A
C72    C76     1.426   .     S
C72    O106    1.295   .     A
C73    C90     1.409   .     A
C73    O111    1.383   .     S
C74    O116    1.383   .     S
C74    C89     1.409   .     A
C74    C22     1.399   1_655 S
C75    C356    1.339   1_545 S
C75    O401    1.385   1_545 S
C76    C215    1.339   .     S
C76    O266    1.388   .     S
C77    O107    1.301   .     A
C77    C82     1.444   .     S
C77    O109    1.302   .     A
C78    C81     1.444   .     S
C78    O108    1.301   .     A
C78    O110    1.302   .     A
C79    H95     1.084   .     S
C79    C81     1.396   .     A
C79    C89     1.397   .     A
C80    H96     1.084   .     S
C80    C82     1.396   .     A
C80    C90     1.397   .     A
C81    C83     1.396   .     A
C82    C84     1.396   .     A
C83    C85     1.392   .     A
C83    H97     1.085   .     S
C84    C86     1.392   .     A
C84    H98     1.085   .     S
C85    C91     1.400   .     A
C85    C87     1.412   .     A
C86    C92     1.400   .     A
C86    C88     1.412   .     A
C87    C89     1.416   .     A
C87    C18     1.401   1_655 S
C88    C90     1.416   .     A
C91    H99     1.084   .     S
C91    C3      1.399   1_655 S
C92    H100    1.084   .     S
Cu93   O110    1.952   .     S
Cu93   O103    1.967   .     S
Cu93   Cu94    2.716   .     S
Cu93   N102    2.041   .     S
Cu93   O106    1.948   .     S
Cu93   O107    1.955   .     S
Cu94   O108    1.955   .     S
Cu94   N101    2.041   .     S
Cu94   O105    1.948   .     S
Cu94   O109    1.952   .     S
Cu94   O104    1.967   .     S
N101   N942    1.286   1_554 S
N101   O971    1.348   1_554 S
N102   N521    1.286   .     S
N102   O556    1.349   .     S
O111   C392    1.411   1_545 S
C112   H115    1.109   .     S
C112   O251    1.411   .     S
C112   H254    1.114   .     S
H113   C42     1.113   1_655 S
H114   C392    1.114   1_545 S
O116   C257    1.411   .     S
C117   H120    1.109   .     S
C117   O396    1.411   1_545 S
C117   H398    1.114   1_545 S
C117   H49     1.113   1_655 S
H118   C257    1.114   .     S
O121   C215    1.385   .     S
O121   C262    1.415   .     S
C122   H124    1.113   .     S
C122   O401    1.415   1_545 S
C122   H403    1.113   1_545 S
C122   H405    1.108   1_545 S
H123   C262    1.113   .     S
H125   C262    1.108   .     S
O126   C356    1.388   1_545 S
O126   C407    1.413   1_545 S
C127   H128    1.114   .     S
C127   O266    1.413   .     S
C127   H269    1.112   .     S
C127   H270    1.108   .     S
H129   C407    1.112   1_545 S
H130   C407    1.108   1_545 S
O131   C132    1.400   .     S
O131   N521    1.348   .     S
C132   H133    1.107   .     S
C132   H554    1.112   .     S
C132   H555    1.108   .     S
H134   C972    1.112   1_554 S
H135   C972    1.108   1_554 S
O136   C137    1.401   .     S
O136   N942    1.349   1_554 S
C137   H138    1.105   .     S
C137   H139    1.111   .     S
C137   H980    1.099   1_554 S
H140   C557    1.099   .     S
C141   C145    1.423   .     S
C141   O173    1.289   .     A
C141   O175    1.298   .     A
C142   O174    1.294   .     A
C142   C146    1.426   .     S
C142   O176    1.295   .     A
C143   C160    1.409   .     A
C143   O181    1.383   .     S
C143   C231    1.399   1_455 S
C144   O186    1.383   .     S
C144   C159    1.409   .     A
C144   C232    1.399   .     S
C146   C285    1.339   .     S
C146   O336    1.388   .     S
C147   O177    1.301   .     A
C147   C152    1.444   .     S
C147   O179    1.302   .     A
C148   C151    1.444   .     S
C148   O178    1.301   .     A
C148   O180    1.302   .     A
C149   H165    1.084   .     S
C149   C151    1.396   .     A
C149   C159    1.397   .     A
C150   H166    1.084   .     S
C150   C152    1.396   .     A
C150   C160    1.397   .     A
C151   C153    1.396   .     A
C152   C154    1.396   .     A
C153   C155    1.392   .     A
C153   H167    1.085   .     S
C154   C156    1.392   .     A
C154   H168    1.085   .     S
C155   C161    1.400   .     A
C155   C157    1.412   .     A
C156   C162    1.400   .     A
C156   C158    1.412   .     A
C157   C159    1.416   .     A
C157   C228    1.401   .     S
C158   C160    1.416   .     A
C158   C227    1.401   1_455 S
C161   H169    1.084   .     S
C161   C213    1.399   .     S
C162   H170    1.084   .     S
C162   C214    1.399   1_455 S
Cu163  O180    1.952   .     S
Cu163  O173    1.967   .     S
Cu163  Cu164   2.716   .     S
Cu163  N172    2.041   .     S
Cu163  O176    1.948   .     S
Cu163  O177    1.955   .     S
Cu164  O178    1.955   .     S
Cu164  N171    2.041   .     S
Cu164  O175    1.948   .     S
Cu164  O179    1.952   .     S
Cu164  O174    1.967   .     S
N171   N1012   1.286   1_554 S
N171   O1041   1.348   1_554 S
N172   N591    1.286   .     S
N172   O626    1.349   .     S
C182   H185    1.109   .     S
C182   O321    1.411   .     S
C182   H253    1.113   1_455 S
C182   H324    1.114   .     S
H183   C252    1.113   .     S
O186   C327    1.411   .     S
C187   H190    1.109   .     S
C187   H259    1.113   .     S
H188   C327    1.114   .     S
H189   C257    1.113   1_455 S
O191   C285    1.385   .     S
O191   C332    1.415   .     S
C192   H194    1.113   .     S
H193   C332    1.113   .     S
H195   C332    1.108   .     S
C197   H198    1.114   .     S
C197   O336    1.413   .     S
C197   H339    1.112   .     S
C197   H340    1.108   .     S
O201   C202    1.400   .     S
O201   N591    1.348   .     S
C202   H203    1.107   .     S
C202   H624    1.112   .     S
C202   H625    1.108   .     S
H204   C1042   1.112   1_554 S
H205   C1042   1.108   1_554 S
O206   C207    1.401   .     S
O206   N1012   1.349   1_554 S
C207   H208    1.105   .     S
C207   H209    1.111   .     S
C207   H1050   1.099   1_554 S
H210   C627    1.099   .     S
C211   C215    1.423   .     S
C211   O243    1.289   .     A
C211   O245    1.298   .     A
C212   O244    1.294   .     A
C212   C216    1.426   .     S
C212   O246    1.295   .     A
C213   C230    1.409   .     A
C213   O251    1.383   .     S
C214   O256    1.383   .     S
C214   C229    1.409   .     A
C214   C162    1.399   1_655 S
C216   C355    1.339   .     S
C216   O406    1.388   .     S
C217   O247    1.301   .     A
C217   C222    1.444   .     S
C217   O249    1.302   .     A
C218   C221    1.444   .     S
C218   O248    1.301   .     A
C218   O250    1.302   .     A
C219   H235    1.084   .     S
C219   C221    1.396   .     A
C219   C229    1.397   .     A
C220   H236    1.084   .     S
C220   C222    1.396   .     A
C220   C230    1.397   .     A
C221   C223    1.396   .     A
C222   C224    1.396   .     A
C223   C225    1.392   .     A
C223   H237    1.085   .     S
C224   C226    1.392   .     A
C224   H238    1.085   .     S
C225   C231    1.400   .     A
C225   C227    1.412   .     A
C226   C232    1.400   .     A
C226   C228    1.412   .     A
C227   C229    1.416   .     A
C227   C158    1.401   1_655 S
C228   C230    1.416   .     A
C231   H239    1.084   .     S
C231   C143    1.399   1_655 S
C232   H240    1.084   .     S
Cu233  O250    1.952   .     S
Cu233  O243    1.967   .     S
Cu233  Cu234   2.716   .     S
Cu233  N242    2.041   .     S
Cu233  O246    1.948   .     S
Cu233  O247    1.955   .     S
Cu234  O248    1.955   .     S
Cu234  N241    2.041   .     S
Cu234  O245    1.948   .     S
Cu234  O249    1.952   .     S
Cu234  O244    1.967   .     S
N241   N1082   1.286   1_554 S
N241   O1111   1.348   1_554 S
N242   N661    1.286   .     S
N242   O696    1.349   .     S
C252   H255    1.109   .     S
C252   O391    1.411   .     S
C252   H394    1.114   .     S
H253   C182    1.113   1_655 S
O256   C397    1.411   .     S
C257   H260    1.109   .     S
C257   H189    1.113   1_655 S
H258   C397    1.114   .     S
O261   C355    1.385   .     S
O261   C402    1.415   .     S
C262   H264    1.113   .     S
H263   C402    1.113   .     S
H265   C402    1.108   .     S
C267   H268    1.114   .     S
C267   O406    1.413   .     S
C267   H409    1.112   .     S
C267   H410    1.108   .     S
O271   C272    1.400   .     S
O271   N661    1.348   .     S
C272   H273    1.107   .     S
C272   H694    1.112   .     S
C272   H695    1.108   .     S
H274   C1112   1.112   1_554 S
H275   C1112   1.108   1_554 S
O276   C277    1.401   .     S
O276   N1082   1.349   1_554 S
C277   H278    1.105   .     S
C277   H279    1.111   .     S
C277   H1120   1.099   1_554 S
H280   C697    1.099   .     S
C281   C285    1.423   .     S
C281   O313    1.289   .     A
C281   O315    1.298   .     A
C282   O314    1.294   .     A
C282   C286    1.426   .     S
C282   O316    1.295   .     A
C283   C300    1.409   .     A
C283   O321    1.383   .     S
C283   C371    1.399   1_455 S
C284   O326    1.383   .     S
C284   C299    1.409   .     A
C284   C372    1.399   .     S
C286   C5      1.339   1_565 S
C286   O56     1.388   1_565 S
C287   O317    1.301   .     A
C287   C292    1.444   .     S
C287   O319    1.302   .     A
C288   C291    1.444   .     S
C288   O318    1.301   .     A
C288   O320    1.302   .     A
C289   H305    1.084   .     S
C289   C291    1.396   .     A
C289   C299    1.397   .     A
C290   H306    1.084   .     S
C290   C292    1.396   .     A
C290   C300    1.397   .     A
C291   C293    1.396   .     A
C292   C294    1.396   .     A
C293   C295    1.392   .     A
C293   H307    1.085   .     S
C294   C296    1.392   .     A
C294   H308    1.085   .     S
C295   C301    1.400   .     A
C295   C297    1.412   .     A
C296   C302    1.400   .     A
C296   C298    1.412   .     A
C297   C299    1.416   .     A
C297   C368    1.401   .     S
C298   C300    1.416   .     A
C298   C367    1.401   1_455 S
C301   H309    1.084   .     S
C301   C353    1.399   .     S
C302   H310    1.084   .     S
C302   C354    1.399   1_455 S
Cu303  O320    1.952   .     S
Cu303  O313    1.967   .     S
Cu303  Cu304   2.716   .     S
Cu303  N312    2.041   .     S
Cu303  O316    1.948   .     S
Cu303  O317    1.955   .     S
Cu304  O318    1.955   .     S
Cu304  N311    2.041   .     S
Cu304  O315    1.948   .     S
Cu304  O319    1.952   .     S
Cu304  O314    1.967   .     S
N311   N1152   1.286   1_554 S
N311   O1181   1.348   1_554 S
N312   N731    1.286   .     S
N312   O766    1.349   .     S
C322   H325    1.109   .     S
C322   O41     1.411   1_565 S
C322   H393    1.113   1_455 S
C322   H44     1.114   1_565 S
H323   C392    1.113   .     S
O326   C47     1.411   1_565 S
C327   H330    1.109   .     S
C327   H399    1.113   .     S
H328   C47     1.114   1_565 S
H329   C397    1.113   1_455 S
O331   C5      1.385   1_565 S
O331   C52     1.415   1_565 S
C332   H334    1.113   .     S
H333   C52     1.113   1_565 S
H335   C52     1.108   1_565 S
C337   H338    1.114   .     S
C337   O56     1.413   1_565 S
C337   H59     1.112   1_565 S
C337   H60     1.108   1_565 S
O341   C342    1.400   .     S
O341   N731    1.348   .     S
C342   H343    1.107   .     S
C342   H764    1.112   .     S
C342   H765    1.108   .     S
H344   C1182   1.112   1_554 S
H345   C1182   1.108   1_554 S
O346   C347    1.401   .     S
O346   N1152   1.349   1_554 S
C347   H348    1.105   .     S
C347   H349    1.111   .     S
C347   H1190   1.099   1_554 S
H350   C767    1.099   .     S
C351   C355    1.423   .     S
C351   O383    1.289   .     A
C351   O385    1.298   .     A
C352   O384    1.294   .     A
C352   C356    1.426   .     S
C352   O386    1.295   .     A
C353   C370    1.409   .     A
C353   O391    1.383   .     S
C354   O396    1.383   .     S
C354   C369    1.409   .     A
C354   C302    1.399   1_655 S
C356   C75     1.339   1_565 S
C356   O126    1.388   1_565 S
C357   O387    1.301   .     A
C357   C362    1.444   .     S
C357   O389    1.302   .     A
C358   C361    1.444   .     S
C358   O388    1.301   .     A
C358   O390    1.302   .     A
C359   H375    1.084   .     S
C359   C361    1.396   .     A
C359   C369    1.397   .     A
C360   H376    1.084   .     S
C360   C362    1.396   .     A
C360   C370    1.397   .     A
C361   C363    1.396   .     A
C362   C364    1.396   .     A
C363   C365    1.392   .     A
C363   H377    1.085   .     S
C364   C366    1.392   .     A
C364   H378    1.085   .     S
C365   C371    1.400   .     A
C365   C367    1.412   .     A
C366   C372    1.400   .     A
C366   C368    1.412   .     A
C367   C369    1.416   .     A
C367   C298    1.401   1_655 S
C368   C370    1.416   .     A
C371   H379    1.084   .     S
C371   C283    1.399   1_655 S
C372   H380    1.084   .     S
Cu373  O390    1.952   .     S
Cu373  O383    1.967   .     S
Cu373  Cu374   2.716   .     S
Cu373  N382    2.041   .     S
Cu373  O386    1.948   .     S
Cu373  O387    1.955   .     S
Cu374  O388    1.955   .     S
Cu374  N381    2.041   .     S
Cu374  O385    1.948   .     S
Cu374  O389    1.952   .     S
Cu374  O384    1.967   .     S
N381   N1222   1.286   1_554 S
N381   O1251   1.348   1_554 S
N382   N801    1.286   .     S
N382   O836    1.349   .     S
C392   H395    1.109   .     S
C392   O111    1.411   1_565 S
C392   H114    1.114   1_565 S
H393   C322    1.113   1_655 S
O396   C117    1.411   1_565 S
C397   H400    1.109   .     S
C397   H329    1.113   1_655 S
H398   C117    1.114   1_565 S
O401   C75     1.385   1_565 S
O401   C122    1.415   1_565 S
C402   H404    1.113   .     S
H403   C122    1.113   1_565 S
H405   C122    1.108   1_565 S
C407   H408    1.114   .     S
C407   O126    1.413   1_565 S
C407   H129    1.112   1_565 S
C407   H130    1.108   1_565 S
O411   C412    1.400   .     S
O411   N801    1.348   .     S
C412   H413    1.107   .     S
C412   H834    1.112   .     S
C412   H835    1.108   .     S
H414   C1252   1.112   1_554 S
H415   C1252   1.108   1_554 S
O416   C417    1.401   .     S
O416   N1222   1.349   1_554 S
C417   H418    1.105   .     S
C417   H419    1.111   .     S
C417   H1260   1.099   1_554 S
H420   C837    1.099   .     S
C421   C425    1.423   .     S
C421   O453    1.289   .     A
C421   O455    1.298   .     A
C422   O454    1.294   .     A
C422   C426    1.426   .     S
C422   O456    1.295   .     A
C423   C440    1.409   .     A
C423   O461    1.383   .     S
C423   C511    1.399   1_455 S
C424   O466    1.383   .     S
C424   C439    1.409   .     A
C424   C512    1.399   .     S
C425   C706    1.339   1_545 S
C425   O751    1.385   1_545 S
C426   C565    1.339   .     S
C426   O616    1.388   .     S
C427   O457    1.301   .     A
C427   C432    1.444   .     S
C427   O459    1.302   .     A
C428   C431    1.444   .     S
C428   O458    1.301   .     A
C428   O460    1.302   .     A
C429   H445    1.084   .     S
C429   C431    1.396   .     A
C429   C439    1.397   .     A
C430   H446    1.084   .     S
C430   C432    1.396   .     A
C430   C440    1.397   .     A
C431   C433    1.396   .     A
C432   C434    1.396   .     A
C433   C435    1.392   .     A
C433   H447    1.085   .     S
C434   C436    1.392   .     A
C434   H448    1.085   .     S
C435   C441    1.400   .     A
C435   C437    1.412   .     A
C436   C442    1.400   .     A
C436   C438    1.412   .     A
C437   C439    1.416   .     A
C437   C508    1.401   .     S
C438   C440    1.416   .     A
C438   C507    1.401   1_455 S
C441   H449    1.084   .     S
C441   C493    1.399   .     S
C442   H450    1.084   .     S
C442   C494    1.399   1_455 S
Cu443  O460    1.952   .     S
Cu443  O453    1.967   .     S
Cu443  Cu444   2.716   .     S
Cu443  N452    2.041   .     S
Cu443  O456    1.948   .     S
Cu443  O457    1.955   .     S
Cu444  O458    1.955   .     S
Cu444  N451    2.041   .     S
Cu444  O455    1.948   .     S
Cu444  O459    1.952   .     S
Cu444  O454    1.967   .     S
N452   N871    1.286   .     S
N452   O906    1.349   .     S
O461   C742    1.411   1_545 S
C462   H465    1.109   .     S
C462   O601    1.411   .     S
C462   H533    1.113   1_455 S
C462   H604    1.114   .     S
H463   C532    1.113   .     S
H464   C742    1.114   1_545 S
O466   C607    1.411   .     S
C467   H470    1.109   .     S
C467   O746    1.411   1_545 S
C467   H748    1.114   1_545 S
C467   H539    1.113   .     S
H468   C607    1.114   .     S
H469   C537    1.113   1_455 S
O471   C565    1.385   .     S
O471   C612    1.415   .     S
C472   H474    1.113   .     S
C472   O751    1.415   1_545 S
C472   H753    1.113   1_545 S
C472   H755    1.108   1_545 S
H473   C612    1.113   .     S
H475   C612    1.108   .     S
O476   C706    1.388   1_545 S
O476   C757    1.413   1_545 S
C477   H478    1.114   .     S
C477   O616    1.413   .     S
C477   H619    1.112   .     S
C477   H620    1.108   .     S
H479   C757    1.112   1_545 S
H480   C757    1.108   1_545 S
O481   C482    1.400   .     S
O481   N871    1.348   .     S
C482   H483    1.107   .     S
C482   H904    1.112   .     S
C482   H905    1.108   .     S
O486   C487    1.401   .     S
C487   H488    1.105   .     S
C487   H489    1.111   .     S
H490   C907    1.099   .     S
C491   C495    1.423   .     S
C491   O523    1.289   .     A
C491   O525    1.298   .     A
C492   O524    1.294   .     A
C492   C496    1.426   .     S
C492   O526    1.295   .     A
C493   C510    1.409   .     A
C493   O531    1.383   .     S
C494   O536    1.383   .     S
C494   C509    1.409   .     A
C494   C442    1.399   1_655 S
C495   C776    1.339   1_545 S
C495   O821    1.385   1_545 S
C496   C635    1.339   .     S
C496   O686    1.388   .     S
C497   O527    1.301   .     A
C497   C502    1.444   .     S
C497   O529    1.302   .     A
C498   C501    1.444   .     S
C498   O528    1.301   .     A
C498   O530    1.302   .     A
C499   H515    1.084   .     S
C499   C501    1.396   .     A
C499   C509    1.397   .     A
C500   H516    1.084   .     S
C500   C502    1.396   .     A
C500   C510    1.397   .     A
C501   C503    1.396   .     A
C502   C504    1.396   .     A
C503   C505    1.392   .     A
C503   H517    1.085   .     S
C504   C506    1.392   .     A
C504   H518    1.085   .     S
C505   C511    1.400   .     A
C505   C507    1.412   .     A
C506   C512    1.400   .     A
C506   C508    1.412   .     A
C507   C509    1.416   .     A
C507   C438    1.401   1_655 S
C508   C510    1.416   .     A
C511   H519    1.084   .     S
C511   C423    1.399   1_655 S
C512   H520    1.084   .     S
Cu513  O530    1.952   .     S
Cu513  O523    1.967   .     S
Cu513  Cu514   2.716   .     S
Cu513  N522    2.041   .     S
Cu513  O526    1.948   .     S
Cu513  O527    1.955   .     S
Cu514  O528    1.955   .     S
Cu514  N521    2.041   .     S
Cu514  O525    1.948   .     S
Cu514  O529    1.952   .     S
Cu514  O524    1.967   .     S
N522   N941    1.286   .     S
N522   O976    1.349   .     S
O531   C812    1.411   1_545 S
C532   H535    1.109   .     S
C532   O671    1.411   .     S
C532   H674    1.114   .     S
H533   C462    1.113   1_655 S
H534   C812    1.114   1_545 S
O536   C677    1.411   .     S
C537   H540    1.109   .     S
C537   O816    1.411   1_545 S
C537   H818    1.114   1_545 S
C537   H469    1.113   1_655 S
H538   C677    1.114   .     S
O541   C635    1.385   .     S
O541   C682    1.415   .     S
C542   H544    1.113   .     S
C542   O821    1.415   1_545 S
C542   H823    1.113   1_545 S
C542   H825    1.108   1_545 S
H543   C682    1.113   .     S
H545   C682    1.108   .     S
O546   C776    1.388   1_545 S
O546   C827    1.413   1_545 S
C547   H548    1.114   .     S
C547   O686    1.413   .     S
C547   H689    1.112   .     S
C547   H690    1.108   .     S
H549   C827    1.112   1_545 S
H550   C827    1.108   1_545 S
O551   C552    1.400   .     S
O551   N941    1.348   .     S
C552   H553    1.107   .     S
C552   H974    1.112   .     S
C552   H975    1.108   .     S
O556   C557    1.401   .     S
C557   H558    1.105   .     S
C557   H559    1.111   .     S
H560   C977    1.099   .     S
C561   C565    1.423   .     S
C561   O593    1.289   .     A
C561   O595    1.298   .     A
C562   O594    1.294   .     A
C562   C566    1.426   .     S
C562   O596    1.295   .     A
C563   C580    1.409   .     A
C563   O601    1.383   .     S
C563   C651    1.399   1_455 S
C564   O606    1.383   .     S
C564   C579    1.409   .     A
C564   C652    1.399   .     S
C566   C705    1.339   .     S
C566   O756    1.388   .     S
C567   O597    1.301   .     A
C567   C572    1.444   .     S
C567   O599    1.302   .     A
C568   C571    1.444   .     S
C568   O598    1.301   .     A
C568   O600    1.302   .     A
C569   H585    1.084   .     S
C569   C571    1.396   .     A
C569   C579    1.397   .     A
C570   H586    1.084   .     S
C570   C572    1.396   .     A
C570   C580    1.397   .     A
C571   C573    1.396   .     A
C572   C574    1.396   .     A
C573   C575    1.392   .     A
C573   H587    1.085   .     S
C574   C576    1.392   .     A
C574   H588    1.085   .     S
C575   C581    1.400   .     A
C575   C577    1.412   .     A
C576   C582    1.400   .     A
C576   C578    1.412   .     A
C577   C579    1.416   .     A
C577   C648    1.401   .     S
C578   C580    1.416   .     A
C578   C647    1.401   1_455 S
C581   H589    1.084   .     S
C581   C633    1.399   .     S
C582   H590    1.084   .     S
C582   C634    1.399   1_455 S
Cu583  O600    1.952   .     S
Cu583  O593    1.967   .     S
Cu583  Cu584   2.716   .     S
Cu583  N592    2.041   .     S
Cu583  O596    1.948   .     S
Cu583  O597    1.955   .     S
Cu584  O598    1.955   .     S
Cu584  N591    2.041   .     S
Cu584  O595    1.948   .     S
Cu584  O599    1.952   .     S
Cu584  O594    1.967   .     S
N592   N1011   1.286   .     S
N592   O1046   1.349   .     S
C602   H605    1.109   .     S
C602   O741    1.411   .     S
C602   H673    1.113   1_455 S
C602   H744    1.114   .     S
H603   C672    1.113   .     S
O606   C747    1.411   .     S
C607   H610    1.109   .     S
C607   H679    1.113   .     S
H608   C747    1.114   .     S
H609   C677    1.113   1_455 S
O611   C705    1.385   .     S
O611   C752    1.415   .     S
C612   H614    1.113   .     S
H613   C752    1.113   .     S
H615   C752    1.108   .     S
C617   H618    1.114   .     S
C617   O756    1.413   .     S
C617   H759    1.112   .     S
C617   H760    1.108   .     S
O621   C622    1.400   .     S
O621   N1011   1.348   .     S
C622   H623    1.107   .     S
C622   H1044   1.112   .     S
C622   H1045   1.108   .     S
O626   C627    1.401   .     S
C627   H628    1.105   .     S
C627   H629    1.111   .     S
H630   C1047   1.099   .     S
C631   C635    1.423   .     S
C631   O663    1.289   .     A
C631   O665    1.298   .     A
C632   O664    1.294   .     A
C632   C636    1.426   .     S
C632   O666    1.295   .     A
C633   C650    1.409   .     A
C633   O671    1.383   .     S
C634   O676    1.383   .     S
C634   C649    1.409   .     A
C634   C582    1.399   1_655 S
C636   C775    1.339   .     S
C636   O826    1.388   .     S
C637   O667    1.301   .     A
C637   C642    1.444   .     S
C637   O669    1.302   .     A
C638   C641    1.444   .     S
C638   O668    1.301   .     A
C638   O670    1.302   .     A
C639   H655    1.084   .     S
C639   C641    1.396   .     A
C639   C649    1.397   .     A
C640   H656    1.084   .     S
C640   C642    1.396   .     A
C640   C650    1.397   .     A
C641   C643    1.396   .     A
C642   C644    1.396   .     A
C643   C645    1.392   .     A
C643   H657    1.085   .     S
C644   C646    1.392   .     A
C644   H658    1.085   .     S
C645   C651    1.400   .     A
C645   C647    1.412   .     A
C646   C652    1.400   .     A
C646   C648    1.412   .     A
C647   C649    1.416   .     A
C647   C578    1.401   1_655 S
C648   C650    1.416   .     A
C651   H659    1.084   .     S
C651   C563    1.399   1_655 S
C652   H660    1.084   .     S
Cu653  O670    1.952   .     S
Cu653  O663    1.967   .     S
Cu653  Cu654   2.716   .     S
Cu653  N662    2.041   .     S
Cu653  O666    1.948   .     S
Cu653  O667    1.955   .     S
Cu654  O668    1.955   .     S
Cu654  N661    2.041   .     S
Cu654  O665    1.948   .     S
Cu654  O669    1.952   .     S
Cu654  O664    1.967   .     S
N662   N1081   1.286   .     S
N662   O1116   1.349   .     S
C672   H675    1.109   .     S
C672   O811    1.411   .     S
C672   H814    1.114   .     S
H673   C602    1.113   1_655 S
O676   C817    1.411   .     S
C677   H680    1.109   .     S
C677   H609    1.113   1_655 S
H678   C817    1.114   .     S
O681   C775    1.385   .     S
O681   C822    1.415   .     S
C682   H684    1.113   .     S
H683   C822    1.113   .     S
H685   C822    1.108   .     S
C687   H688    1.114   .     S
C687   O826    1.413   .     S
C687   H829    1.112   .     S
C687   H830    1.108   .     S
O691   C692    1.400   .     S
O691   N1081   1.348   .     S
C692   H693    1.107   .     S
C692   H1114   1.112   .     S
C692   H1115   1.108   .     S
O696   C697    1.401   .     S
C697   H698    1.105   .     S
C697   H699    1.111   .     S
H700   C1117   1.099   .     S
C701   C705    1.423   .     S
C701   O733    1.289   .     A
C701   O735    1.298   .     A
C702   O734    1.294   .     A
C702   C706    1.426   .     S
C702   O736    1.295   .     A
C703   C720    1.409   .     A
C703   O741    1.383   .     S
C703   C791    1.399   1_455 S
C704   O746    1.383   .     S
C704   C719    1.409   .     A
C704   C792    1.399   .     S
C706   C425    1.339   1_565 S
C706   O476    1.388   1_565 S
C707   O737    1.301   .     A
C707   C712    1.444   .     S
C707   O739    1.302   .     A
C708   C711    1.444   .     S
C708   O738    1.301   .     A
C708   O740    1.302   .     A
C709   H725    1.084   .     S
C709   C711    1.396   .     A
C709   C719    1.397   .     A
C710   H726    1.084   .     S
C710   C712    1.396   .     A
C710   C720    1.397   .     A
C711   C713    1.396   .     A
C712   C714    1.396   .     A
C713   C715    1.392   .     A
C713   H727    1.085   .     S
C714   C716    1.392   .     A
C714   H728    1.085   .     S
C715   C721    1.400   .     A
C715   C717    1.412   .     A
C716   C722    1.400   .     A
C716   C718    1.412   .     A
C717   C719    1.416   .     A
C717   C788    1.401   .     S
C718   C720    1.416   .     A
C718   C787    1.401   1_455 S
C721   H729    1.084   .     S
C721   C773    1.399   .     S
C722   H730    1.084   .     S
C722   C774    1.399   1_455 S
Cu723  O740    1.952   .     S
Cu723  O733    1.967   .     S
Cu723  Cu724   2.716   .     S
Cu723  N732    2.041   .     S
Cu723  O736    1.948   .     S
Cu723  O737    1.955   .     S
Cu724  O738    1.955   .     S
Cu724  N731    2.041   .     S
Cu724  O735    1.948   .     S
Cu724  O739    1.952   .     S
Cu724  O734    1.967   .     S
N732   N1151   1.286   .     S
N732   O1186   1.349   .     S
C742   H745    1.109   .     S
C742   O461    1.411   1_565 S
C742   H813    1.113   1_455 S
C742   H464    1.114   1_565 S
H743   C812    1.113   .     S
O746   C467    1.411   1_565 S
C747   H750    1.109   .     S
C747   H819    1.113   .     S
H748   C467    1.114   1_565 S
H749   C817    1.113   1_455 S
O751   C425    1.385   1_565 S
O751   C472    1.415   1_565 S
C752   H754    1.113   .     S
H753   C472    1.113   1_565 S
H755   C472    1.108   1_565 S
C757   H758    1.114   .     S
C757   O476    1.413   1_565 S
C757   H479    1.112   1_565 S
C757   H480    1.108   1_565 S
O761   C762    1.400   .     S
O761   N1151   1.348   .     S
C762   H763    1.107   .     S
C762   H1184   1.112   .     S
C762   H1185   1.108   .     S
O766   C767    1.401   .     S
C767   H768    1.105   .     S
C767   H769    1.111   .     S
H770   C1187   1.099   .     S
C771   C775    1.423   .     S
C771   O803    1.289   .     A
C771   O805    1.298   .     A
C772   O804    1.294   .     A
C772   C776    1.426   .     S
C772   O806    1.295   .     A
C773   C790    1.409   .     A
C773   O811    1.383   .     S
C774   O816    1.383   .     S
C774   C789    1.409   .     A
C774   C722    1.399   1_655 S
C776   C495    1.339   1_565 S
C776   O546    1.388   1_565 S
C777   O807    1.301   .     A
C777   C782    1.444   .     S
C777   O809    1.302   .     A
C778   C781    1.444   .     S
C778   O808    1.301   .     A
C778   O810    1.302   .     A
C779   H795    1.084   .     S
C779   C781    1.396   .     A
C779   C789    1.397   .     A
C780   H796    1.084   .     S
C780   C782    1.396   .     A
C780   C790    1.397   .     A
C781   C783    1.396   .     A
C782   C784    1.396   .     A
C783   C785    1.392   .     A
C783   H797    1.085   .     S
C784   C786    1.392   .     A
C784   H798    1.085   .     S
C785   C791    1.400   .     A
C785   C787    1.412   .     A
C786   C792    1.400   .     A
C786   C788    1.412   .     A
C787   C789    1.416   .     A
C787   C718    1.401   1_655 S
C788   C790    1.416   .     A
C791   H799    1.084   .     S
C791   C703    1.399   1_655 S
C792   H800    1.084   .     S
Cu793  O810    1.952   .     S
Cu793  O803    1.967   .     S
Cu793  Cu794   2.716   .     S
Cu793  N802    2.041   .     S
Cu793  O806    1.948   .     S
Cu793  O807    1.955   .     S
Cu794  O808    1.955   .     S
Cu794  N801    2.041   .     S
Cu794  O805    1.948   .     S
Cu794  O809    1.952   .     S
Cu794  O804    1.967   .     S
N802   N1221   1.286   .     S
N802   O1256   1.349   .     S
C812   H815    1.109   .     S
C812   O531    1.411   1_565 S
C812   H534    1.114   1_565 S
H813   C742    1.113   1_655 S
O816   C537    1.411   1_565 S
C817   H820    1.109   .     S
C817   H749    1.113   1_655 S
H818   C537    1.114   1_565 S
O821   C495    1.385   1_565 S
O821   C542    1.415   1_565 S
C822   H824    1.113   .     S
H823   C542    1.113   1_565 S
H825   C542    1.108   1_565 S
C827   H828    1.114   .     S
C827   O546    1.413   1_565 S
C827   H549    1.112   1_565 S
C827   H550    1.108   1_565 S
O831   C832    1.400   .     S
O831   N1221   1.348   .     S
C832   H833    1.107   .     S
C832   H1254   1.112   .     S
C832   H1255   1.108   .     S
O836   C837    1.401   .     S
C837   H838    1.105   .     S
C837   H839    1.111   .     S
H840   C1257   1.099   .     S
C841   C845    1.423   .     S
C841   O873    1.289   .     A
C841   O875    1.298   .     A
C842   O874    1.294   .     A
C842   C846    1.426   .     S
C842   O876    1.295   .     A
C843   C860    1.409   .     A
C843   O881    1.383   .     S
C843   C931    1.399   1_455 S
C844   O886    1.383   .     S
C844   C859    1.409   .     A
C844   C932    1.399   .     S
C845   C1126   1.339   1_545 S
C845   O1171   1.385   1_545 S
C846   C985    1.339   .     S
C846   O1036   1.388   .     S
C847   O877    1.301   .     A
C847   C852    1.444   .     S
C847   O879    1.302   .     A
C848   C851    1.444   .     S
C848   O878    1.301   .     A
C848   O880    1.302   .     A
C849   H865    1.084   .     S
C849   C851    1.396   .     A
C849   C859    1.397   .     A
C850   H866    1.084   .     S
C850   C852    1.396   .     A
C850   C860    1.397   .     A
C851   C853    1.396   .     A
C852   C854    1.396   .     A
C853   C855    1.392   .     A
C853   H867    1.085   .     S
C854   C856    1.392   .     A
C854   H868    1.085   .     S
C855   C861    1.400   .     A
C855   C857    1.412   .     A
C856   C862    1.400   .     A
C856   C858    1.412   .     A
C857   C859    1.416   .     A
C857   C928    1.401   .     S
C858   C860    1.416   .     A
C858   C927    1.401   1_455 S
C861   H869    1.084   .     S
C861   C913    1.399   .     S
C862   H870    1.084   .     S
C862   C914    1.399   1_455 S
Cu863  O880    1.952   .     S
Cu863  O873    1.967   .     S
Cu863  Cu864   2.716   .     S
Cu863  N872    2.041   .     S
Cu863  O876    1.948   .     S
Cu863  O877    1.955   .     S
Cu864  O878    1.955   .     S
Cu864  N871    2.041   .     S
Cu864  O875    1.948   .     S
Cu864  O879    1.952   .     S
Cu864  O874    1.967   .     S
N872   N31     1.286   1_556 S
N872   O66     1.349   1_556 S
O881   C1162   1.411   1_545 S
C882   H885    1.109   .     S
C882   O1021   1.411   .     S
C882   H953    1.113   1_455 S
C882   H1024   1.114   .     S
H883   C952    1.113   .     S
H884   C1162   1.114   1_545 S
O886   C1027   1.411   .     S
C887   H890    1.109   .     S
C887   O1166   1.411   1_545 S
C887   H1168   1.114   1_545 S
C887   H959    1.113   .     S
H888   C1027   1.114   .     S
H889   C957    1.113   1_455 S
O891   C985    1.385   .     S
O891   C1032   1.415   .     S
C892   H894    1.113   .     S
C892   O1171   1.415   1_545 S
C892   H1173   1.113   1_545 S
C892   H1175   1.108   1_545 S
H893   C1032   1.113   .     S
H895   C1032   1.108   .     S
O896   C1126   1.388   1_545 S
O896   C1177   1.413   1_545 S
C897   H898    1.114   .     S
C897   O1036   1.413   .     S
C897   H1039   1.112   .     S
C897   H1040   1.108   .     S
H899   C1177   1.112   1_545 S
H900   C1177   1.108   1_545 S
O901   C902    1.400   .     S
O901   N31     1.348   1_556 S
C902   H903    1.107   .     S
C902   H64     1.112   1_556 S
C902   H65     1.108   1_556 S
O906   C907    1.401   .     S
C907   H908    1.105   .     S
C907   H909    1.111   .     S
H910   C67     1.099   1_556 S
C911   C915    1.423   .     S
C911   O943    1.289   .     A
C911   O945    1.298   .     A
C912   O944    1.294   .     A
C912   C916    1.426   .     S
C912   O946    1.295   .     A
C913   C930    1.409   .     A
C913   O951    1.383   .     S
C914   O956    1.383   .     S
C914   C929    1.409   .     A
C914   C862    1.399   1_655 S
C915   C1196   1.339   1_545 S
C915   O1241   1.385   1_545 S
C916   C1055   1.339   .     S
C916   O1106   1.388   .     S
C917   O947    1.301   .     A
C917   C922    1.444   .     S
C917   O949    1.302   .     A
C918   C921    1.444   .     S
C918   O948    1.301   .     A
C918   O950    1.302   .     A
C919   H935    1.084   .     S
C919   C921    1.396   .     A
C919   C929    1.397   .     A
C920   H936    1.084   .     S
C920   C922    1.396   .     A
C920   C930    1.397   .     A
C921   C923    1.396   .     A
C922   C924    1.396   .     A
C923   C925    1.392   .     A
C923   H937    1.085   .     S
C924   C926    1.392   .     A
C924   H938    1.085   .     S
C925   C931    1.400   .     A
C925   C927    1.412   .     A
C926   C932    1.400   .     A
C926   C928    1.412   .     A
C927   C929    1.416   .     A
C927   C858    1.401   1_655 S
C928   C930    1.416   .     A
C931   H939    1.084   .     S
C931   C843    1.399   1_655 S
C932   H940    1.084   .     S
Cu933  O950    1.952   .     S
Cu933  O943    1.967   .     S
Cu933  Cu934   2.716   .     S
Cu933  N942    2.041   .     S
Cu933  O946    1.948   .     S
Cu933  O947    1.955   .     S
Cu934  O948    1.955   .     S
Cu934  N941    2.041   .     S
Cu934  O945    1.948   .     S
Cu934  O949    1.952   .     S
Cu934  O944    1.967   .     S
N942   N101    1.286   1_556 S
N942   O136    1.349   1_556 S
O951   C1232   1.411   1_545 S
C952   H955    1.109   .     S
C952   O1091   1.411   .     S
C952   H1094   1.114   .     S
H953   C882    1.113   1_655 S
H954   C1232   1.114   1_545 S
O956   C1097   1.411   .     S
C957   H960    1.109   .     S
C957   O1236   1.411   1_545 S
C957   H1238   1.114   1_545 S
C957   H889    1.113   1_655 S
H958   C1097   1.114   .     S
O961   C1055   1.385   .     S
O961   C1102   1.415   .     S
C962   H964    1.113   .     S
C962   O1241   1.415   1_545 S
C962   H1243   1.113   1_545 S
C962   H1245   1.108   1_545 S
H963   C1102   1.113   .     S
H965   C1102   1.108   .     S
O966   C1196   1.388   1_545 S
O966   C1247   1.413   1_545 S
C967   H968    1.114   .     S
C967   O1106   1.413   .     S
C967   H1109   1.112   .     S
C967   H1110   1.108   .     S
H969   C1247   1.112   1_545 S
H970   C1247   1.108   1_545 S
O971   C972    1.400   .     S
O971   N101    1.348   1_556 S
C972   H973    1.107   .     S
C972   H134    1.112   1_556 S
C972   H135    1.108   1_556 S
O976   C977    1.401   .     S
C977   H978    1.105   .     S
C977   H979    1.111   .     S
H980   C137    1.099   1_556 S
C981   C985    1.423   .     S
C981   O1013   1.289   .     A
C981   O1015   1.298   .     A
C982   O1014   1.294   .     A
C982   C986    1.426   .     S
C982   O1016   1.295   .     A
C983   C1000   1.409   .     A
C983   O1021   1.383   .     S
C983   C1071   1.399   1_455 S
C984   O1026   1.383   .     S
C984   C999    1.409   .     A
C984   C1072   1.399   .     S
C986   C1125   1.339   .     S
C986   O1176   1.388   .     S
C987   O1017   1.301   .     A
C987   C992    1.444   .     S
C987   O1019   1.302   .     A
C988   C991    1.444   .     S
C988   O1018   1.301   .     A
C988   O1020   1.302   .     A
C989   H1005   1.084   .     S
C989   C991    1.396   .     A
C989   C999    1.397   .     A
C990   H1006   1.084   .     S
C990   C992    1.396   .     A
C990   C1000   1.397   .     A
C991   C993    1.396   .     A
C992   C994    1.396   .     A
C993   C995    1.392   .     A
C993   H1007   1.085   .     S
C994   C996    1.392   .     A
C994   H1008   1.085   .     S
C995   C1001   1.400   .     A
C995   C997    1.412   .     A
C996   C1002   1.400   .     A
C996   C998    1.412   .     A
C997   C999    1.416   .     A
C997   C1068   1.401   .     S
C998   C1000   1.416   .     A
C998   C1067   1.401   1_455 S
C1001  H1009   1.084   .     S
C1001  C1053   1.399   .     S
C1002  H1010   1.084   .     S
C1002  C1054   1.399   1_455 S
Cu1003 O1020   1.952   .     S
Cu1003 O1013   1.967   .     S
Cu1003 Cu1004  2.716   .     S
Cu1003 N1012   2.041   .     S
Cu1003 O1016   1.948   .     S
Cu1003 O1017   1.955   .     S
Cu1004 O1018   1.955   .     S
Cu1004 N1011   2.041   .     S
Cu1004 O1015   1.948   .     S
Cu1004 O1019   1.952   .     S
Cu1004 O1014   1.967   .     S
N1012  N171    1.286   1_556 S
N1012  O206    1.349   1_556 S
C1022  H1025   1.109   .     S
C1022  O1161   1.411   .     S
C1022  H1093   1.113   1_455 S
C1022  H1164   1.114   .     S
H1023  C1092   1.113   .     S
O1026  C1167   1.411   .     S
C1027  H1030   1.109   .     S
C1027  H1099   1.113   .     S
H1028  C1167   1.114   .     S
H1029  C1097   1.113   1_455 S
O1031  C1125   1.385   .     S
O1031  C1172   1.415   .     S
C1032  H1034   1.113   .     S
H1033  C1172   1.113   .     S
H1035  C1172   1.108   .     S
C1037  H1038   1.114   .     S
C1037  O1176   1.413   .     S
C1037  H1179   1.112   .     S
C1037  H1180   1.108   .     S
O1041  C1042   1.400   .     S
O1041  N171    1.348   1_556 S
C1042  H1043   1.107   .     S
C1042  H204    1.112   1_556 S
C1042  H205    1.108   1_556 S
O1046  C1047   1.401   .     S
C1047  H1048   1.105   .     S
C1047  H1049   1.111   .     S
H1050  C207    1.099   1_556 S
C1051  C1055   1.423   .     S
C1051  O1083   1.289   .     A
C1051  O1085   1.298   .     A
C1052  O1084   1.294   .     A
C1052  C1056   1.426   .     S
C1052  O1086   1.295   .     A
C1053  C1070   1.409   .     A
C1053  O1091   1.383   .     S
C1054  O1096   1.383   .     S
C1054  C1069   1.409   .     A
C1054  C1002   1.399   1_655 S
C1056  C1195   1.339   .     S
C1056  O1246   1.388   .     S
C1057  O1087   1.301   .     A
C1057  C1062   1.444   .     S
C1057  O1089   1.302   .     A
C1058  C1061   1.444   .     S
C1058  O1088   1.301   .     A
C1058  O1090   1.302   .     A
C1059  H1075   1.084   .     S
C1059  C1061   1.396   .     A
C1059  C1069   1.397   .     A
C1060  H1076   1.084   .     S
C1060  C1062   1.396   .     A
C1060  C1070   1.397   .     A
C1061  C1063   1.396   .     A
C1062  C1064   1.396   .     A
C1063  C1065   1.392   .     A
C1063  H1077   1.085   .     S
C1064  C1066   1.392   .     A
C1064  H1078   1.085   .     S
C1065  C1071   1.400   .     A
C1065  C1067   1.412   .     A
C1066  C1072   1.400   .     A
C1066  C1068   1.412   .     A
C1067  C1069   1.416   .     A
C1067  C998    1.401   1_655 S
C1068  C1070   1.416   .     A
C1071  H1079   1.084   .     S
C1071  C983    1.399   1_655 S
C1072  H1080   1.084   .     S
Cu1073 O1090   1.952   .     S
Cu1073 O1083   1.967   .     S
Cu1073 Cu1074  2.716   .     S
Cu1073 N1082   2.041   .     S
Cu1073 O1086   1.948   .     S
Cu1073 O1087   1.955   .     S
Cu1074 O1088   1.955   .     S
Cu1074 N1081   2.041   .     S
Cu1074 O1085   1.948   .     S
Cu1074 O1089   1.952   .     S
Cu1074 O1084   1.967   .     S
N1082  N241    1.286   1_556 S
N1082  O276    1.349   1_556 S
C1092  H1095   1.109   .     S
C1092  O1231   1.411   .     S
C1092  H1234   1.114   .     S
H1093  C1022   1.113   1_655 S
O1096  C1237   1.411   .     S
C1097  H1100   1.109   .     S
C1097  H1029   1.113   1_655 S
H1098  C1237   1.114   .     S
O1101  C1195   1.385   .     S
O1101  C1242   1.415   .     S
C1102  H1104   1.113   .     S
H1103  C1242   1.113   .     S
H1105  C1242   1.108   .     S
C1107  H1108   1.114   .     S
C1107  O1246   1.413   .     S
C1107  H1249   1.112   .     S
C1107  H1250   1.108   .     S
O1111  C1112   1.400   .     S
O1111  N241    1.348   1_556 S
C1112  H1113   1.107   .     S
C1112  H274    1.112   1_556 S
C1112  H275    1.108   1_556 S
O1116  C1117   1.401   .     S
C1117  H1118   1.105   .     S
C1117  H1119   1.111   .     S
H1120  C277    1.099   1_556 S
C1121  C1125   1.423   .     S
C1121  O1153   1.289   .     A
C1121  O1155   1.298   .     A
C1122  O1154   1.294   .     A
C1122  C1126   1.426   .     S
C1122  O1156   1.295   .     A
C1123  C1140   1.409   .     A
C1123  O1161   1.383   .     S
C1123  C1211   1.399   1_455 S
C1124  O1166   1.383   .     S
C1124  C1139   1.409   .     A
C1124  C1212   1.399   .     S
C1126  C845    1.339   1_565 S
C1126  O896    1.388   1_565 S
C1127  O1157   1.301   .     A
C1127  C1132   1.444   .     S
C1127  O1159   1.302   .     A
C1128  C1131   1.444   .     S
C1128  O1158   1.301   .     A
C1128  O1160   1.302   .     A
C1129  H1145   1.084   .     S
C1129  C1131   1.396   .     A
C1129  C1139   1.397   .     A
C1130  H1146   1.084   .     S
C1130  C1132   1.396   .     A
C1130  C1140   1.397   .     A
C1131  C1133   1.396   .     A
C1132  C1134   1.396   .     A
C1133  C1135   1.392   .     A
C1133  H1147   1.085   .     S
C1134  C1136   1.392   .     A
C1134  H1148   1.085   .     S
C1135  C1141   1.400   .     A
C1135  C1137   1.412   .     A
C1136  C1142   1.400   .     A
C1136  C1138   1.412   .     A
C1137  C1139   1.416   .     A
C1137  C1208   1.401   .     S
C1138  C1140   1.416   .     A
C1138  C1207   1.401   1_455 S
C1141  H1149   1.084   .     S
C1141  C1193   1.399   .     S
C1142  H1150   1.084   .     S
C1142  C1194   1.399   1_455 S
Cu1143 O1160   1.952   .     S
Cu1143 O1153   1.967   .     S
Cu1143 Cu1144  2.716   .     S
Cu1143 N1152   2.041   .     S
Cu1143 O1156   1.948   .     S
Cu1143 O1157   1.955   .     S
Cu1144 O1158   1.955   .     S
Cu1144 N1151   2.041   .     S
Cu1144 O1155   1.948   .     S
Cu1144 O1159   1.952   .     S
Cu1144 O1154   1.967   .     S
N1152  N311    1.286   1_556 S
N1152  O346    1.349   1_556 S
C1162  H1165   1.109   .     S
C1162  O881    1.411   1_565 S
C1162  H1233   1.113   1_455 S
C1162  H884    1.114   1_565 S
H1163  C1232   1.113   .     S
O1166  C887    1.411   1_565 S
C1167  H1170   1.109   .     S
C1167  H1239   1.113   .     S
H1168  C887    1.114   1_565 S
H1169  C1237   1.113   1_455 S
O1171  C845    1.385   1_565 S
O1171  C892    1.415   1_565 S
C1172  H1174   1.113   .     S
H1173  C892    1.113   1_565 S
H1175  C892    1.108   1_565 S
C1177  H1178   1.114   .     S
C1177  O896    1.413   1_565 S
C1177  H899    1.112   1_565 S
C1177  H900    1.108   1_565 S
O1181  C1182   1.400   .     S
O1181  N311    1.348   1_556 S
C1182  H1183   1.107   .     S
C1182  H344    1.112   1_556 S
C1182  H345    1.108   1_556 S
O1186  C1187   1.401   .     S
C1187  H1188   1.105   .     S
C1187  H1189   1.111   .     S
H1190  C347    1.099   1_556 S
C1191  C1195   1.423   .     S
C1191  O1223   1.289   .     A
C1191  O1225   1.298   .     A
C1192  O1224   1.294   .     A
C1192  C1196   1.426   .     S
C1192  O1226   1.295   .     A
C1193  C1210   1.409   .     A
C1193  O1231   1.383   .     S
C1194  O1236   1.383   .     S
C1194  C1209   1.409   .     A
C1194  C1142   1.399   1_655 S
C1196  C915    1.339   1_565 S
C1196  O966    1.388   1_565 S
C1197  O1227   1.301   .     A
C1197  C1202   1.444   .     S
C1197  O1229   1.302   .     A
C1198  C1201   1.444   .     S
C1198  O1228   1.301   .     A
C1198  O1230   1.302   .     A
C1199  H1215   1.084   .     S
C1199  C1201   1.396   .     A
C1199  C1209   1.397   .     A
C1200  H1216   1.084   .     S
C1200  C1202   1.396   .     A
C1200  C1210   1.397   .     A
C1201  C1203   1.396   .     A
C1202  C1204   1.396   .     A
C1203  C1205   1.392   .     A
C1203  H1217   1.085   .     S
C1204  C1206   1.392   .     A
C1204  H1218   1.085   .     S
C1205  C1211   1.400   .     A
C1205  C1207   1.412   .     A
C1206  C1212   1.400   .     A
C1206  C1208   1.412   .     A
C1207  C1209   1.416   .     A
C1207  C1138   1.401   1_655 S
C1208  C1210   1.416   .     A
C1211  H1219   1.084   .     S
C1211  C1123   1.399   1_655 S
C1212  H1220   1.084   .     S
Cu1213 O1230   1.952   .     S
Cu1213 O1223   1.967   .     S
Cu1213 Cu1214  2.716   .     S
Cu1213 N1222   2.041   .     S
Cu1213 O1226   1.948   .     S
Cu1213 O1227   1.955   .     S
Cu1214 O1228   1.955   .     S
Cu1214 N1221   2.041   .     S
Cu1214 O1225   1.948   .     S
Cu1214 O1229   1.952   .     S
Cu1214 O1224   1.967   .     S
N1222  N381    1.286   1_556 S
N1222  O416    1.349   1_556 S
C1232  H1235   1.109   .     S
C1232  O951    1.411   1_565 S
C1232  H954    1.114   1_565 S
H1233  C1162   1.113   1_655 S
O1236  C957    1.411   1_565 S
C1237  H1240   1.109   .     S
C1237  H1169   1.113   1_655 S
H1238  C957    1.114   1_565 S
O1241  C915    1.385   1_565 S
O1241  C962    1.415   1_565 S
C1242  H1244   1.113   .     S
H1243  C962    1.113   1_565 S
H1245  C962    1.108   1_565 S
C1247  H1248   1.114   .     S
C1247  O966    1.413   1_565 S
C1247  H969    1.112   1_565 S
C1247  H970    1.108   1_565 S
O1251  C1252   1.400   .     S
O1251  N381    1.348   1_556 S
C1252  H1253   1.107   .     S
C1252  H414    1.112   1_556 S
C1252  H415    1.108   1_556 S
O1256  C1257   1.401   .     S
C1257  H1258   1.105   .     S
C1257  H1259   1.111   .     S
H1260  C417    1.099   1_556 S
