data_str_m2_o10_o17_pcu_sym.146
_audit_creation_date              2020-01-03
_audit_creation_method            'Materials Studio'
_symmetry_space_group_name_H-M    'P1'
_symmetry_Int_Tables_number       1
_symmetry_cell_setting            triclinic
loop_
_symmetry_equiv_pos_as_xyz
  x,y,z
_cell_length_a                    29.9863
_cell_length_b                    26.1866
_cell_length_c                    22.4945
_cell_angle_alpha                 102.8688
_cell_angle_beta                  94.9195
_cell_angle_gamma                 93.7836
loop_
_atom_site_label
_atom_site_type_symbol
_atom_site_fract_x
_atom_site_fract_y
_atom_site_fract_z
_atom_site_U_iso_or_equiv
_atom_site_adp_type
_atom_site_occupancy
C1     C     0.24816   0.06678   0.15142   0.00000  Uiso   1.00
C2     C     0.25185   0.26655   0.18192   0.00000  Uiso   1.00
C3     C     0.01079   0.07195   0.11344   0.00000  Uiso   1.00
C4     C     0.48920   0.26140   0.21983   0.00000  Uiso   1.00
C5     C     0.24168   0.01121   0.14426   0.00000  Uiso   1.00
C6     C     0.25832   0.32212   0.18907   0.00000  Uiso   1.00
C7     C     0.16459   0.16542   0.16690   0.00000  Uiso   1.00
C8     C     0.33541   0.16791   0.16644   0.00000  Uiso   1.00
C9     C     0.41118   0.21597   0.19496   0.00000  Uiso   1.00
C10    C     0.08883   0.11737   0.13839   0.00000  Uiso   1.00
C11    C     0.38368   0.17008   0.16588   0.00000  Uiso   1.00
C12    C     0.11632   0.16326   0.16746   0.00000  Uiso   1.00
C13    C     0.40162   0.12480   0.13710   0.00000  Uiso   1.00
C14    C     0.09838   0.20855   0.19620   0.00000  Uiso   1.00
C15    C     0.44770   0.12313   0.13838   0.00000  Uiso   1.00
C16    C     0.05230   0.21021   0.19492   0.00000  Uiso   1.00
C17    C     0.47658   0.16825   0.16654   0.00000  Uiso   1.00
C18    C     0.02342   0.16509   0.16676   0.00000  Uiso   1.00
C19    C     0.45861   0.21624   0.19424   0.00000  Uiso   1.00
C20    C     0.04139   0.11710   0.13907   0.00000  Uiso   1.00
C21    C     0.46482   0.07602   0.11268   0.00000  Uiso   1.00
C22    C     0.03517   0.25733   0.22059   0.00000  Uiso   1.00
Cu23   Cu    0.25501   0.17246   0.22813   0.00000  Uiso   1.00
Cu24   Cu    0.24500   0.16087   0.10521   0.00000  Uiso   1.00
H25    H     0.37935   0.09000   0.11544   0.00000  Uiso   1.00
H26    H     0.12065   0.24335   0.21785   0.00000  Uiso   1.00
H27    H     0.44200   0.04138   0.09257   0.00000  Uiso   1.00
H28    H     0.05800   0.29197   0.24068   0.00000  Uiso   1.00
N29    N     0.23745   0.15214   0.01284   0.00000  Uiso   1.00
N30    N     0.26256   0.18119   0.32049   0.00000  Uiso   1.00
O31    O     0.25326   0.09538   0.20659   0.00000  Uiso   1.00
O32    O     0.24675   0.23796   0.12674   0.00000  Uiso   1.00
O33    O     0.24480   0.08559   0.10279   0.00000  Uiso   1.00
O34    O     0.25520   0.24774   0.23055   0.00000  Uiso   1.00
O35    O     0.18936   0.17155   0.21857   0.00000  Uiso   1.00
O36    O     0.31065   0.16179   0.11476   0.00000  Uiso   1.00
O37    O     0.18090   0.16176   0.11477   0.00000  Uiso   1.00
O38    O     0.31910   0.17157   0.21857   0.00000  Uiso   1.00
Cl39   Cl    0.38374   0.27023   0.23231   0.00000  Uiso   1.00
Cl40   Cl    0.11627   0.06307   0.10115   0.00000  Uiso   1.00
Cl41   Cl    0.02522   0.00754   0.08413   0.00000  Uiso   1.00
Cl42   Cl    0.47476   0.32583   0.24904   0.00000  Uiso   1.00
Cl43   Cl    0.20571   0.31078   0.07818   0.00000  Uiso   1.00
Cl44   Cl    0.29430   0.02255   0.25515   0.00000  Uiso   1.00
C45    C     0.20540   0.11550   0.30922   0.00000  Uiso   1.00
N46    N     0.17845   0.08467   0.27906   0.00000  Uiso   1.00
C47    C     0.29461   0.21784   0.02411   0.00000  Uiso   1.00
N48    N     0.32155   0.24866   0.05427   0.00000  Uiso   1.00
C49    C     0.74816   0.06678   0.15142   0.00000  Uiso   1.00
C50    C     0.75185   0.26655   0.18192   0.00000  Uiso   1.00
C51    C     0.51079   0.07195   0.11344   0.00000  Uiso   1.00
C52    C     0.98920   0.26140   0.21983   0.00000  Uiso   1.00
C53    C     0.74168   0.01121   0.14426   0.00000  Uiso   1.00
C54    C     0.75832   0.32212   0.18907   0.00000  Uiso   1.00
C55    C     0.66459   0.16542   0.16690   0.00000  Uiso   1.00
C56    C     0.83541   0.16791   0.16644   0.00000  Uiso   1.00
C57    C     0.91118   0.21597   0.19496   0.00000  Uiso   1.00
C58    C     0.58883   0.11737   0.13839   0.00000  Uiso   1.00
C59    C     0.88368   0.17008   0.16588   0.00000  Uiso   1.00
C60    C     0.61632   0.16326   0.16746   0.00000  Uiso   1.00
C61    C     0.90162   0.12480   0.13710   0.00000  Uiso   1.00
C62    C     0.59838   0.20855   0.19620   0.00000  Uiso   1.00
C63    C     0.94770   0.12313   0.13838   0.00000  Uiso   1.00
C64    C     0.55230   0.21021   0.19492   0.00000  Uiso   1.00
C65    C     0.97658   0.16825   0.16654   0.00000  Uiso   1.00
C66    C     0.52342   0.16509   0.16676   0.00000  Uiso   1.00
C67    C     0.95861   0.21624   0.19424   0.00000  Uiso   1.00
C68    C     0.54139   0.11710   0.13907   0.00000  Uiso   1.00
C69    C     0.96482   0.07602   0.11268   0.00000  Uiso   1.00
C70    C     0.53517   0.25733   0.22059   0.00000  Uiso   1.00
Cu71   Cu    0.75501   0.17246   0.22813   0.00000  Uiso   1.00
Cu72   Cu    0.74500   0.16087   0.10521   0.00000  Uiso   1.00
H73    H     0.87935   0.09000   0.11544   0.00000  Uiso   1.00
H74    H     0.62065   0.24335   0.21785   0.00000  Uiso   1.00
H75    H     0.94200   0.04138   0.09257   0.00000  Uiso   1.00
H76    H     0.55800   0.29197   0.24068   0.00000  Uiso   1.00
N77    N     0.73745   0.15214   0.01284   0.00000  Uiso   1.00
N78    N     0.76256   0.18119   0.32049   0.00000  Uiso   1.00
O79    O     0.75326   0.09538   0.20659   0.00000  Uiso   1.00
O80    O     0.74675   0.23796   0.12674   0.00000  Uiso   1.00
O81    O     0.74480   0.08559   0.10279   0.00000  Uiso   1.00
O82    O     0.75520   0.24774   0.23055   0.00000  Uiso   1.00
O83    O     0.68936   0.17155   0.21857   0.00000  Uiso   1.00
O84    O     0.81065   0.16179   0.11476   0.00000  Uiso   1.00
O85    O     0.68090   0.16176   0.11477   0.00000  Uiso   1.00
O86    O     0.81910   0.17157   0.21857   0.00000  Uiso   1.00
Cl87   Cl    0.88374   0.27023   0.23231   0.00000  Uiso   1.00
Cl88   Cl    0.61627   0.06307   0.10115   0.00000  Uiso   1.00
Cl89   Cl    0.52522   0.00754   0.08413   0.00000  Uiso   1.00
Cl90   Cl    0.97476   0.32583   0.24904   0.00000  Uiso   1.00
Cl91   Cl    0.70571   0.31078   0.07818   0.00000  Uiso   1.00
Cl92   Cl    0.79430   0.02255   0.25515   0.00000  Uiso   1.00
C93    C     0.70540   0.11550   0.30922   0.00000  Uiso   1.00
N94    N     0.67845   0.08467   0.27906   0.00000  Uiso   1.00
C95    C     0.79461   0.21784   0.02411   0.00000  Uiso   1.00
N96    N     0.82155   0.24866   0.05427   0.00000  Uiso   1.00
C97    C     0.24816   0.40011   0.15142   0.00000  Uiso   1.00
C98    C     0.25185   0.59989   0.18192   0.00000  Uiso   1.00
C99    C     0.01079   0.40528   0.11344   0.00000  Uiso   1.00
C100   C     0.48920   0.59473   0.21983   0.00000  Uiso   1.00
C101   C     0.24168   0.34455   0.14426   0.00000  Uiso   1.00
C102   C     0.25832   0.65545   0.18907   0.00000  Uiso   1.00
C103   C     0.16459   0.49876   0.16690   0.00000  Uiso   1.00
C104   C     0.33541   0.50125   0.16644   0.00000  Uiso   1.00
C105   C     0.41118   0.54930   0.19496   0.00000  Uiso   1.00
C106   C     0.08883   0.45070   0.13839   0.00000  Uiso   1.00
C107   C     0.38368   0.50341   0.16588   0.00000  Uiso   1.00
C108   C     0.11632   0.49659   0.16746   0.00000  Uiso   1.00
C109   C     0.40162   0.45813   0.13710   0.00000  Uiso   1.00
C110   C     0.09838   0.54188   0.19620   0.00000  Uiso   1.00
C111   C     0.44770   0.45646   0.13838   0.00000  Uiso   1.00
C112   C     0.05230   0.54355   0.19492   0.00000  Uiso   1.00
C113   C     0.47658   0.50159   0.16654   0.00000  Uiso   1.00
C114   C     0.02342   0.49842   0.16676   0.00000  Uiso   1.00
C115   C     0.45861   0.54958   0.19424   0.00000  Uiso   1.00
C116   C     0.04139   0.45043   0.13907   0.00000  Uiso   1.00
C117   C     0.46482   0.40936   0.11268   0.00000  Uiso   1.00
C118   C     0.03517   0.59066   0.22059   0.00000  Uiso   1.00
Cu119  Cu    0.25501   0.50579   0.22813   0.00000  Uiso   1.00
Cu120  Cu    0.24500   0.49421   0.10521   0.00000  Uiso   1.00
H121   H     0.37935   0.42333   0.11544   0.00000  Uiso   1.00
H122   H     0.12065   0.57669   0.21785   0.00000  Uiso   1.00
H123   H     0.44200   0.37472   0.09257   0.00000  Uiso   1.00
H124   H     0.05800   0.62531   0.24068   0.00000  Uiso   1.00
N125   N     0.23745   0.48547   0.01284   0.00000  Uiso   1.00
N126   N     0.26256   0.51453   0.32049   0.00000  Uiso   1.00
O127   O     0.25326   0.42871   0.20659   0.00000  Uiso   1.00
O128   O     0.24675   0.57129   0.12674   0.00000  Uiso   1.00
O129   O     0.24480   0.41892   0.10279   0.00000  Uiso   1.00
O130   O     0.25520   0.58108   0.23055   0.00000  Uiso   1.00
O131   O     0.18936   0.50488   0.21857   0.00000  Uiso   1.00
O132   O     0.31065   0.49512   0.11476   0.00000  Uiso   1.00
O133   O     0.18090   0.49510   0.11477   0.00000  Uiso   1.00
O134   O     0.31910   0.50490   0.21857   0.00000  Uiso   1.00
Cl135  Cl    0.38374   0.60357   0.23231   0.00000  Uiso   1.00
Cl136  Cl    0.11627   0.39640   0.10115   0.00000  Uiso   1.00
Cl137  Cl    0.02522   0.34087   0.08413   0.00000  Uiso   1.00
Cl138  Cl    0.47476   0.65916   0.24904   0.00000  Uiso   1.00
Cl139  Cl    0.20571   0.64412   0.07818   0.00000  Uiso   1.00
Cl140  Cl    0.29430   0.35588   0.25515   0.00000  Uiso   1.00
C141   C     0.20540   0.44883   0.30922   0.00000  Uiso   1.00
N142   N     0.17845   0.41800   0.27906   0.00000  Uiso   1.00
C143   C     0.29461   0.55117   0.02411   0.00000  Uiso   1.00
N144   N     0.32155   0.58200   0.05427   0.00000  Uiso   1.00
C145   C     0.74816   0.40011   0.15142   0.00000  Uiso   1.00
C146   C     0.75185   0.59989   0.18192   0.00000  Uiso   1.00
C147   C     0.51079   0.40528   0.11344   0.00000  Uiso   1.00
C148   C     0.98920   0.59473   0.21983   0.00000  Uiso   1.00
C149   C     0.74168   0.34455   0.14426   0.00000  Uiso   1.00
C150   C     0.75832   0.65545   0.18907   0.00000  Uiso   1.00
C151   C     0.66459   0.49876   0.16690   0.00000  Uiso   1.00
C152   C     0.83541   0.50125   0.16644   0.00000  Uiso   1.00
C153   C     0.91118   0.54930   0.19496   0.00000  Uiso   1.00
C154   C     0.58883   0.45070   0.13839   0.00000  Uiso   1.00
C155   C     0.88368   0.50341   0.16588   0.00000  Uiso   1.00
C156   C     0.61632   0.49659   0.16746   0.00000  Uiso   1.00
C157   C     0.90162   0.45813   0.13710   0.00000  Uiso   1.00
C158   C     0.59838   0.54188   0.19620   0.00000  Uiso   1.00
C159   C     0.94770   0.45646   0.13838   0.00000  Uiso   1.00
C160   C     0.55230   0.54355   0.19492   0.00000  Uiso   1.00
C161   C     0.97658   0.50159   0.16654   0.00000  Uiso   1.00
C162   C     0.52342   0.49842   0.16676   0.00000  Uiso   1.00
C163   C     0.95861   0.54958   0.19424   0.00000  Uiso   1.00
C164   C     0.54139   0.45043   0.13907   0.00000  Uiso   1.00
C165   C     0.96482   0.40936   0.11268   0.00000  Uiso   1.00
C166   C     0.53517   0.59066   0.22059   0.00000  Uiso   1.00
Cu167  Cu    0.75501   0.50579   0.22813   0.00000  Uiso   1.00
Cu168  Cu    0.74500   0.49421   0.10521   0.00000  Uiso   1.00
H169   H     0.87935   0.42333   0.11544   0.00000  Uiso   1.00
H170   H     0.62065   0.57669   0.21785   0.00000  Uiso   1.00
H171   H     0.94200   0.37472   0.09257   0.00000  Uiso   1.00
H172   H     0.55800   0.62531   0.24068   0.00000  Uiso   1.00
N173   N     0.73745   0.48547   0.01284   0.00000  Uiso   1.00
N174   N     0.76256   0.51453   0.32049   0.00000  Uiso   1.00
O175   O     0.75326   0.42871   0.20659   0.00000  Uiso   1.00
O176   O     0.74675   0.57129   0.12674   0.00000  Uiso   1.00
O177   O     0.74480   0.41892   0.10279   0.00000  Uiso   1.00
O178   O     0.75520   0.58108   0.23055   0.00000  Uiso   1.00
O179   O     0.68936   0.50488   0.21857   0.00000  Uiso   1.00
O180   O     0.81065   0.49512   0.11476   0.00000  Uiso   1.00
O181   O     0.68090   0.49510   0.11477   0.00000  Uiso   1.00
O182   O     0.81910   0.50490   0.21857   0.00000  Uiso   1.00
Cl183  Cl    0.88374   0.60357   0.23231   0.00000  Uiso   1.00
Cl184  Cl    0.61627   0.39640   0.10115   0.00000  Uiso   1.00
Cl185  Cl    0.52522   0.34087   0.08413   0.00000  Uiso   1.00
Cl186  Cl    0.97476   0.65916   0.24904   0.00000  Uiso   1.00
Cl187  Cl    0.70571   0.64412   0.07818   0.00000  Uiso   1.00
Cl188  Cl    0.79430   0.35588   0.25515   0.00000  Uiso   1.00
C189   C     0.70540   0.44883   0.30922   0.00000  Uiso   1.00
N190   N     0.67845   0.41800   0.27906   0.00000  Uiso   1.00
C191   C     0.79461   0.55117   0.02411   0.00000  Uiso   1.00
N192   N     0.82155   0.58200   0.05427   0.00000  Uiso   1.00
C193   C     0.24816   0.73345   0.15142   0.00000  Uiso   1.00
C194   C     0.25185   0.93322   0.18192   0.00000  Uiso   1.00
C195   C     0.01079   0.73862   0.11344   0.00000  Uiso   1.00
C196   C     0.48920   0.92806   0.21983   0.00000  Uiso   1.00
C197   C     0.24168   0.67788   0.14426   0.00000  Uiso   1.00
C198   C     0.25832   0.98879   0.18907   0.00000  Uiso   1.00
C199   C     0.16459   0.83209   0.16690   0.00000  Uiso   1.00
C200   C     0.33541   0.83458   0.16644   0.00000  Uiso   1.00
C201   C     0.41118   0.88263   0.19496   0.00000  Uiso   1.00
C202   C     0.08883   0.78403   0.13839   0.00000  Uiso   1.00
C203   C     0.38368   0.83675   0.16588   0.00000  Uiso   1.00
C204   C     0.11632   0.82992   0.16746   0.00000  Uiso   1.00
C205   C     0.40162   0.79146   0.13710   0.00000  Uiso   1.00
C206   C     0.09838   0.87521   0.19620   0.00000  Uiso   1.00
C207   C     0.44770   0.78980   0.13838   0.00000  Uiso   1.00
C208   C     0.05230   0.87688   0.19492   0.00000  Uiso   1.00
C209   C     0.47658   0.83492   0.16654   0.00000  Uiso   1.00
C210   C     0.02342   0.83176   0.16676   0.00000  Uiso   1.00
C211   C     0.45861   0.88291   0.19424   0.00000  Uiso   1.00
C212   C     0.04139   0.78376   0.13907   0.00000  Uiso   1.00
C213   C     0.46482   0.74269   0.11268   0.00000  Uiso   1.00
C214   C     0.03517   0.92399   0.22059   0.00000  Uiso   1.00
Cu215  Cu    0.25501   0.83913   0.22813   0.00000  Uiso   1.00
Cu216  Cu    0.24500   0.82754   0.10521   0.00000  Uiso   1.00
H217   H     0.37935   0.75666   0.11544   0.00000  Uiso   1.00
H218   H     0.12065   0.91002   0.21785   0.00000  Uiso   1.00
H219   H     0.44200   0.70805   0.09257   0.00000  Uiso   1.00
H220   H     0.05800   0.95864   0.24068   0.00000  Uiso   1.00
N221   N     0.23745   0.81881   0.01284   0.00000  Uiso   1.00
N222   N     0.26256   0.84786   0.32049   0.00000  Uiso   1.00
O223   O     0.25326   0.76204   0.20659   0.00000  Uiso   1.00
O224   O     0.24675   0.90462   0.12674   0.00000  Uiso   1.00
O225   O     0.24480   0.75226   0.10279   0.00000  Uiso   1.00
O226   O     0.25520   0.91441   0.23055   0.00000  Uiso   1.00
O227   O     0.18936   0.83821   0.21857   0.00000  Uiso   1.00
O228   O     0.31065   0.82845   0.11476   0.00000  Uiso   1.00
O229   O     0.18090   0.82843   0.11477   0.00000  Uiso   1.00
O230   O     0.31910   0.83824   0.21857   0.00000  Uiso   1.00
Cl231  Cl    0.38374   0.93690   0.23231   0.00000  Uiso   1.00
Cl232  Cl    0.11627   0.72973   0.10115   0.00000  Uiso   1.00
Cl233  Cl    0.02522   0.67420   0.08413   0.00000  Uiso   1.00
Cl234  Cl    0.47476   0.99249   0.24904   0.00000  Uiso   1.00
Cl235  Cl    0.20571   0.97745   0.07818   0.00000  Uiso   1.00
Cl236  Cl    0.29430   0.68922   0.25515   0.00000  Uiso   1.00
C237   C     0.20540   0.78216   0.30922   0.00000  Uiso   1.00
N238   N     0.17845   0.75134   0.27906   0.00000  Uiso   1.00
C239   C     0.29461   0.88450   0.02411   0.00000  Uiso   1.00
N240   N     0.32155   0.91533   0.05427   0.00000  Uiso   1.00
C241   C     0.74816   0.73345   0.15142   0.00000  Uiso   1.00
C242   C     0.75185   0.93322   0.18192   0.00000  Uiso   1.00
C243   C     0.51079   0.73862   0.11344   0.00000  Uiso   1.00
C244   C     0.98920   0.92806   0.21983   0.00000  Uiso   1.00
C245   C     0.74168   0.67788   0.14426   0.00000  Uiso   1.00
C246   C     0.75832   0.98879   0.18907   0.00000  Uiso   1.00
C247   C     0.66459   0.83209   0.16690   0.00000  Uiso   1.00
C248   C     0.83541   0.83458   0.16644   0.00000  Uiso   1.00
C249   C     0.91118   0.88263   0.19496   0.00000  Uiso   1.00
C250   C     0.58883   0.78403   0.13839   0.00000  Uiso   1.00
C251   C     0.88368   0.83675   0.16588   0.00000  Uiso   1.00
C252   C     0.61632   0.82992   0.16746   0.00000  Uiso   1.00
C253   C     0.90162   0.79146   0.13710   0.00000  Uiso   1.00
C254   C     0.59838   0.87521   0.19620   0.00000  Uiso   1.00
C255   C     0.94770   0.78980   0.13838   0.00000  Uiso   1.00
C256   C     0.55230   0.87688   0.19492   0.00000  Uiso   1.00
C257   C     0.97658   0.83492   0.16654   0.00000  Uiso   1.00
C258   C     0.52342   0.83176   0.16676   0.00000  Uiso   1.00
C259   C     0.95861   0.88291   0.19424   0.00000  Uiso   1.00
C260   C     0.54139   0.78376   0.13907   0.00000  Uiso   1.00
C261   C     0.96482   0.74269   0.11268   0.00000  Uiso   1.00
C262   C     0.53517   0.92399   0.22059   0.00000  Uiso   1.00
Cu263  Cu    0.75501   0.83913   0.22813   0.00000  Uiso   1.00
Cu264  Cu    0.74500   0.82754   0.10521   0.00000  Uiso   1.00
H265   H     0.87935   0.75666   0.11544   0.00000  Uiso   1.00
H266   H     0.62065   0.91002   0.21785   0.00000  Uiso   1.00
H267   H     0.94200   0.70805   0.09257   0.00000  Uiso   1.00
H268   H     0.55800   0.95864   0.24068   0.00000  Uiso   1.00
N269   N     0.73745   0.81881   0.01284   0.00000  Uiso   1.00
N270   N     0.76256   0.84786   0.32049   0.00000  Uiso   1.00
O271   O     0.75326   0.76204   0.20659   0.00000  Uiso   1.00
O272   O     0.74675   0.90462   0.12674   0.00000  Uiso   1.00
O273   O     0.74480   0.75226   0.10279   0.00000  Uiso   1.00
O274   O     0.75520   0.91441   0.23055   0.00000  Uiso   1.00
O275   O     0.68936   0.83821   0.21857   0.00000  Uiso   1.00
O276   O     0.81065   0.82845   0.11476   0.00000  Uiso   1.00
O277   O     0.68090   0.82843   0.11477   0.00000  Uiso   1.00
O278   O     0.81910   0.83824   0.21857   0.00000  Uiso   1.00
Cl279  Cl    0.88374   0.93690   0.23231   0.00000  Uiso   1.00
Cl280  Cl    0.61627   0.72973   0.10115   0.00000  Uiso   1.00
Cl281  Cl    0.52522   0.67420   0.08413   0.00000  Uiso   1.00
Cl282  Cl    0.97476   0.99249   0.24904   0.00000  Uiso   1.00
Cl283  Cl    0.70571   0.97745   0.07818   0.00000  Uiso   1.00
Cl284  Cl    0.79430   0.68922   0.25515   0.00000  Uiso   1.00
C285   C     0.70540   0.78216   0.30922   0.00000  Uiso   1.00
N286   N     0.67845   0.75134   0.27906   0.00000  Uiso   1.00
C287   C     0.79461   0.88450   0.02411   0.00000  Uiso   1.00
N288   N     0.82155   0.91533   0.05427   0.00000  Uiso   1.00
C289   C     0.24816   0.06678   0.48475   0.00000  Uiso   1.00
C290   C     0.25185   0.26655   0.51525   0.00000  Uiso   1.00
C291   C     0.01079   0.07195   0.44677   0.00000  Uiso   1.00
C292   C     0.48920   0.26140   0.55316   0.00000  Uiso   1.00
C293   C     0.24168   0.01121   0.47759   0.00000  Uiso   1.00
C294   C     0.25832   0.32212   0.52241   0.00000  Uiso   1.00
C295   C     0.16459   0.16542   0.50023   0.00000  Uiso   1.00
C296   C     0.33541   0.16791   0.49977   0.00000  Uiso   1.00
C297   C     0.41118   0.21597   0.52829   0.00000  Uiso   1.00
C298   C     0.08883   0.11737   0.47172   0.00000  Uiso   1.00
C299   C     0.38368   0.17008   0.49921   0.00000  Uiso   1.00
C300   C     0.11632   0.16326   0.50079   0.00000  Uiso   1.00
C301   C     0.40162   0.12480   0.47044   0.00000  Uiso   1.00
C302   C     0.09838   0.20855   0.52953   0.00000  Uiso   1.00
C303   C     0.44770   0.12313   0.47171   0.00000  Uiso   1.00
C304   C     0.05230   0.21021   0.52825   0.00000  Uiso   1.00
C305   C     0.47658   0.16825   0.49988   0.00000  Uiso   1.00
C306   C     0.02342   0.16509   0.50009   0.00000  Uiso   1.00
C307   C     0.45861   0.21624   0.52757   0.00000  Uiso   1.00
C308   C     0.04139   0.11710   0.47240   0.00000  Uiso   1.00
C309   C     0.46482   0.07602   0.44602   0.00000  Uiso   1.00
C310   C     0.03517   0.25733   0.55392   0.00000  Uiso   1.00
Cu311  Cu    0.25501   0.17246   0.56146   0.00000  Uiso   1.00
Cu312  Cu    0.24500   0.16087   0.43854   0.00000  Uiso   1.00
H313   H     0.37935   0.09000   0.44877   0.00000  Uiso   1.00
H314   H     0.12065   0.24335   0.55118   0.00000  Uiso   1.00
H315   H     0.44200   0.04138   0.42590   0.00000  Uiso   1.00
H316   H     0.05800   0.29197   0.57401   0.00000  Uiso   1.00
N317   N     0.23745   0.15214   0.34617   0.00000  Uiso   1.00
N318   N     0.26256   0.18119   0.65383   0.00000  Uiso   1.00
O319   O     0.25326   0.09538   0.53992   0.00000  Uiso   1.00
O320   O     0.24675   0.23796   0.46008   0.00000  Uiso   1.00
O321   O     0.24480   0.08559   0.43612   0.00000  Uiso   1.00
O322   O     0.25520   0.24774   0.56388   0.00000  Uiso   1.00
O323   O     0.18936   0.17155   0.55191   0.00000  Uiso   1.00
O324   O     0.31065   0.16179   0.44809   0.00000  Uiso   1.00
O325   O     0.18090   0.16176   0.44810   0.00000  Uiso   1.00
O326   O     0.31910   0.17157   0.55190   0.00000  Uiso   1.00
Cl327  Cl    0.38374   0.27023   0.56564   0.00000  Uiso   1.00
Cl328  Cl    0.11627   0.06307   0.43448   0.00000  Uiso   1.00
Cl329  Cl    0.02522   0.00754   0.41747   0.00000  Uiso   1.00
Cl330  Cl    0.47476   0.32583   0.58237   0.00000  Uiso   1.00
Cl331  Cl    0.20571   0.31078   0.41151   0.00000  Uiso   1.00
Cl332  Cl    0.29430   0.02255   0.58848   0.00000  Uiso   1.00
C333   C     0.20540   0.11550   0.64255   0.00000  Uiso   1.00
N334   N     0.17845   0.08467   0.61240   0.00000  Uiso   1.00
C335   C     0.29461   0.21784   0.35745   0.00000  Uiso   1.00
N336   N     0.32155   0.24866   0.38760   0.00000  Uiso   1.00
C337   C     0.74816   0.06678   0.48475   0.00000  Uiso   1.00
C338   C     0.75185   0.26655   0.51525   0.00000  Uiso   1.00
C339   C     0.51079   0.07195   0.44677   0.00000  Uiso   1.00
C340   C     0.98920   0.26140   0.55316   0.00000  Uiso   1.00
C341   C     0.74168   0.01121   0.47759   0.00000  Uiso   1.00
C342   C     0.75832   0.32212   0.52241   0.00000  Uiso   1.00
C343   C     0.66459   0.16542   0.50023   0.00000  Uiso   1.00
C344   C     0.83541   0.16791   0.49977   0.00000  Uiso   1.00
C345   C     0.91118   0.21597   0.52829   0.00000  Uiso   1.00
C346   C     0.58883   0.11737   0.47172   0.00000  Uiso   1.00
C347   C     0.88368   0.17008   0.49921   0.00000  Uiso   1.00
C348   C     0.61632   0.16326   0.50079   0.00000  Uiso   1.00
C349   C     0.90162   0.12480   0.47044   0.00000  Uiso   1.00
C350   C     0.59838   0.20855   0.52953   0.00000  Uiso   1.00
C351   C     0.94770   0.12313   0.47171   0.00000  Uiso   1.00
C352   C     0.55230   0.21021   0.52825   0.00000  Uiso   1.00
C353   C     0.97658   0.16825   0.49988   0.00000  Uiso   1.00
C354   C     0.52342   0.16509   0.50009   0.00000  Uiso   1.00
C355   C     0.95861   0.21624   0.52757   0.00000  Uiso   1.00
C356   C     0.54139   0.11710   0.47240   0.00000  Uiso   1.00
C357   C     0.96482   0.07602   0.44602   0.00000  Uiso   1.00
C358   C     0.53517   0.25733   0.55392   0.00000  Uiso   1.00
Cu359  Cu    0.75501   0.17246   0.56146   0.00000  Uiso   1.00
Cu360  Cu    0.74500   0.16087   0.43854   0.00000  Uiso   1.00
H361   H     0.87935   0.09000   0.44877   0.00000  Uiso   1.00
H362   H     0.62065   0.24335   0.55118   0.00000  Uiso   1.00
H363   H     0.94200   0.04138   0.42590   0.00000  Uiso   1.00
H364   H     0.55800   0.29197   0.57401   0.00000  Uiso   1.00
N365   N     0.73745   0.15214   0.34617   0.00000  Uiso   1.00
N366   N     0.76256   0.18119   0.65383   0.00000  Uiso   1.00
O367   O     0.75326   0.09538   0.53992   0.00000  Uiso   1.00
O368   O     0.74675   0.23796   0.46008   0.00000  Uiso   1.00
O369   O     0.74480   0.08559   0.43612   0.00000  Uiso   1.00
O370   O     0.75520   0.24774   0.56388   0.00000  Uiso   1.00
O371   O     0.68936   0.17155   0.55191   0.00000  Uiso   1.00
O372   O     0.81065   0.16179   0.44809   0.00000  Uiso   1.00
O373   O     0.68090   0.16176   0.44810   0.00000  Uiso   1.00
O374   O     0.81910   0.17157   0.55190   0.00000  Uiso   1.00
Cl375  Cl    0.88374   0.27023   0.56564   0.00000  Uiso   1.00
Cl376  Cl    0.61627   0.06307   0.43448   0.00000  Uiso   1.00
Cl377  Cl    0.52522   0.00754   0.41747   0.00000  Uiso   1.00
Cl378  Cl    0.97476   0.32583   0.58237   0.00000  Uiso   1.00
Cl379  Cl    0.70571   0.31078   0.41151   0.00000  Uiso   1.00
Cl380  Cl    0.79430   0.02255   0.58848   0.00000  Uiso   1.00
C381   C     0.70540   0.11550   0.64255   0.00000  Uiso   1.00
N382   N     0.67845   0.08467   0.61240   0.00000  Uiso   1.00
C383   C     0.79461   0.21784   0.35745   0.00000  Uiso   1.00
N384   N     0.82155   0.24866   0.38760   0.00000  Uiso   1.00
C385   C     0.24816   0.40011   0.48475   0.00000  Uiso   1.00
C386   C     0.25185   0.59989   0.51525   0.00000  Uiso   1.00
C387   C     0.01079   0.40528   0.44677   0.00000  Uiso   1.00
C388   C     0.48920   0.59473   0.55316   0.00000  Uiso   1.00
C389   C     0.24168   0.34455   0.47759   0.00000  Uiso   1.00
C390   C     0.25832   0.65545   0.52241   0.00000  Uiso   1.00
C391   C     0.16459   0.49876   0.50023   0.00000  Uiso   1.00
C392   C     0.33541   0.50125   0.49977   0.00000  Uiso   1.00
C393   C     0.41118   0.54930   0.52829   0.00000  Uiso   1.00
C394   C     0.08883   0.45070   0.47172   0.00000  Uiso   1.00
C395   C     0.38368   0.50341   0.49921   0.00000  Uiso   1.00
C396   C     0.11632   0.49659   0.50079   0.00000  Uiso   1.00
C397   C     0.40162   0.45813   0.47044   0.00000  Uiso   1.00
C398   C     0.09838   0.54188   0.52953   0.00000  Uiso   1.00
C399   C     0.44770   0.45646   0.47171   0.00000  Uiso   1.00
C400   C     0.05230   0.54355   0.52825   0.00000  Uiso   1.00
C401   C     0.47658   0.50159   0.49988   0.00000  Uiso   1.00
C402   C     0.02342   0.49842   0.50009   0.00000  Uiso   1.00
C403   C     0.45861   0.54958   0.52757   0.00000  Uiso   1.00
C404   C     0.04139   0.45043   0.47240   0.00000  Uiso   1.00
C405   C     0.46482   0.40936   0.44602   0.00000  Uiso   1.00
C406   C     0.03517   0.59066   0.55392   0.00000  Uiso   1.00
Cu407  Cu    0.25501   0.50579   0.56146   0.00000  Uiso   1.00
Cu408  Cu    0.24500   0.49421   0.43854   0.00000  Uiso   1.00
H409   H     0.37935   0.42333   0.44877   0.00000  Uiso   1.00
H410   H     0.12065   0.57669   0.55118   0.00000  Uiso   1.00
H411   H     0.44200   0.37472   0.42590   0.00000  Uiso   1.00
H412   H     0.05800   0.62531   0.57401   0.00000  Uiso   1.00
N413   N     0.23745   0.48547   0.34617   0.00000  Uiso   1.00
N414   N     0.26256   0.51453   0.65383   0.00000  Uiso   1.00
O415   O     0.25326   0.42871   0.53992   0.00000  Uiso   1.00
O416   O     0.24675   0.57129   0.46008   0.00000  Uiso   1.00
O417   O     0.24480   0.41892   0.43612   0.00000  Uiso   1.00
O418   O     0.25520   0.58108   0.56388   0.00000  Uiso   1.00
O419   O     0.18936   0.50488   0.55191   0.00000  Uiso   1.00
O420   O     0.31065   0.49512   0.44809   0.00000  Uiso   1.00
O421   O     0.18090   0.49510   0.44810   0.00000  Uiso   1.00
O422   O     0.31910   0.50490   0.55190   0.00000  Uiso   1.00
Cl423  Cl    0.38374   0.60357   0.56564   0.00000  Uiso   1.00
Cl424  Cl    0.11627   0.39640   0.43448   0.00000  Uiso   1.00
Cl425  Cl    0.02522   0.34087   0.41747   0.00000  Uiso   1.00
Cl426  Cl    0.47476   0.65916   0.58237   0.00000  Uiso   1.00
Cl427  Cl    0.20571   0.64412   0.41151   0.00000  Uiso   1.00
Cl428  Cl    0.29430   0.35588   0.58848   0.00000  Uiso   1.00
C429   C     0.20540   0.44883   0.64255   0.00000  Uiso   1.00
N430   N     0.17845   0.41800   0.61240   0.00000  Uiso   1.00
C431   C     0.29461   0.55117   0.35745   0.00000  Uiso   1.00
N432   N     0.32155   0.58200   0.38760   0.00000  Uiso   1.00
C433   C     0.74816   0.40011   0.48475   0.00000  Uiso   1.00
C434   C     0.75185   0.59989   0.51525   0.00000  Uiso   1.00
C435   C     0.51079   0.40528   0.44677   0.00000  Uiso   1.00
C436   C     0.98920   0.59473   0.55316   0.00000  Uiso   1.00
C437   C     0.74168   0.34455   0.47759   0.00000  Uiso   1.00
C438   C     0.75832   0.65545   0.52241   0.00000  Uiso   1.00
C439   C     0.66459   0.49876   0.50023   0.00000  Uiso   1.00
C440   C     0.83541   0.50125   0.49977   0.00000  Uiso   1.00
C441   C     0.91118   0.54930   0.52829   0.00000  Uiso   1.00
C442   C     0.58883   0.45070   0.47172   0.00000  Uiso   1.00
C443   C     0.88368   0.50341   0.49921   0.00000  Uiso   1.00
C444   C     0.61632   0.49659   0.50079   0.00000  Uiso   1.00
C445   C     0.90162   0.45813   0.47044   0.00000  Uiso   1.00
C446   C     0.59838   0.54188   0.52953   0.00000  Uiso   1.00
C447   C     0.94770   0.45646   0.47171   0.00000  Uiso   1.00
C448   C     0.55230   0.54355   0.52825   0.00000  Uiso   1.00
C449   C     0.97658   0.50159   0.49988   0.00000  Uiso   1.00
C450   C     0.52342   0.49842   0.50009   0.00000  Uiso   1.00
C451   C     0.95861   0.54958   0.52757   0.00000  Uiso   1.00
C452   C     0.54139   0.45043   0.47240   0.00000  Uiso   1.00
C453   C     0.96482   0.40936   0.44602   0.00000  Uiso   1.00
C454   C     0.53517   0.59066   0.55392   0.00000  Uiso   1.00
Cu455  Cu    0.75501   0.50579   0.56146   0.00000  Uiso   1.00
Cu456  Cu    0.74500   0.49421   0.43854   0.00000  Uiso   1.00
H457   H     0.87935   0.42333   0.44877   0.00000  Uiso   1.00
H458   H     0.62065   0.57669   0.55118   0.00000  Uiso   1.00
H459   H     0.94200   0.37472   0.42590   0.00000  Uiso   1.00
H460   H     0.55800   0.62531   0.57401   0.00000  Uiso   1.00
N461   N     0.73745   0.48547   0.34617   0.00000  Uiso   1.00
N462   N     0.76256   0.51453   0.65383   0.00000  Uiso   1.00
O463   O     0.75326   0.42871   0.53992   0.00000  Uiso   1.00
O464   O     0.74675   0.57129   0.46008   0.00000  Uiso   1.00
O465   O     0.74480   0.41892   0.43612   0.00000  Uiso   1.00
O466   O     0.75520   0.58108   0.56388   0.00000  Uiso   1.00
O467   O     0.68936   0.50488   0.55191   0.00000  Uiso   1.00
O468   O     0.81065   0.49512   0.44809   0.00000  Uiso   1.00
O469   O     0.68090   0.49510   0.44810   0.00000  Uiso   1.00
O470   O     0.81910   0.50490   0.55190   0.00000  Uiso   1.00
Cl471  Cl    0.88374   0.60357   0.56564   0.00000  Uiso   1.00
Cl472  Cl    0.61627   0.39640   0.43448   0.00000  Uiso   1.00
Cl473  Cl    0.52522   0.34087   0.41747   0.00000  Uiso   1.00
Cl474  Cl    0.97476   0.65916   0.58237   0.00000  Uiso   1.00
Cl475  Cl    0.70571   0.64412   0.41151   0.00000  Uiso   1.00
Cl476  Cl    0.79430   0.35588   0.58848   0.00000  Uiso   1.00
C477   C     0.70540   0.44883   0.64255   0.00000  Uiso   1.00
N478   N     0.67845   0.41800   0.61240   0.00000  Uiso   1.00
C479   C     0.79461   0.55117   0.35745   0.00000  Uiso   1.00
N480   N     0.82155   0.58200   0.38760   0.00000  Uiso   1.00
C481   C     0.24816   0.73345   0.48475   0.00000  Uiso   1.00
C482   C     0.25185   0.93322   0.51525   0.00000  Uiso   1.00
C483   C     0.01079   0.73862   0.44677   0.00000  Uiso   1.00
C484   C     0.48920   0.92806   0.55316   0.00000  Uiso   1.00
C485   C     0.24168   0.67788   0.47759   0.00000  Uiso   1.00
C486   C     0.25832   0.98879   0.52241   0.00000  Uiso   1.00
C487   C     0.16459   0.83209   0.50023   0.00000  Uiso   1.00
C488   C     0.33541   0.83458   0.49977   0.00000  Uiso   1.00
C489   C     0.41118   0.88263   0.52829   0.00000  Uiso   1.00
C490   C     0.08883   0.78403   0.47172   0.00000  Uiso   1.00
C491   C     0.38368   0.83675   0.49921   0.00000  Uiso   1.00
C492   C     0.11632   0.82992   0.50079   0.00000  Uiso   1.00
C493   C     0.40162   0.79146   0.47044   0.00000  Uiso   1.00
C494   C     0.09838   0.87521   0.52953   0.00000  Uiso   1.00
C495   C     0.44770   0.78980   0.47171   0.00000  Uiso   1.00
C496   C     0.05230   0.87688   0.52825   0.00000  Uiso   1.00
C497   C     0.47658   0.83492   0.49988   0.00000  Uiso   1.00
C498   C     0.02342   0.83176   0.50009   0.00000  Uiso   1.00
C499   C     0.45861   0.88291   0.52757   0.00000  Uiso   1.00
C500   C     0.04139   0.78376   0.47240   0.00000  Uiso   1.00
C501   C     0.46482   0.74269   0.44602   0.00000  Uiso   1.00
C502   C     0.03517   0.92399   0.55392   0.00000  Uiso   1.00
Cu503  Cu    0.25501   0.83913   0.56146   0.00000  Uiso   1.00
Cu504  Cu    0.24500   0.82754   0.43854   0.00000  Uiso   1.00
H505   H     0.37935   0.75666   0.44877   0.00000  Uiso   1.00
H506   H     0.12065   0.91002   0.55118   0.00000  Uiso   1.00
H507   H     0.44200   0.70805   0.42590   0.00000  Uiso   1.00
H508   H     0.05800   0.95864   0.57401   0.00000  Uiso   1.00
N509   N     0.23745   0.81881   0.34617   0.00000  Uiso   1.00
N510   N     0.26256   0.84786   0.65383   0.00000  Uiso   1.00
O511   O     0.25326   0.76204   0.53992   0.00000  Uiso   1.00
O512   O     0.24675   0.90462   0.46008   0.00000  Uiso   1.00
O513   O     0.24480   0.75226   0.43612   0.00000  Uiso   1.00
O514   O     0.25520   0.91441   0.56388   0.00000  Uiso   1.00
O515   O     0.18936   0.83821   0.55191   0.00000  Uiso   1.00
O516   O     0.31065   0.82845   0.44809   0.00000  Uiso   1.00
O517   O     0.18090   0.82843   0.44810   0.00000  Uiso   1.00
O518   O     0.31910   0.83824   0.55190   0.00000  Uiso   1.00
Cl519  Cl    0.38374   0.93690   0.56564   0.00000  Uiso   1.00
Cl520  Cl    0.11627   0.72973   0.43448   0.00000  Uiso   1.00
Cl521  Cl    0.02522   0.67420   0.41747   0.00000  Uiso   1.00
Cl522  Cl    0.47476   0.99249   0.58237   0.00000  Uiso   1.00
Cl523  Cl    0.20571   0.97745   0.41151   0.00000  Uiso   1.00
Cl524  Cl    0.29430   0.68922   0.58848   0.00000  Uiso   1.00
C525   C     0.20540   0.78216   0.64255   0.00000  Uiso   1.00
N526   N     0.17845   0.75134   0.61240   0.00000  Uiso   1.00
C527   C     0.29461   0.88450   0.35745   0.00000  Uiso   1.00
N528   N     0.32155   0.91533   0.38760   0.00000  Uiso   1.00
C529   C     0.74816   0.73345   0.48475   0.00000  Uiso   1.00
C530   C     0.75185   0.93322   0.51525   0.00000  Uiso   1.00
C531   C     0.51079   0.73862   0.44677   0.00000  Uiso   1.00
C532   C     0.98920   0.92806   0.55316   0.00000  Uiso   1.00
C533   C     0.74168   0.67788   0.47759   0.00000  Uiso   1.00
C534   C     0.75832   0.98879   0.52241   0.00000  Uiso   1.00
C535   C     0.66459   0.83209   0.50023   0.00000  Uiso   1.00
C536   C     0.83541   0.83458   0.49977   0.00000  Uiso   1.00
C537   C     0.91118   0.88263   0.52829   0.00000  Uiso   1.00
C538   C     0.58883   0.78403   0.47172   0.00000  Uiso   1.00
C539   C     0.88368   0.83675   0.49921   0.00000  Uiso   1.00
C540   C     0.61632   0.82992   0.50079   0.00000  Uiso   1.00
C541   C     0.90162   0.79146   0.47044   0.00000  Uiso   1.00
C542   C     0.59838   0.87521   0.52953   0.00000  Uiso   1.00
C543   C     0.94770   0.78980   0.47171   0.00000  Uiso   1.00
C544   C     0.55230   0.87688   0.52825   0.00000  Uiso   1.00
C545   C     0.97658   0.83492   0.49988   0.00000  Uiso   1.00
C546   C     0.52342   0.83176   0.50009   0.00000  Uiso   1.00
C547   C     0.95861   0.88291   0.52757   0.00000  Uiso   1.00
C548   C     0.54139   0.78376   0.47240   0.00000  Uiso   1.00
C549   C     0.96482   0.74269   0.44602   0.00000  Uiso   1.00
C550   C     0.53517   0.92399   0.55392   0.00000  Uiso   1.00
Cu551  Cu    0.75501   0.83913   0.56146   0.00000  Uiso   1.00
Cu552  Cu    0.74500   0.82754   0.43854   0.00000  Uiso   1.00
H553   H     0.87935   0.75666   0.44877   0.00000  Uiso   1.00
H554   H     0.62065   0.91002   0.55118   0.00000  Uiso   1.00
H555   H     0.94200   0.70805   0.42590   0.00000  Uiso   1.00
H556   H     0.55800   0.95864   0.57401   0.00000  Uiso   1.00
N557   N     0.73745   0.81881   0.34617   0.00000  Uiso   1.00
N558   N     0.76256   0.84786   0.65383   0.00000  Uiso   1.00
O559   O     0.75326   0.76204   0.53992   0.00000  Uiso   1.00
O560   O     0.74675   0.90462   0.46008   0.00000  Uiso   1.00
O561   O     0.74480   0.75226   0.43612   0.00000  Uiso   1.00
O562   O     0.75520   0.91441   0.56388   0.00000  Uiso   1.00
O563   O     0.68936   0.83821   0.55191   0.00000  Uiso   1.00
O564   O     0.81065   0.82845   0.44809   0.00000  Uiso   1.00
O565   O     0.68090   0.82843   0.44810   0.00000  Uiso   1.00
O566   O     0.81910   0.83824   0.55190   0.00000  Uiso   1.00
Cl567  Cl    0.88374   0.93690   0.56564   0.00000  Uiso   1.00
Cl568  Cl    0.61627   0.72973   0.43448   0.00000  Uiso   1.00
Cl569  Cl    0.52522   0.67420   0.41747   0.00000  Uiso   1.00
Cl570  Cl    0.97476   0.99249   0.58237   0.00000  Uiso   1.00
Cl571  Cl    0.70571   0.97745   0.41151   0.00000  Uiso   1.00
Cl572  Cl    0.79430   0.68922   0.58848   0.00000  Uiso   1.00
C573   C     0.70540   0.78216   0.64255   0.00000  Uiso   1.00
N574   N     0.67845   0.75134   0.61240   0.00000  Uiso   1.00
C575   C     0.79461   0.88450   0.35745   0.00000  Uiso   1.00
N576   N     0.82155   0.91533   0.38760   0.00000  Uiso   1.00
C577   C     0.24816   0.06678   0.81808   0.00000  Uiso   1.00
C578   C     0.25185   0.26655   0.84858   0.00000  Uiso   1.00
C579   C     0.01079   0.07195   0.78011   0.00000  Uiso   1.00
C580   C     0.48920   0.26140   0.88650   0.00000  Uiso   1.00
C581   C     0.24168   0.01121   0.81093   0.00000  Uiso   1.00
C582   C     0.25832   0.32212   0.85574   0.00000  Uiso   1.00
C583   C     0.16459   0.16542   0.83356   0.00000  Uiso   1.00
C584   C     0.33541   0.16791   0.83311   0.00000  Uiso   1.00
C585   C     0.41118   0.21597   0.86163   0.00000  Uiso   1.00
C586   C     0.08883   0.11737   0.80505   0.00000  Uiso   1.00
C587   C     0.38368   0.17008   0.83254   0.00000  Uiso   1.00
C588   C     0.11632   0.16326   0.83412   0.00000  Uiso   1.00
C589   C     0.40162   0.12480   0.80377   0.00000  Uiso   1.00
C590   C     0.09838   0.20855   0.86286   0.00000  Uiso   1.00
C591   C     0.44770   0.12313   0.80504   0.00000  Uiso   1.00
C592   C     0.05230   0.21021   0.86158   0.00000  Uiso   1.00
C593   C     0.47658   0.16825   0.83321   0.00000  Uiso   1.00
C594   C     0.02342   0.16509   0.83342   0.00000  Uiso   1.00
C595   C     0.45861   0.21624   0.86090   0.00000  Uiso   1.00
C596   C     0.04139   0.11710   0.80574   0.00000  Uiso   1.00
C597   C     0.46482   0.07602   0.77935   0.00000  Uiso   1.00
C598   C     0.03517   0.25733   0.88725   0.00000  Uiso   1.00
Cu599  Cu    0.25501   0.17246   0.89479   0.00000  Uiso   1.00
Cu600  Cu    0.24500   0.16087   0.77187   0.00000  Uiso   1.00
H601   H     0.37935   0.09000   0.78211   0.00000  Uiso   1.00
H602   H     0.12065   0.24335   0.88451   0.00000  Uiso   1.00
H603   H     0.44200   0.04138   0.75924   0.00000  Uiso   1.00
H604   H     0.05800   0.29197   0.90735   0.00000  Uiso   1.00
N605   N     0.23745   0.15214   0.67951   0.00000  Uiso   1.00
N606   N     0.26256   0.18119   0.98716   0.00000  Uiso   1.00
O607   O     0.25326   0.09538   0.87326   0.00000  Uiso   1.00
O608   O     0.24675   0.23796   0.79341   0.00000  Uiso   1.00
O609   O     0.24480   0.08559   0.76945   0.00000  Uiso   1.00
O610   O     0.25520   0.24774   0.89721   0.00000  Uiso   1.00
O611   O     0.18936   0.17155   0.88524   0.00000  Uiso   1.00
O612   O     0.31065   0.16179   0.78143   0.00000  Uiso   1.00
O613   O     0.18090   0.16176   0.78143   0.00000  Uiso   1.00
O614   O     0.31910   0.17157   0.88523   0.00000  Uiso   1.00
Cl615  Cl    0.38374   0.27023   0.89898   0.00000  Uiso   1.00
Cl616  Cl    0.11627   0.06307   0.76781   0.00000  Uiso   1.00
Cl617  Cl    0.02522   0.00754   0.75080   0.00000  Uiso   1.00
Cl618  Cl    0.47476   0.32583   0.91570   0.00000  Uiso   1.00
Cl619  Cl    0.20571   0.31078   0.74485   0.00000  Uiso   1.00
Cl620  Cl    0.29430   0.02255   0.92182   0.00000  Uiso   1.00
C621   C     0.20540   0.11550   0.97589   0.00000  Uiso   1.00
N622   N     0.17845   0.08467   0.94573   0.00000  Uiso   1.00
C623   C     0.29461   0.21784   0.69078   0.00000  Uiso   1.00
N624   N     0.32155   0.24866   0.72094   0.00000  Uiso   1.00
C625   C     0.74816   0.06678   0.81808   0.00000  Uiso   1.00
C626   C     0.75185   0.26655   0.84858   0.00000  Uiso   1.00
C627   C     0.51079   0.07195   0.78011   0.00000  Uiso   1.00
C628   C     0.98920   0.26140   0.88650   0.00000  Uiso   1.00
C629   C     0.74168   0.01121   0.81093   0.00000  Uiso   1.00
C630   C     0.75832   0.32212   0.85574   0.00000  Uiso   1.00
C631   C     0.66459   0.16542   0.83356   0.00000  Uiso   1.00
C632   C     0.83541   0.16791   0.83311   0.00000  Uiso   1.00
C633   C     0.91118   0.21597   0.86163   0.00000  Uiso   1.00
C634   C     0.58883   0.11737   0.80505   0.00000  Uiso   1.00
C635   C     0.88368   0.17008   0.83254   0.00000  Uiso   1.00
C636   C     0.61632   0.16326   0.83412   0.00000  Uiso   1.00
C637   C     0.90162   0.12480   0.80377   0.00000  Uiso   1.00
C638   C     0.59838   0.20855   0.86286   0.00000  Uiso   1.00
C639   C     0.94770   0.12313   0.80504   0.00000  Uiso   1.00
C640   C     0.55230   0.21021   0.86158   0.00000  Uiso   1.00
C641   C     0.97658   0.16825   0.83321   0.00000  Uiso   1.00
C642   C     0.52342   0.16509   0.83342   0.00000  Uiso   1.00
C643   C     0.95861   0.21624   0.86090   0.00000  Uiso   1.00
C644   C     0.54139   0.11710   0.80574   0.00000  Uiso   1.00
C645   C     0.96482   0.07602   0.77935   0.00000  Uiso   1.00
C646   C     0.53517   0.25733   0.88725   0.00000  Uiso   1.00
Cu647  Cu    0.75501   0.17246   0.89479   0.00000  Uiso   1.00
Cu648  Cu    0.74500   0.16087   0.77187   0.00000  Uiso   1.00
H649   H     0.87935   0.09000   0.78211   0.00000  Uiso   1.00
H650   H     0.62065   0.24335   0.88451   0.00000  Uiso   1.00
H651   H     0.94200   0.04138   0.75924   0.00000  Uiso   1.00
H652   H     0.55800   0.29197   0.90735   0.00000  Uiso   1.00
N653   N     0.73745   0.15214   0.67951   0.00000  Uiso   1.00
N654   N     0.76256   0.18119   0.98716   0.00000  Uiso   1.00
O655   O     0.75326   0.09538   0.87326   0.00000  Uiso   1.00
O656   O     0.74675   0.23796   0.79341   0.00000  Uiso   1.00
O657   O     0.74480   0.08559   0.76945   0.00000  Uiso   1.00
O658   O     0.75520   0.24774   0.89721   0.00000  Uiso   1.00
O659   O     0.68936   0.17155   0.88524   0.00000  Uiso   1.00
O660   O     0.81065   0.16179   0.78143   0.00000  Uiso   1.00
O661   O     0.68090   0.16176   0.78143   0.00000  Uiso   1.00
O662   O     0.81910   0.17157   0.88523   0.00000  Uiso   1.00
Cl663  Cl    0.88374   0.27023   0.89898   0.00000  Uiso   1.00
Cl664  Cl    0.61627   0.06307   0.76781   0.00000  Uiso   1.00
Cl665  Cl    0.52522   0.00754   0.75080   0.00000  Uiso   1.00
Cl666  Cl    0.97476   0.32583   0.91570   0.00000  Uiso   1.00
Cl667  Cl    0.70571   0.31078   0.74485   0.00000  Uiso   1.00
Cl668  Cl    0.79430   0.02255   0.92182   0.00000  Uiso   1.00
C669   C     0.70540   0.11550   0.97589   0.00000  Uiso   1.00
N670   N     0.67845   0.08467   0.94573   0.00000  Uiso   1.00
C671   C     0.79461   0.21784   0.69078   0.00000  Uiso   1.00
N672   N     0.82155   0.24866   0.72094   0.00000  Uiso   1.00
C673   C     0.24816   0.40011   0.81808   0.00000  Uiso   1.00
C674   C     0.25185   0.59989   0.84858   0.00000  Uiso   1.00
C675   C     0.01079   0.40528   0.78011   0.00000  Uiso   1.00
C676   C     0.48920   0.59473   0.88650   0.00000  Uiso   1.00
C677   C     0.24168   0.34455   0.81093   0.00000  Uiso   1.00
C678   C     0.25832   0.65545   0.85574   0.00000  Uiso   1.00
C679   C     0.16459   0.49876   0.83356   0.00000  Uiso   1.00
C680   C     0.33541   0.50125   0.83311   0.00000  Uiso   1.00
C681   C     0.41118   0.54930   0.86163   0.00000  Uiso   1.00
C682   C     0.08883   0.45070   0.80505   0.00000  Uiso   1.00
C683   C     0.38368   0.50341   0.83254   0.00000  Uiso   1.00
C684   C     0.11632   0.49659   0.83412   0.00000  Uiso   1.00
C685   C     0.40162   0.45813   0.80377   0.00000  Uiso   1.00
C686   C     0.09838   0.54188   0.86286   0.00000  Uiso   1.00
C687   C     0.44770   0.45646   0.80504   0.00000  Uiso   1.00
C688   C     0.05230   0.54355   0.86158   0.00000  Uiso   1.00
C689   C     0.47658   0.50159   0.83321   0.00000  Uiso   1.00
C690   C     0.02342   0.49842   0.83342   0.00000  Uiso   1.00
C691   C     0.45861   0.54958   0.86090   0.00000  Uiso   1.00
C692   C     0.04139   0.45043   0.80574   0.00000  Uiso   1.00
C693   C     0.46482   0.40936   0.77935   0.00000  Uiso   1.00
C694   C     0.03517   0.59066   0.88725   0.00000  Uiso   1.00
Cu695  Cu    0.25501   0.50579   0.89479   0.00000  Uiso   1.00
Cu696  Cu    0.24500   0.49421   0.77187   0.00000  Uiso   1.00
H697   H     0.37935   0.42333   0.78211   0.00000  Uiso   1.00
H698   H     0.12065   0.57669   0.88451   0.00000  Uiso   1.00
H699   H     0.44200   0.37472   0.75924   0.00000  Uiso   1.00
H700   H     0.05800   0.62531   0.90735   0.00000  Uiso   1.00
N701   N     0.23745   0.48547   0.67951   0.00000  Uiso   1.00
N702   N     0.26256   0.51453   0.98716   0.00000  Uiso   1.00
O703   O     0.25326   0.42871   0.87326   0.00000  Uiso   1.00
O704   O     0.24675   0.57129   0.79341   0.00000  Uiso   1.00
O705   O     0.24480   0.41892   0.76945   0.00000  Uiso   1.00
O706   O     0.25520   0.58108   0.89721   0.00000  Uiso   1.00
O707   O     0.18936   0.50488   0.88524   0.00000  Uiso   1.00
O708   O     0.31065   0.49512   0.78143   0.00000  Uiso   1.00
O709   O     0.18090   0.49510   0.78143   0.00000  Uiso   1.00
O710   O     0.31910   0.50490   0.88523   0.00000  Uiso   1.00
Cl711  Cl    0.38374   0.60357   0.89898   0.00000  Uiso   1.00
Cl712  Cl    0.11627   0.39640   0.76781   0.00000  Uiso   1.00
Cl713  Cl    0.02522   0.34087   0.75080   0.00000  Uiso   1.00
Cl714  Cl    0.47476   0.65916   0.91570   0.00000  Uiso   1.00
Cl715  Cl    0.20571   0.64412   0.74485   0.00000  Uiso   1.00
Cl716  Cl    0.29430   0.35588   0.92182   0.00000  Uiso   1.00
C717   C     0.20540   0.44883   0.97589   0.00000  Uiso   1.00
N718   N     0.17845   0.41800   0.94573   0.00000  Uiso   1.00
C719   C     0.29461   0.55117   0.69078   0.00000  Uiso   1.00
N720   N     0.32155   0.58200   0.72094   0.00000  Uiso   1.00
C721   C     0.74816   0.40011   0.81808   0.00000  Uiso   1.00
C722   C     0.75185   0.59989   0.84858   0.00000  Uiso   1.00
C723   C     0.51079   0.40528   0.78011   0.00000  Uiso   1.00
C724   C     0.98920   0.59473   0.88650   0.00000  Uiso   1.00
C725   C     0.74168   0.34455   0.81093   0.00000  Uiso   1.00
C726   C     0.75832   0.65545   0.85574   0.00000  Uiso   1.00
C727   C     0.66459   0.49876   0.83356   0.00000  Uiso   1.00
C728   C     0.83541   0.50125   0.83311   0.00000  Uiso   1.00
C729   C     0.91118   0.54930   0.86163   0.00000  Uiso   1.00
C730   C     0.58883   0.45070   0.80505   0.00000  Uiso   1.00
C731   C     0.88368   0.50341   0.83254   0.00000  Uiso   1.00
C732   C     0.61632   0.49659   0.83412   0.00000  Uiso   1.00
C733   C     0.90162   0.45813   0.80377   0.00000  Uiso   1.00
C734   C     0.59838   0.54188   0.86286   0.00000  Uiso   1.00
C735   C     0.94770   0.45646   0.80504   0.00000  Uiso   1.00
C736   C     0.55230   0.54355   0.86158   0.00000  Uiso   1.00
C737   C     0.97658   0.50159   0.83321   0.00000  Uiso   1.00
C738   C     0.52342   0.49842   0.83342   0.00000  Uiso   1.00
C739   C     0.95861   0.54958   0.86090   0.00000  Uiso   1.00
C740   C     0.54139   0.45043   0.80574   0.00000  Uiso   1.00
C741   C     0.96482   0.40936   0.77935   0.00000  Uiso   1.00
C742   C     0.53517   0.59066   0.88725   0.00000  Uiso   1.00
Cu743  Cu    0.75501   0.50579   0.89479   0.00000  Uiso   1.00
Cu744  Cu    0.74500   0.49421   0.77187   0.00000  Uiso   1.00
H745   H     0.87935   0.42333   0.78211   0.00000  Uiso   1.00
H746   H     0.62065   0.57669   0.88451   0.00000  Uiso   1.00
H747   H     0.94200   0.37472   0.75924   0.00000  Uiso   1.00
H748   H     0.55800   0.62531   0.90735   0.00000  Uiso   1.00
N749   N     0.73745   0.48547   0.67951   0.00000  Uiso   1.00
N750   N     0.76256   0.51453   0.98716   0.00000  Uiso   1.00
O751   O     0.75326   0.42871   0.87326   0.00000  Uiso   1.00
O752   O     0.74675   0.57129   0.79341   0.00000  Uiso   1.00
O753   O     0.74480   0.41892   0.76945   0.00000  Uiso   1.00
O754   O     0.75520   0.58108   0.89721   0.00000  Uiso   1.00
O755   O     0.68936   0.50488   0.88524   0.00000  Uiso   1.00
O756   O     0.81065   0.49512   0.78143   0.00000  Uiso   1.00
O757   O     0.68090   0.49510   0.78143   0.00000  Uiso   1.00
O758   O     0.81910   0.50490   0.88523   0.00000  Uiso   1.00
Cl759  Cl    0.88374   0.60357   0.89898   0.00000  Uiso   1.00
Cl760  Cl    0.61627   0.39640   0.76781   0.00000  Uiso   1.00
Cl761  Cl    0.52522   0.34087   0.75080   0.00000  Uiso   1.00
Cl762  Cl    0.97476   0.65916   0.91570   0.00000  Uiso   1.00
Cl763  Cl    0.70571   0.64412   0.74485   0.00000  Uiso   1.00
Cl764  Cl    0.79430   0.35588   0.92182   0.00000  Uiso   1.00
C765   C     0.70540   0.44883   0.97589   0.00000  Uiso   1.00
N766   N     0.67845   0.41800   0.94573   0.00000  Uiso   1.00
C767   C     0.79461   0.55117   0.69078   0.00000  Uiso   1.00
N768   N     0.82155   0.58200   0.72094   0.00000  Uiso   1.00
C769   C     0.24816   0.73345   0.81808   0.00000  Uiso   1.00
C770   C     0.25185   0.93322   0.84858   0.00000  Uiso   1.00
C771   C     0.01079   0.73862   0.78011   0.00000  Uiso   1.00
C772   C     0.48920   0.92806   0.88650   0.00000  Uiso   1.00
C773   C     0.24168   0.67788   0.81093   0.00000  Uiso   1.00
C774   C     0.25832   0.98879   0.85574   0.00000  Uiso   1.00
C775   C     0.16459   0.83209   0.83356   0.00000  Uiso   1.00
C776   C     0.33541   0.83458   0.83311   0.00000  Uiso   1.00
C777   C     0.41118   0.88263   0.86163   0.00000  Uiso   1.00
C778   C     0.08883   0.78403   0.80505   0.00000  Uiso   1.00
C779   C     0.38368   0.83675   0.83254   0.00000  Uiso   1.00
C780   C     0.11632   0.82992   0.83412   0.00000  Uiso   1.00
C781   C     0.40162   0.79146   0.80377   0.00000  Uiso   1.00
C782   C     0.09838   0.87521   0.86286   0.00000  Uiso   1.00
C783   C     0.44770   0.78980   0.80504   0.00000  Uiso   1.00
C784   C     0.05230   0.87688   0.86158   0.00000  Uiso   1.00
C785   C     0.47658   0.83492   0.83321   0.00000  Uiso   1.00
C786   C     0.02342   0.83176   0.83342   0.00000  Uiso   1.00
C787   C     0.45861   0.88291   0.86090   0.00000  Uiso   1.00
C788   C     0.04139   0.78376   0.80574   0.00000  Uiso   1.00
C789   C     0.46482   0.74269   0.77935   0.00000  Uiso   1.00
C790   C     0.03517   0.92399   0.88725   0.00000  Uiso   1.00
Cu791  Cu    0.25501   0.83913   0.89479   0.00000  Uiso   1.00
Cu792  Cu    0.24500   0.82754   0.77187   0.00000  Uiso   1.00
H793   H     0.37935   0.75666   0.78211   0.00000  Uiso   1.00
H794   H     0.12065   0.91002   0.88451   0.00000  Uiso   1.00
H795   H     0.44200   0.70805   0.75924   0.00000  Uiso   1.00
H796   H     0.05800   0.95864   0.90735   0.00000  Uiso   1.00
N797   N     0.23745   0.81881   0.67951   0.00000  Uiso   1.00
N798   N     0.26256   0.84786   0.98716   0.00000  Uiso   1.00
O799   O     0.25326   0.76204   0.87326   0.00000  Uiso   1.00
O800   O     0.24675   0.90462   0.79341   0.00000  Uiso   1.00
O801   O     0.24480   0.75226   0.76945   0.00000  Uiso   1.00
O802   O     0.25520   0.91441   0.89721   0.00000  Uiso   1.00
O803   O     0.18936   0.83821   0.88524   0.00000  Uiso   1.00
O804   O     0.31065   0.82845   0.78143   0.00000  Uiso   1.00
O805   O     0.18090   0.82843   0.78143   0.00000  Uiso   1.00
O806   O     0.31910   0.83824   0.88523   0.00000  Uiso   1.00
Cl807  Cl    0.38374   0.93690   0.89898   0.00000  Uiso   1.00
Cl808  Cl    0.11627   0.72973   0.76781   0.00000  Uiso   1.00
Cl809  Cl    0.02522   0.67420   0.75080   0.00000  Uiso   1.00
Cl810  Cl    0.47476   0.99249   0.91570   0.00000  Uiso   1.00
Cl811  Cl    0.20571   0.97745   0.74485   0.00000  Uiso   1.00
Cl812  Cl    0.29430   0.68922   0.92182   0.00000  Uiso   1.00
C813   C     0.20540   0.78216   0.97589   0.00000  Uiso   1.00
N814   N     0.17845   0.75134   0.94573   0.00000  Uiso   1.00
C815   C     0.29461   0.88450   0.69078   0.00000  Uiso   1.00
N816   N     0.32155   0.91533   0.72094   0.00000  Uiso   1.00
C817   C     0.74816   0.73345   0.81808   0.00000  Uiso   1.00
C818   C     0.75185   0.93322   0.84858   0.00000  Uiso   1.00
C819   C     0.51079   0.73862   0.78011   0.00000  Uiso   1.00
C820   C     0.98920   0.92806   0.88650   0.00000  Uiso   1.00
C821   C     0.74168   0.67788   0.81093   0.00000  Uiso   1.00
C822   C     0.75832   0.98879   0.85574   0.00000  Uiso   1.00
C823   C     0.66459   0.83209   0.83356   0.00000  Uiso   1.00
C824   C     0.83541   0.83458   0.83311   0.00000  Uiso   1.00
C825   C     0.91118   0.88263   0.86163   0.00000  Uiso   1.00
C826   C     0.58883   0.78403   0.80505   0.00000  Uiso   1.00
C827   C     0.88368   0.83675   0.83254   0.00000  Uiso   1.00
C828   C     0.61632   0.82992   0.83412   0.00000  Uiso   1.00
C829   C     0.90162   0.79146   0.80377   0.00000  Uiso   1.00
C830   C     0.59838   0.87521   0.86286   0.00000  Uiso   1.00
C831   C     0.94770   0.78980   0.80504   0.00000  Uiso   1.00
C832   C     0.55230   0.87688   0.86158   0.00000  Uiso   1.00
C833   C     0.97658   0.83492   0.83321   0.00000  Uiso   1.00
C834   C     0.52342   0.83176   0.83342   0.00000  Uiso   1.00
C835   C     0.95861   0.88291   0.86090   0.00000  Uiso   1.00
C836   C     0.54139   0.78376   0.80574   0.00000  Uiso   1.00
C837   C     0.96482   0.74269   0.77935   0.00000  Uiso   1.00
C838   C     0.53517   0.92399   0.88725   0.00000  Uiso   1.00
Cu839  Cu    0.75501   0.83913   0.89479   0.00000  Uiso   1.00
Cu840  Cu    0.74500   0.82754   0.77187   0.00000  Uiso   1.00
H841   H     0.87935   0.75666   0.78211   0.00000  Uiso   1.00
H842   H     0.62065   0.91002   0.88451   0.00000  Uiso   1.00
H843   H     0.94200   0.70805   0.75924   0.00000  Uiso   1.00
H844   H     0.55800   0.95864   0.90735   0.00000  Uiso   1.00
N845   N     0.73745   0.81881   0.67951   0.00000  Uiso   1.00
N846   N     0.76256   0.84786   0.98716   0.00000  Uiso   1.00
O847   O     0.75326   0.76204   0.87326   0.00000  Uiso   1.00
O848   O     0.74675   0.90462   0.79341   0.00000  Uiso   1.00
O849   O     0.74480   0.75226   0.76945   0.00000  Uiso   1.00
O850   O     0.75520   0.91441   0.89721   0.00000  Uiso   1.00
O851   O     0.68936   0.83821   0.88524   0.00000  Uiso   1.00
O852   O     0.81065   0.82845   0.78143   0.00000  Uiso   1.00
O853   O     0.68090   0.82843   0.78143   0.00000  Uiso   1.00
O854   O     0.81910   0.83824   0.88523   0.00000  Uiso   1.00
Cl855  Cl    0.88374   0.93690   0.89898   0.00000  Uiso   1.00
Cl856  Cl    0.61627   0.72973   0.76781   0.00000  Uiso   1.00
Cl857  Cl    0.52522   0.67420   0.75080   0.00000  Uiso   1.00
Cl858  Cl    0.97476   0.99249   0.91570   0.00000  Uiso   1.00
Cl859  Cl    0.70571   0.97745   0.74485   0.00000  Uiso   1.00
Cl860  Cl    0.79430   0.68922   0.92182   0.00000  Uiso   1.00
C861   C     0.70540   0.78216   0.97589   0.00000  Uiso   1.00
N862   N     0.67845   0.75134   0.94573   0.00000  Uiso   1.00
C863   C     0.79461   0.88450   0.69078   0.00000  Uiso   1.00
N864   N     0.82155   0.91533   0.72094   0.00000  Uiso   1.00
loop_
_geom_bond_atom_site_label_1
_geom_bond_atom_site_label_2
_geom_bond_distance
_geom_bond_site_symmetry_2
_ccdc_geom_bond_type
C1     O31     1.290   .     A
C1     O33     1.295   .     A
C1     C5      1.426   .     S
C2     O34     1.295   .     A
C2     O32     1.289   .     A
C2     C6      1.426   .     S
C3     C20     1.426   .     A
C3     Cl41    1.766   .     S
C3     C69     1.389   1_455 S
C4     Cl42    1.766   .     S
C4     C19     1.426   .     A
C4     C70     1.389   .     S
C5     C198    1.351   1_545 S
C5     Cl235   1.780   1_545 S
C6     C101    1.351   .     S
C6     Cl140   1.780   .     S
C7     C12     1.446   .     S
C7     O35     1.297   .     A
C7     O37     1.295   .     A
C8     O38     1.295   .     A
C8     C11     1.446   .     S
C8     O36     1.297   .     A
C9     C11     1.407   .     A
C9     Cl39    1.773   .     S
C9     C19     1.423   .     A
C10    C12     1.407   .     A
C10    Cl40    1.773   .     S
C10    C20     1.424   .     A
C11    C13     1.384   .     A
C12    C14     1.384   .     A
C13    H25     1.086   .     S
C13    C15     1.383   .     A
C14    H26     1.086   .     S
C14    C16     1.383   .     A
C15    C21     1.392   .     A
C15    C17     1.409   .     A
C16    C22     1.392   .     A
C16    C18     1.409   .     A
C17    C19     1.434   .     A
C17    C66     1.412   .     S
C18    C20     1.434   .     A
C18    C65     1.412   1_455 S
C21    H27     1.085   .     S
C21    C51     1.389   .     S
C22    H28     1.085   .     S
C22    C52     1.389   1_455 S
Cu23   Cu24    2.702   .     S
Cu23   O38     1.953   .     S
Cu23   O34     1.960   .     S
Cu23   O35     1.960   .     S
Cu23   N30     2.030   .     S
Cu23   O31     1.964   .     S
Cu24   O32     1.964   .     S
Cu24   O33     1.960   .     S
Cu24   O37     1.953   .     S
Cu24   O36     1.960   .     S
Cu24   N29     2.030   .     S
N29    N606    1.294   1_554 S
N29    C621    1.386   1_554 S
N30    N317    1.294   .     S
N30    C335    1.386   .     S
Cl43   C101    1.780   .     S
Cl44   C198    1.780   1_545 S
C45    N46     1.158   .     T
C45    N317    1.386   .     S
C47    N48     1.158   .     T
C47    N606    1.386   1_554 S
C49    O79     1.290   .     A
C49    O81     1.295   .     A
C49    C53     1.426   .     S
C50    O82     1.295   .     A
C50    O80     1.289   .     A
C50    C54     1.426   .     S
C51    C68     1.426   .     A
C51    Cl89    1.766   .     S
C52    Cl90    1.766   .     S
C52    C67     1.426   .     A
C52    C22     1.389   1_655 S
C53    C246    1.351   1_545 S
C53    Cl283   1.780   1_545 S
C54    C149    1.351   .     S
C54    Cl188   1.780   .     S
C55    C60     1.446   .     S
C55    O83     1.297   .     A
C55    O85     1.295   .     A
C56    O86     1.295   .     A
C56    C59     1.446   .     S
C56    O84     1.297   .     A
C57    C59     1.407   .     A
C57    Cl87    1.773   .     S
C57    C67     1.423   .     A
C58    C60     1.407   .     A
C58    Cl88    1.773   .     S
C58    C68     1.424   .     A
C59    C61     1.384   .     A
C60    C62     1.384   .     A
C61    H73     1.086   .     S
C61    C63     1.383   .     A
C62    H74     1.086   .     S
C62    C64     1.383   .     A
C63    C69     1.392   .     A
C63    C65     1.409   .     A
C64    C70     1.392   .     A
C64    C66     1.409   .     A
C65    C67     1.434   .     A
C65    C18     1.412   1_655 S
C66    C68     1.434   .     A
C69    H75     1.085   .     S
C69    C3      1.389   1_655 S
C70    H76     1.085   .     S
Cu71   Cu72    2.702   .     S
Cu71   O86     1.953   .     S
Cu71   O82     1.960   .     S
Cu71   O83     1.960   .     S
Cu71   N78     2.030   .     S
Cu71   O79     1.964   .     S
Cu72   O80     1.964   .     S
Cu72   O81     1.960   .     S
Cu72   O85     1.953   .     S
Cu72   O84     1.960   .     S
Cu72   N77     2.030   .     S
N77    N654    1.294   1_554 S
N77    C669    1.386   1_554 S
N78    N365    1.294   .     S
N78    C383    1.386   .     S
Cl91   C149    1.780   .     S
Cl92   C246    1.780   1_545 S
C93    N94     1.158   .     T
C93    N365    1.386   .     S
C95    N96     1.158   .     T
C95    N654    1.386   1_554 S
C97    O127    1.290   .     A
C97    O129    1.295   .     A
C97    C101    1.426   .     S
C98    O130    1.295   .     A
C98    O128    1.289   .     A
C98    C102    1.426   .     S
C99    C116    1.426   .     A
C99    Cl137   1.766   .     S
C99    C165    1.389   1_455 S
C100   Cl138   1.766   .     S
C100   C115    1.426   .     A
C100   C166    1.389   .     S
C102   C197    1.351   .     S
C102   Cl236   1.780   .     S
C103   C108    1.446   .     S
C103   O131    1.297   .     A
C103   O133    1.295   .     A
C104   O134    1.295   .     A
C104   C107    1.446   .     S
C104   O132    1.297   .     A
C105   C107    1.407   .     A
C105   Cl135   1.773   .     S
C105   C115    1.423   .     A
C106   C108    1.407   .     A
C106   Cl136   1.773   .     S
C106   C116    1.424   .     A
C107   C109    1.384   .     A
C108   C110    1.384   .     A
C109   H121    1.086   .     S
C109   C111    1.383   .     A
C110   H122    1.086   .     S
C110   C112    1.383   .     A
C111   C117    1.392   .     A
C111   C113    1.409   .     A
C112   C118    1.392   .     A
C112   C114    1.409   .     A
C113   C115    1.434   .     A
C113   C162    1.412   .     S
C114   C116    1.434   .     A
C114   C161    1.412   1_455 S
C117   H123    1.085   .     S
C117   C147    1.389   .     S
C118   H124    1.085   .     S
C118   C148    1.389   1_455 S
Cu119  Cu120   2.702   .     S
Cu119  O134    1.953   .     S
Cu119  O130    1.960   .     S
Cu119  O131    1.960   .     S
Cu119  N126    2.030   .     S
Cu119  O127    1.964   .     S
Cu120  O128    1.964   .     S
Cu120  O129    1.960   .     S
Cu120  O133    1.953   .     S
Cu120  O132    1.960   .     S
Cu120  N125    2.030   .     S
N125   N702    1.294   1_554 S
N125   C717    1.386   1_554 S
N126   N413    1.294   .     S
N126   C431    1.386   .     S
Cl139  C197    1.780   .     S
C141   N142    1.158   .     T
C141   N413    1.386   .     S
C143   N144    1.158   .     T
C143   N702    1.386   1_554 S
C145   O175    1.290   .     A
C145   O177    1.295   .     A
C145   C149    1.426   .     S
C146   O178    1.295   .     A
C146   O176    1.289   .     A
C146   C150    1.426   .     S
C147   C164    1.426   .     A
C147   Cl185   1.766   .     S
C148   Cl186   1.766   .     S
C148   C163    1.426   .     A
C148   C118    1.389   1_655 S
C150   C245    1.351   .     S
C150   Cl284   1.780   .     S
C151   C156    1.446   .     S
C151   O179    1.297   .     A
C151   O181    1.295   .     A
C152   O182    1.295   .     A
C152   C155    1.446   .     S
C152   O180    1.297   .     A
C153   C155    1.407   .     A
C153   Cl183   1.773   .     S
C153   C163    1.423   .     A
C154   C156    1.407   .     A
C154   Cl184   1.773   .     S
C154   C164    1.424   .     A
C155   C157    1.384   .     A
C156   C158    1.384   .     A
C157   H169    1.086   .     S
C157   C159    1.383   .     A
C158   H170    1.086   .     S
C158   C160    1.383   .     A
C159   C165    1.392   .     A
C159   C161    1.409   .     A
C160   C166    1.392   .     A
C160   C162    1.409   .     A
C161   C163    1.434   .     A
C161   C114    1.412   1_655 S
C162   C164    1.434   .     A
C165   H171    1.085   .     S
C165   C99     1.389   1_655 S
C166   H172    1.085   .     S
Cu167  Cu168   2.702   .     S
Cu167  O182    1.953   .     S
Cu167  O178    1.960   .     S
Cu167  O179    1.960   .     S
Cu167  N174    2.030   .     S
Cu167  O175    1.964   .     S
Cu168  O176    1.964   .     S
Cu168  O177    1.960   .     S
Cu168  O181    1.953   .     S
Cu168  O180    1.960   .     S
Cu168  N173    2.030   .     S
N173   N750    1.294   1_554 S
N173   C765    1.386   1_554 S
N174   N461    1.294   .     S
N174   C479    1.386   .     S
Cl187  C245    1.780   .     S
C189   N190    1.158   .     T
C189   N461    1.386   .     S
C191   N192    1.158   .     T
C191   N750    1.386   1_554 S
C193   O223    1.290   .     A
C193   O225    1.295   .     A
C193   C197    1.426   .     S
C194   O226    1.295   .     A
C194   O224    1.289   .     A
C194   C198    1.426   .     S
C195   C212    1.426   .     A
C195   Cl233   1.766   .     S
C195   C261    1.389   1_455 S
C196   Cl234   1.766   .     S
C196   C211    1.426   .     A
C196   C262    1.389   .     S
C198   C5      1.351   1_565 S
C198   Cl44    1.780   1_565 S
C199   C204    1.446   .     S
C199   O227    1.297   .     A
C199   O229    1.295   .     A
C200   O230    1.295   .     A
C200   C203    1.446   .     S
C200   O228    1.297   .     A
C201   C203    1.407   .     A
C201   Cl231   1.773   .     S
C201   C211    1.423   .     A
C202   C204    1.407   .     A
C202   Cl232   1.773   .     S
C202   C212    1.424   .     A
C203   C205    1.384   .     A
C204   C206    1.384   .     A
C205   H217    1.086   .     S
C205   C207    1.383   .     A
C206   H218    1.086   .     S
C206   C208    1.383   .     A
C207   C213    1.392   .     A
C207   C209    1.409   .     A
C208   C214    1.392   .     A
C208   C210    1.409   .     A
C209   C211    1.434   .     A
C209   C258    1.412   .     S
C210   C212    1.434   .     A
C210   C257    1.412   1_455 S
C213   H219    1.085   .     S
C213   C243    1.389   .     S
C214   H220    1.085   .     S
C214   C244    1.389   1_455 S
Cu215  Cu216   2.702   .     S
Cu215  O230    1.953   .     S
Cu215  O226    1.960   .     S
Cu215  O227    1.960   .     S
Cu215  N222    2.030   .     S
Cu215  O223    1.964   .     S
Cu216  O224    1.964   .     S
Cu216  O225    1.960   .     S
Cu216  O229    1.953   .     S
Cu216  O228    1.960   .     S
Cu216  N221    2.030   .     S
N221   N798    1.294   1_554 S
N221   C813    1.386   1_554 S
N222   N509    1.294   .     S
N222   C527    1.386   .     S
Cl235  C5      1.780   1_565 S
C237   N238    1.158   .     T
C237   N509    1.386   .     S
C239   N240    1.158   .     T
C239   N798    1.386   1_554 S
C241   O271    1.290   .     A
C241   O273    1.295   .     A
C241   C245    1.426   .     S
C242   O274    1.295   .     A
C242   O272    1.289   .     A
C242   C246    1.426   .     S
C243   C260    1.426   .     A
C243   Cl281   1.766   .     S
C244   Cl282   1.766   .     S
C244   C259    1.426   .     A
C244   C214    1.389   1_655 S
C246   C53     1.351   1_565 S
C246   Cl92    1.780   1_565 S
C247   C252    1.446   .     S
C247   O275    1.297   .     A
C247   O277    1.295   .     A
C248   O278    1.295   .     A
C248   C251    1.446   .     S
C248   O276    1.297   .     A
C249   C251    1.407   .     A
C249   Cl279   1.773   .     S
C249   C259    1.423   .     A
C250   C252    1.407   .     A
C250   Cl280   1.773   .     S
C250   C260    1.424   .     A
C251   C253    1.384   .     A
C252   C254    1.384   .     A
C253   H265    1.086   .     S
C253   C255    1.383   .     A
C254   H266    1.086   .     S
C254   C256    1.383   .     A
C255   C261    1.392   .     A
C255   C257    1.409   .     A
C256   C262    1.392   .     A
C256   C258    1.409   .     A
C257   C259    1.434   .     A
C257   C210    1.412   1_655 S
C258   C260    1.434   .     A
C261   H267    1.085   .     S
C261   C195    1.389   1_655 S
C262   H268    1.085   .     S
Cu263  Cu264   2.702   .     S
Cu263  O278    1.953   .     S
Cu263  O274    1.960   .     S
Cu263  O275    1.960   .     S
Cu263  N270    2.030   .     S
Cu263  O271    1.964   .     S
Cu264  O272    1.964   .     S
Cu264  O273    1.960   .     S
Cu264  O277    1.953   .     S
Cu264  O276    1.960   .     S
Cu264  N269    2.030   .     S
N269   N846    1.294   1_554 S
N269   C861    1.386   1_554 S
N270   N557    1.294   .     S
N270   C575    1.386   .     S
Cl283  C53     1.780   1_565 S
C285   N286    1.158   .     T
C285   N557    1.386   .     S
C287   N288    1.158   .     T
C287   N846    1.386   1_554 S
C289   O319    1.290   .     A
C289   O321    1.295   .     A
C289   C293    1.426   .     S
C290   O322    1.295   .     A
C290   O320    1.289   .     A
C290   C294    1.426   .     S
C291   C308    1.426   .     A
C291   Cl329   1.766   .     S
C291   C357    1.389   1_455 S
C292   Cl330   1.766   .     S
C292   C307    1.426   .     A
C292   C358    1.389   .     S
C293   C486    1.351   1_545 S
C293   Cl523   1.780   1_545 S
C294   C389    1.351   .     S
C294   Cl428   1.780   .     S
C295   C300    1.446   .     S
C295   O323    1.297   .     A
C295   O325    1.295   .     A
C296   O326    1.295   .     A
C296   C299    1.446   .     S
C296   O324    1.297   .     A
C297   C299    1.407   .     A
C297   Cl327   1.773   .     S
C297   C307    1.423   .     A
C298   C300    1.407   .     A
C298   Cl328   1.773   .     S
C298   C308    1.424   .     A
C299   C301    1.384   .     A
C300   C302    1.384   .     A
C301   H313    1.086   .     S
C301   C303    1.383   .     A
C302   H314    1.086   .     S
C302   C304    1.383   .     A
C303   C309    1.392   .     A
C303   C305    1.409   .     A
C304   C310    1.392   .     A
C304   C306    1.409   .     A
C305   C307    1.434   .     A
C305   C354    1.412   .     S
C306   C308    1.434   .     A
C306   C353    1.412   1_455 S
C309   H315    1.085   .     S
C309   C339    1.389   .     S
C310   H316    1.085   .     S
C310   C340    1.389   1_455 S
Cu311  Cu312   2.702   .     S
Cu311  O326    1.953   .     S
Cu311  O322    1.960   .     S
Cu311  O323    1.960   .     S
Cu311  N318    2.030   .     S
Cu311  O319    1.964   .     S
Cu312  O320    1.964   .     S
Cu312  O321    1.960   .     S
Cu312  O325    1.953   .     S
Cu312  O324    1.960   .     S
Cu312  N317    2.030   .     S
N318   N605    1.294   .     S
N318   C623    1.386   .     S
Cl331  C389    1.780   .     S
Cl332  C486    1.780   1_545 S
C333   N334    1.158   .     T
C333   N605    1.386   .     S
C335   N336    1.158   .     T
C337   O367    1.290   .     A
C337   O369    1.295   .     A
C337   C341    1.426   .     S
C338   O370    1.295   .     A
C338   O368    1.289   .     A
C338   C342    1.426   .     S
C339   C356    1.426   .     A
C339   Cl377   1.766   .     S
C340   Cl378   1.766   .     S
C340   C355    1.426   .     A
C340   C310    1.389   1_655 S
C341   C534    1.351   1_545 S
C341   Cl571   1.780   1_545 S
C342   C437    1.351   .     S
C342   Cl476   1.780   .     S
C343   C348    1.446   .     S
C343   O371    1.297   .     A
C343   O373    1.295   .     A
C344   O374    1.295   .     A
C344   C347    1.446   .     S
C344   O372    1.297   .     A
C345   C347    1.407   .     A
C345   Cl375   1.773   .     S
C345   C355    1.423   .     A
C346   C348    1.407   .     A
C346   Cl376   1.773   .     S
C346   C356    1.424   .     A
C347   C349    1.384   .     A
C348   C350    1.384   .     A
C349   H361    1.086   .     S
C349   C351    1.383   .     A
C350   H362    1.086   .     S
C350   C352    1.383   .     A
C351   C357    1.392   .     A
C351   C353    1.409   .     A
C352   C358    1.392   .     A
C352   C354    1.409   .     A
C353   C355    1.434   .     A
C353   C306    1.412   1_655 S
C354   C356    1.434   .     A
C357   H363    1.085   .     S
C357   C291    1.389   1_655 S
C358   H364    1.085   .     S
Cu359  Cu360   2.702   .     S
Cu359  O374    1.953   .     S
Cu359  O370    1.960   .     S
Cu359  O371    1.960   .     S
Cu359  N366    2.030   .     S
Cu359  O367    1.964   .     S
Cu360  O368    1.964   .     S
Cu360  O369    1.960   .     S
Cu360  O373    1.953   .     S
Cu360  O372    1.960   .     S
Cu360  N365    2.030   .     S
N366   N653    1.294   .     S
N366   C671    1.386   .     S
Cl379  C437    1.780   .     S
Cl380  C534    1.780   1_545 S
C381   N382    1.158   .     T
C381   N653    1.386   .     S
C383   N384    1.158   .     T
C385   O415    1.290   .     A
C385   O417    1.295   .     A
C385   C389    1.426   .     S
C386   O418    1.295   .     A
C386   O416    1.289   .     A
C386   C390    1.426   .     S
C387   C404    1.426   .     A
C387   Cl425   1.766   .     S
C387   C453    1.389   1_455 S
C388   Cl426   1.766   .     S
C388   C403    1.426   .     A
C388   C454    1.389   .     S
C390   C485    1.351   .     S
C390   Cl524   1.780   .     S
C391   C396    1.446   .     S
C391   O419    1.297   .     A
C391   O421    1.295   .     A
C392   O422    1.295   .     A
C392   C395    1.446   .     S
C392   O420    1.297   .     A
C393   C395    1.407   .     A
C393   Cl423   1.773   .     S
C393   C403    1.423   .     A
C394   C396    1.407   .     A
C394   Cl424   1.773   .     S
C394   C404    1.424   .     A
C395   C397    1.384   .     A
C396   C398    1.384   .     A
C397   H409    1.086   .     S
C397   C399    1.383   .     A
C398   H410    1.086   .     S
C398   C400    1.383   .     A
C399   C405    1.392   .     A
C399   C401    1.409   .     A
C400   C406    1.392   .     A
C400   C402    1.409   .     A
C401   C403    1.434   .     A
C401   C450    1.412   .     S
C402   C404    1.434   .     A
C402   C449    1.412   1_455 S
C405   H411    1.085   .     S
C405   C435    1.389   .     S
C406   H412    1.085   .     S
C406   C436    1.389   1_455 S
Cu407  Cu408   2.702   .     S
Cu407  O422    1.953   .     S
Cu407  O418    1.960   .     S
Cu407  O419    1.960   .     S
Cu407  N414    2.030   .     S
Cu407  O415    1.964   .     S
Cu408  O416    1.964   .     S
Cu408  O417    1.960   .     S
Cu408  O421    1.953   .     S
Cu408  O420    1.960   .     S
Cu408  N413    2.030   .     S
N414   N701    1.294   .     S
N414   C719    1.386   .     S
Cl427  C485    1.780   .     S
C429   N430    1.158   .     T
C429   N701    1.386   .     S
C431   N432    1.158   .     T
C433   O463    1.290   .     A
C433   O465    1.295   .     A
C433   C437    1.426   .     S
C434   O466    1.295   .     A
C434   O464    1.289   .     A
C434   C438    1.426   .     S
C435   C452    1.426   .     A
C435   Cl473   1.766   .     S
C436   Cl474   1.766   .     S
C436   C451    1.426   .     A
C436   C406    1.389   1_655 S
C438   C533    1.351   .     S
C438   Cl572   1.780   .     S
C439   C444    1.446   .     S
C439   O467    1.297   .     A
C439   O469    1.295   .     A
C440   O470    1.295   .     A
C440   C443    1.446   .     S
C440   O468    1.297   .     A
C441   C443    1.407   .     A
C441   Cl471   1.773   .     S
C441   C451    1.423   .     A
C442   C444    1.407   .     A
C442   Cl472   1.773   .     S
C442   C452    1.424   .     A
C443   C445    1.384   .     A
C444   C446    1.384   .     A
C445   H457    1.086   .     S
C445   C447    1.383   .     A
C446   H458    1.086   .     S
C446   C448    1.383   .     A
C447   C453    1.392   .     A
C447   C449    1.409   .     A
C448   C454    1.392   .     A
C448   C450    1.409   .     A
C449   C451    1.434   .     A
C449   C402    1.412   1_655 S
C450   C452    1.434   .     A
C453   H459    1.085   .     S
C453   C387    1.389   1_655 S
C454   H460    1.085   .     S
Cu455  Cu456   2.702   .     S
Cu455  O470    1.953   .     S
Cu455  O466    1.960   .     S
Cu455  O467    1.960   .     S
Cu455  N462    2.030   .     S
Cu455  O463    1.964   .     S
Cu456  O464    1.964   .     S
Cu456  O465    1.960   .     S
Cu456  O469    1.953   .     S
Cu456  O468    1.960   .     S
Cu456  N461    2.030   .     S
N462   N749    1.294   .     S
N462   C767    1.386   .     S
Cl475  C533    1.780   .     S
C477   N478    1.158   .     T
C477   N749    1.386   .     S
C479   N480    1.158   .     T
C481   O511    1.290   .     A
C481   O513    1.295   .     A
C481   C485    1.426   .     S
C482   O514    1.295   .     A
C482   O512    1.289   .     A
C482   C486    1.426   .     S
C483   C500    1.426   .     A
C483   Cl521   1.766   .     S
C483   C549    1.389   1_455 S
C484   Cl522   1.766   .     S
C484   C499    1.426   .     A
C484   C550    1.389   .     S
C486   C293    1.351   1_565 S
C486   Cl332   1.780   1_565 S
C487   C492    1.446   .     S
C487   O515    1.297   .     A
C487   O517    1.295   .     A
C488   O518    1.295   .     A
C488   C491    1.446   .     S
C488   O516    1.297   .     A
C489   C491    1.407   .     A
C489   Cl519   1.773   .     S
C489   C499    1.423   .     A
C490   C492    1.407   .     A
C490   Cl520   1.773   .     S
C490   C500    1.424   .     A
C491   C493    1.384   .     A
C492   C494    1.384   .     A
C493   H505    1.086   .     S
C493   C495    1.383   .     A
C494   H506    1.086   .     S
C494   C496    1.383   .     A
C495   C501    1.392   .     A
C495   C497    1.409   .     A
C496   C502    1.392   .     A
C496   C498    1.409   .     A
C497   C499    1.434   .     A
C497   C546    1.412   .     S
C498   C500    1.434   .     A
C498   C545    1.412   1_455 S
C501   H507    1.085   .     S
C501   C531    1.389   .     S
C502   H508    1.085   .     S
C502   C532    1.389   1_455 S
Cu503  Cu504   2.702   .     S
Cu503  O518    1.953   .     S
Cu503  O514    1.960   .     S
Cu503  O515    1.960   .     S
Cu503  N510    2.030   .     S
Cu503  O511    1.964   .     S
Cu504  O512    1.964   .     S
Cu504  O513    1.960   .     S
Cu504  O517    1.953   .     S
Cu504  O516    1.960   .     S
Cu504  N509    2.030   .     S
N510   N797    1.294   .     S
N510   C815    1.386   .     S
Cl523  C293    1.780   1_565 S
C525   N526    1.158   .     T
C525   N797    1.386   .     S
C527   N528    1.158   .     T
C529   O559    1.290   .     A
C529   O561    1.295   .     A
C529   C533    1.426   .     S
C530   O562    1.295   .     A
C530   O560    1.289   .     A
C530   C534    1.426   .     S
C531   C548    1.426   .     A
C531   Cl569   1.766   .     S
C532   Cl570   1.766   .     S
C532   C547    1.426   .     A
C532   C502    1.389   1_655 S
C534   C341    1.351   1_565 S
C534   Cl380   1.780   1_565 S
C535   C540    1.446   .     S
C535   O563    1.297   .     A
C535   O565    1.295   .     A
C536   O566    1.295   .     A
C536   C539    1.446   .     S
C536   O564    1.297   .     A
C537   C539    1.407   .     A
C537   Cl567   1.773   .     S
C537   C547    1.423   .     A
C538   C540    1.407   .     A
C538   Cl568   1.773   .     S
C538   C548    1.424   .     A
C539   C541    1.384   .     A
C540   C542    1.384   .     A
C541   H553    1.086   .     S
C541   C543    1.383   .     A
C542   H554    1.086   .     S
C542   C544    1.383   .     A
C543   C549    1.392   .     A
C543   C545    1.409   .     A
C544   C550    1.392   .     A
C544   C546    1.409   .     A
C545   C547    1.434   .     A
C545   C498    1.412   1_655 S
C546   C548    1.434   .     A
C549   H555    1.085   .     S
C549   C483    1.389   1_655 S
C550   H556    1.085   .     S
Cu551  Cu552   2.702   .     S
Cu551  O566    1.953   .     S
Cu551  O562    1.960   .     S
Cu551  O563    1.960   .     S
Cu551  N558    2.030   .     S
Cu551  O559    1.964   .     S
Cu552  O560    1.964   .     S
Cu552  O561    1.960   .     S
Cu552  O565    1.953   .     S
Cu552  O564    1.960   .     S
Cu552  N557    2.030   .     S
N558   N845    1.294   .     S
N558   C863    1.386   .     S
Cl571  C341    1.780   1_565 S
C573   N574    1.158   .     T
C573   N845    1.386   .     S
C575   N576    1.158   .     T
C577   O607    1.290   .     A
C577   O609    1.295   .     A
C577   C581    1.426   .     S
C578   O610    1.295   .     A
C578   O608    1.289   .     A
C578   C582    1.426   .     S
C579   C596    1.426   .     A
C579   Cl617   1.766   .     S
C579   C645    1.389   1_455 S
C580   Cl618   1.766   .     S
C580   C595    1.426   .     A
C580   C646    1.389   .     S
C581   C774    1.351   1_545 S
C581   Cl811   1.780   1_545 S
C582   C677    1.351   .     S
C582   Cl716   1.780   .     S
C583   C588    1.446   .     S
C583   O611    1.297   .     A
C583   O613    1.295   .     A
C584   O614    1.295   .     A
C584   C587    1.446   .     S
C584   O612    1.297   .     A
C585   C587    1.407   .     A
C585   Cl615   1.773   .     S
C585   C595    1.423   .     A
C586   C588    1.407   .     A
C586   Cl616   1.773   .     S
C586   C596    1.424   .     A
C587   C589    1.384   .     A
C588   C590    1.384   .     A
C589   H601    1.086   .     S
C589   C591    1.383   .     A
C590   H602    1.086   .     S
C590   C592    1.383   .     A
C591   C597    1.392   .     A
C591   C593    1.409   .     A
C592   C598    1.392   .     A
C592   C594    1.409   .     A
C593   C595    1.434   .     A
C593   C642    1.412   .     S
C594   C596    1.434   .     A
C594   C641    1.412   1_455 S
C597   H603    1.085   .     S
C597   C627    1.389   .     S
C598   H604    1.085   .     S
C598   C628    1.389   1_455 S
Cu599  Cu600   2.702   .     S
Cu599  O614    1.953   .     S
Cu599  O610    1.960   .     S
Cu599  O611    1.960   .     S
Cu599  N606    2.030   .     S
Cu599  O607    1.964   .     S
Cu600  O608    1.964   .     S
Cu600  O609    1.960   .     S
Cu600  O613    1.953   .     S
Cu600  O612    1.960   .     S
Cu600  N605    2.030   .     S
N606   N29     1.294   1_556 S
N606   C47     1.386   1_556 S
Cl619  C677    1.780   .     S
Cl620  C774    1.780   1_545 S
C621   N622    1.158   .     T
C621   N29     1.386   1_556 S
C623   N624    1.158   .     T
C625   O655    1.290   .     A
C625   O657    1.295   .     A
C625   C629    1.426   .     S
C626   O658    1.295   .     A
C626   O656    1.289   .     A
C626   C630    1.426   .     S
C627   C644    1.426   .     A
C627   Cl665   1.766   .     S
C628   Cl666   1.766   .     S
C628   C643    1.426   .     A
C628   C598    1.389   1_655 S
C629   C822    1.351   1_545 S
C629   Cl859   1.780   1_545 S
C630   C725    1.351   .     S
C630   Cl764   1.780   .     S
C631   C636    1.446   .     S
C631   O659    1.297   .     A
C631   O661    1.295   .     A
C632   O662    1.295   .     A
C632   C635    1.446   .     S
C632   O660    1.297   .     A
C633   C635    1.407   .     A
C633   Cl663   1.773   .     S
C633   C643    1.423   .     A
C634   C636    1.407   .     A
C634   Cl664   1.773   .     S
C634   C644    1.424   .     A
C635   C637    1.384   .     A
C636   C638    1.384   .     A
C637   H649    1.086   .     S
C637   C639    1.383   .     A
C638   H650    1.086   .     S
C638   C640    1.383   .     A
C639   C645    1.392   .     A
C639   C641    1.409   .     A
C640   C646    1.392   .     A
C640   C642    1.409   .     A
C641   C643    1.434   .     A
C641   C594    1.412   1_655 S
C642   C644    1.434   .     A
C645   H651    1.085   .     S
C645   C579    1.389   1_655 S
C646   H652    1.085   .     S
Cu647  Cu648   2.702   .     S
Cu647  O662    1.953   .     S
Cu647  O658    1.960   .     S
Cu647  O659    1.960   .     S
Cu647  N654    2.030   .     S
Cu647  O655    1.964   .     S
Cu648  O656    1.964   .     S
Cu648  O657    1.960   .     S
Cu648  O661    1.953   .     S
Cu648  O660    1.960   .     S
Cu648  N653    2.030   .     S
N654   N77     1.294   1_556 S
N654   C95     1.386   1_556 S
Cl667  C725    1.780   .     S
Cl668  C822    1.780   1_545 S
C669   N670    1.158   .     T
C669   N77     1.386   1_556 S
C671   N672    1.158   .     T
C673   O703    1.290   .     A
C673   O705    1.295   .     A
C673   C677    1.426   .     S
C674   O706    1.295   .     A
C674   O704    1.289   .     A
C674   C678    1.426   .     S
C675   C692    1.426   .     A
C675   Cl713   1.766   .     S
C675   C741    1.389   1_455 S
C676   Cl714   1.766   .     S
C676   C691    1.426   .     A
C676   C742    1.389   .     S
C678   C773    1.351   .     S
C678   Cl812   1.780   .     S
C679   C684    1.446   .     S
C679   O707    1.297   .     A
C679   O709    1.295   .     A
C680   O710    1.295   .     A
C680   C683    1.446   .     S
C680   O708    1.297   .     A
C681   C683    1.407   .     A
C681   Cl711   1.773   .     S
C681   C691    1.423   .     A
C682   C684    1.407   .     A
C682   Cl712   1.773   .     S
C682   C692    1.424   .     A
C683   C685    1.384   .     A
C684   C686    1.384   .     A
C685   H697    1.086   .     S
C685   C687    1.383   .     A
C686   H698    1.086   .     S
C686   C688    1.383   .     A
C687   C693    1.392   .     A
C687   C689    1.409   .     A
C688   C694    1.392   .     A
C688   C690    1.409   .     A
C689   C691    1.434   .     A
C689   C738    1.412   .     S
C690   C692    1.434   .     A
C690   C737    1.412   1_455 S
C693   H699    1.085   .     S
C693   C723    1.389   .     S
C694   H700    1.085   .     S
C694   C724    1.389   1_455 S
Cu695  Cu696   2.702   .     S
Cu695  O710    1.953   .     S
Cu695  O706    1.960   .     S
Cu695  O707    1.960   .     S
Cu695  N702    2.030   .     S
Cu695  O703    1.964   .     S
Cu696  O704    1.964   .     S
Cu696  O705    1.960   .     S
Cu696  O709    1.953   .     S
Cu696  O708    1.960   .     S
Cu696  N701    2.030   .     S
N702   N125    1.294   1_556 S
N702   C143    1.386   1_556 S
Cl715  C773    1.780   .     S
C717   N718    1.158   .     T
C717   N125    1.386   1_556 S
C719   N720    1.158   .     T
C721   O751    1.290   .     A
C721   O753    1.295   .     A
C721   C725    1.426   .     S
C722   O754    1.295   .     A
C722   O752    1.289   .     A
C722   C726    1.426   .     S
C723   C740    1.426   .     A
C723   Cl761   1.766   .     S
C724   Cl762   1.766   .     S
C724   C739    1.426   .     A
C724   C694    1.389   1_655 S
C726   C821    1.351   .     S
C726   Cl860   1.780   .     S
C727   C732    1.446   .     S
C727   O755    1.297   .     A
C727   O757    1.295   .     A
C728   O758    1.295   .     A
C728   C731    1.446   .     S
C728   O756    1.297   .     A
C729   C731    1.407   .     A
C729   Cl759   1.773   .     S
C729   C739    1.423   .     A
C730   C732    1.407   .     A
C730   Cl760   1.773   .     S
C730   C740    1.424   .     A
C731   C733    1.384   .     A
C732   C734    1.384   .     A
C733   H745    1.086   .     S
C733   C735    1.383   .     A
C734   H746    1.086   .     S
C734   C736    1.383   .     A
C735   C741    1.392   .     A
C735   C737    1.409   .     A
C736   C742    1.392   .     A
C736   C738    1.409   .     A
C737   C739    1.434   .     A
C737   C690    1.412   1_655 S
C738   C740    1.434   .     A
C741   H747    1.085   .     S
C741   C675    1.389   1_655 S
C742   H748    1.085   .     S
Cu743  Cu744   2.702   .     S
Cu743  O758    1.953   .     S
Cu743  O754    1.960   .     S
Cu743  O755    1.960   .     S
Cu743  N750    2.030   .     S
Cu743  O751    1.964   .     S
Cu744  O752    1.964   .     S
Cu744  O753    1.960   .     S
Cu744  O757    1.953   .     S
Cu744  O756    1.960   .     S
Cu744  N749    2.030   .     S
N750   N173    1.294   1_556 S
N750   C191    1.386   1_556 S
Cl763  C821    1.780   .     S
C765   N766    1.158   .     T
C765   N173    1.386   1_556 S
C767   N768    1.158   .     T
C769   O799    1.290   .     A
C769   O801    1.295   .     A
C769   C773    1.426   .     S
C770   O802    1.295   .     A
C770   O800    1.289   .     A
C770   C774    1.426   .     S
C771   C788    1.426   .     A
C771   Cl809   1.766   .     S
C771   C837    1.389   1_455 S
C772   Cl810   1.766   .     S
C772   C787    1.426   .     A
C772   C838    1.389   .     S
C774   C581    1.351   1_565 S
C774   Cl620   1.780   1_565 S
C775   C780    1.446   .     S
C775   O803    1.297   .     A
C775   O805    1.295   .     A
C776   O806    1.295   .     A
C776   C779    1.446   .     S
C776   O804    1.297   .     A
C777   C779    1.407   .     A
C777   Cl807   1.773   .     S
C777   C787    1.423   .     A
C778   C780    1.407   .     A
C778   Cl808   1.773   .     S
C778   C788    1.424   .     A
C779   C781    1.384   .     A
C780   C782    1.384   .     A
C781   H793    1.086   .     S
C781   C783    1.383   .     A
C782   H794    1.086   .     S
C782   C784    1.383   .     A
C783   C789    1.392   .     A
C783   C785    1.409   .     A
C784   C790    1.392   .     A
C784   C786    1.409   .     A
C785   C787    1.434   .     A
C785   C834    1.412   .     S
C786   C788    1.434   .     A
C786   C833    1.412   1_455 S
C789   H795    1.085   .     S
C789   C819    1.389   .     S
C790   H796    1.085   .     S
C790   C820    1.389   1_455 S
Cu791  Cu792   2.702   .     S
Cu791  O806    1.953   .     S
Cu791  O802    1.960   .     S
Cu791  O803    1.960   .     S
Cu791  N798    2.030   .     S
Cu791  O799    1.964   .     S
Cu792  O800    1.964   .     S
Cu792  O801    1.960   .     S
Cu792  O805    1.953   .     S
Cu792  O804    1.960   .     S
Cu792  N797    2.030   .     S
N798   N221    1.294   1_556 S
N798   C239    1.386   1_556 S
Cl811  C581    1.780   1_565 S
C813   N814    1.158   .     T
C813   N221    1.386   1_556 S
C815   N816    1.158   .     T
C817   O847    1.290   .     A
C817   O849    1.295   .     A
C817   C821    1.426   .     S
C818   O850    1.295   .     A
C818   O848    1.289   .     A
C818   C822    1.426   .     S
C819   C836    1.426   .     A
C819   Cl857   1.766   .     S
C820   Cl858   1.766   .     S
C820   C835    1.426   .     A
C820   C790    1.389   1_655 S
C822   C629    1.351   1_565 S
C822   Cl668   1.780   1_565 S
C823   C828    1.446   .     S
C823   O851    1.297   .     A
C823   O853    1.295   .     A
C824   O854    1.295   .     A
C824   C827    1.446   .     S
C824   O852    1.297   .     A
C825   C827    1.407   .     A
C825   Cl855   1.773   .     S
C825   C835    1.423   .     A
C826   C828    1.407   .     A
C826   Cl856   1.773   .     S
C826   C836    1.424   .     A
C827   C829    1.384   .     A
C828   C830    1.384   .     A
C829   H841    1.086   .     S
C829   C831    1.383   .     A
C830   H842    1.086   .     S
C830   C832    1.383   .     A
C831   C837    1.392   .     A
C831   C833    1.409   .     A
C832   C838    1.392   .     A
C832   C834    1.409   .     A
C833   C835    1.434   .     A
C833   C786    1.412   1_655 S
C834   C836    1.434   .     A
C837   H843    1.085   .     S
C837   C771    1.389   1_655 S
C838   H844    1.085   .     S
Cu839  Cu840   2.702   .     S
Cu839  O854    1.953   .     S
Cu839  O850    1.960   .     S
Cu839  O851    1.960   .     S
Cu839  N846    2.030   .     S
Cu839  O847    1.964   .     S
Cu840  O848    1.964   .     S
Cu840  O849    1.960   .     S
Cu840  O853    1.953   .     S
Cu840  O852    1.960   .     S
Cu840  N845    2.030   .     S
N846   N269    1.294   1_556 S
N846   C287    1.386   1_556 S
Cl859  C629    1.780   1_565 S
C861   N862    1.158   .     T
C861   N269    1.386   1_556 S
C863   N864    1.158   .     T
