data_str_m2_o10_o16_pcu_sym.149
_audit_creation_date              2020-01-03
_audit_creation_method            'Materials Studio'
_symmetry_space_group_name_H-M    'P1'
_symmetry_Int_Tables_number       1
_symmetry_cell_setting            triclinic
loop_
_symmetry_equiv_pos_as_xyz
  x,y,z
_cell_length_a                    22.3442
_cell_length_b                    26.0376
_cell_length_c                    26.7520
_cell_angle_alpha                 93.8293
_cell_angle_beta                  78.6894
_cell_angle_gamma                 103.0129
loop_
_atom_site_label
_atom_site_type_symbol
_atom_site_fract_x
_atom_site_fract_y
_atom_site_fract_z
_atom_site_U_iso_or_equiv
_atom_site_adp_type
_atom_site_occupancy
C1     C     0.18190   0.26671   0.25107   0.00000  Uiso   1.00
C2     C     0.14265   0.13111   0.48272   0.00000  Uiso   1.00
C3     C     0.16231   0.13615   0.42934   0.00000  Uiso   1.00
C4     C     0.18788   0.15186   0.01437   0.00000  Uiso   1.00
C5     C     0.25161   0.17044   0.49163   0.00000  Uiso   1.00
C6     C     0.27021   0.16614   0.43930   0.00000  Uiso   1.00
C7     C     0.22737   0.14196   0.40951   0.00000  Uiso   1.00
C8     C     0.17208   0.15684   0.06752   0.00000  Uiso   1.00
C9     C     0.28099   0.18860   0.07438   0.00000  Uiso   1.00
C10    C     0.11663   0.13344   0.39804   0.00000  Uiso   1.00
C11    C     0.19081   0.32263   0.25052   0.00000  Uiso   1.00
C12    C     0.13358   0.15510   0.34569   0.00000  Uiso   1.00
C13    C     0.14303   0.01065   0.24772   0.00000  Uiso   1.00
C14    C     0.15167   0.06661   0.24822   0.00000  Uiso   1.00
C15    C     0.19982   0.17059   0.15306   0.00000  Uiso   1.00
C16    C     0.29727   0.18923   0.02161   0.00000  Uiso   1.00
C17    C     0.21835   0.17222   0.09755   0.00000  Uiso   1.00
C18    C     0.05523   0.10778   0.41682   0.00000  Uiso   1.00
C19    C     0.03775   0.08939   0.46680   0.00000  Uiso   1.00
C20    C     0.08020   0.10252   0.00058   0.00000  Uiso   1.00
Cu21   Cu    0.10710   0.16105   0.24435   0.00000  Uiso   1.00
Cu22   Cu    0.22623   0.17228   0.25564   0.00000  Uiso   1.00
H23    H     0.31716   0.20143   0.09698   0.00000  Uiso   1.00
H24    H     0.09684   0.32026   0.24543   0.00000  Uiso   1.00
H25    H     0.00393   0.20616   0.28965   0.00000  Uiso   1.00
H26    H     0.32936   0.12709   0.21043   0.00000  Uiso   1.00
H27    H     0.31906   0.17750   0.42193   0.00000  Uiso   1.00
H28    H     0.01269   0.20243   0.00417   0.00000  Uiso   1.00
H29    H     0.02108   0.10068   0.39217   0.00000  Uiso   1.00
H30    H     0.23709   0.01302   0.25242   0.00000  Uiso   1.00
N31    N     0.31574   0.18074   0.26416   0.00000  Uiso   1.00
N32    N     0.01759   0.15259   0.23584   0.00000  Uiso   1.00
O33    O     0.12797   0.23807   0.24633   0.00000  Uiso   1.00
O34    O     0.22858   0.24755   0.25586   0.00000  Uiso   1.00
O35    O     0.09181   0.15960   0.31839   0.00000  Uiso   1.00
O36    O     0.19242   0.16908   0.32793   0.00000  Uiso   1.00
O37    O     0.10476   0.08578   0.24413   0.00000  Uiso   1.00
O38    O     0.20536   0.09526   0.25367   0.00000  Uiso   1.00
O39    O     0.14092   0.16425   0.17207   0.00000  Uiso   1.00
O40    O     0.24152   0.17373   0.18160   0.00000  Uiso   1.00
H41    H     0.12391   0.14952   0.08631   0.00000  Uiso   1.00
O42    O     0.06000   0.08401   0.04964   0.00000  Uiso   1.00
C43    C     0.08352   0.03871   0.05350   0.00000  Uiso   1.00
H44    H     0.13549   0.04753   0.04629   0.00000  Uiso   1.00
H45    H     0.06601   0.00653   0.02718   0.00000  Uiso   1.00
H46    H     0.06695   0.02410   0.09291   0.00000  Uiso   1.00
O47    O     0.31044   0.06270   0.48484   0.00000  Uiso   1.00
C48    C     0.30007   0.01215   0.46126   0.00000  Uiso   1.00
H49    H     0.33244   0.32188   0.46969   0.00000  Uiso   1.00
H50    H     0.30442   0.01420   0.41932   0.00000  Uiso   1.00
H51    H     0.25172   0.32420   0.47671   0.00000  Uiso   1.00
O52    O     0.25093   0.11784   0.36441   0.00000  Uiso   1.00
C53    C     0.22412   0.06322   0.36504   0.00000  Uiso   1.00
H54    H     0.17838   0.05527   0.35246   0.00000  Uiso   1.00
H55    H     0.21801   0.04594   0.40317   0.00000  Uiso   1.00
H56    H     0.25580   0.04274   0.33792   0.00000  Uiso   1.00
C57    C     0.51523   0.26671   0.25107   0.00000  Uiso   1.00
C58    C     0.47599   0.13111   0.48272   0.00000  Uiso   1.00
C59    C     0.49564   0.13615   0.42934   0.00000  Uiso   1.00
C60    C     0.52122   0.15186   0.01437   0.00000  Uiso   1.00
C61    C     0.58494   0.17044   0.49163   0.00000  Uiso   1.00
C62    C     0.60354   0.16614   0.43930   0.00000  Uiso   1.00
C63    C     0.56070   0.14196   0.40951   0.00000  Uiso   1.00
C64    C     0.50542   0.15684   0.06752   0.00000  Uiso   1.00
C65    C     0.61432   0.18860   0.07438   0.00000  Uiso   1.00
C66    C     0.44996   0.13344   0.39804   0.00000  Uiso   1.00
C67    C     0.52415   0.32263   0.25052   0.00000  Uiso   1.00
C68    C     0.46692   0.15510   0.34569   0.00000  Uiso   1.00
C69    C     0.47636   0.01065   0.24772   0.00000  Uiso   1.00
C70    C     0.48500   0.06661   0.24822   0.00000  Uiso   1.00
C71    C     0.53316   0.17059   0.15306   0.00000  Uiso   1.00
C72    C     0.63060   0.18923   0.02161   0.00000  Uiso   1.00
C73    C     0.55169   0.17222   0.09755   0.00000  Uiso   1.00
C74    C     0.38856   0.10778   0.41682   0.00000  Uiso   1.00
C75    C     0.37108   0.08939   0.46680   0.00000  Uiso   1.00
C76    C     0.41353   0.10252   0.00058   0.00000  Uiso   1.00
Cu77   Cu    0.44043   0.16105   0.24435   0.00000  Uiso   1.00
Cu78   Cu    0.55957   0.17228   0.25564   0.00000  Uiso   1.00
H79    H     0.65049   0.20143   0.09698   0.00000  Uiso   1.00
H80    H     0.43017   0.32026   0.24543   0.00000  Uiso   1.00
H81    H     0.33726   0.20616   0.28965   0.00000  Uiso   1.00
H82    H     0.66269   0.12709   0.21043   0.00000  Uiso   1.00
H83    H     0.65239   0.17750   0.42193   0.00000  Uiso   1.00
H84    H     0.34602   0.20243   0.00417   0.00000  Uiso   1.00
H85    H     0.35441   0.10068   0.39217   0.00000  Uiso   1.00
H86    H     0.57043   0.01302   0.25242   0.00000  Uiso   1.00
N87    N     0.64908   0.18074   0.26416   0.00000  Uiso   1.00
N88    N     0.35092   0.15259   0.23584   0.00000  Uiso   1.00
O89    O     0.46131   0.23807   0.24633   0.00000  Uiso   1.00
O90    O     0.56191   0.24755   0.25586   0.00000  Uiso   1.00
O91    O     0.42515   0.15960   0.31839   0.00000  Uiso   1.00
O92    O     0.52575   0.16908   0.32793   0.00000  Uiso   1.00
O93    O     0.43809   0.08578   0.24413   0.00000  Uiso   1.00
O94    O     0.53869   0.09526   0.25367   0.00000  Uiso   1.00
O95    O     0.47425   0.16425   0.17207   0.00000  Uiso   1.00
O96    O     0.57485   0.17373   0.18160   0.00000  Uiso   1.00
H97    H     0.45724   0.14952   0.08631   0.00000  Uiso   1.00
O98    O     0.39333   0.08401   0.04964   0.00000  Uiso   1.00
C99    C     0.41685   0.03871   0.05350   0.00000  Uiso   1.00
H100   H     0.46883   0.04753   0.04629   0.00000  Uiso   1.00
H101   H     0.39934   0.00653   0.02718   0.00000  Uiso   1.00
H102   H     0.40029   0.02410   0.09291   0.00000  Uiso   1.00
O103   O     0.64377   0.06270   0.48484   0.00000  Uiso   1.00
C104   C     0.63340   0.01215   0.46126   0.00000  Uiso   1.00
H105   H     0.66578   0.32188   0.46969   0.00000  Uiso   1.00
H106   H     0.63775   0.01420   0.41932   0.00000  Uiso   1.00
H107   H     0.58505   0.32420   0.47671   0.00000  Uiso   1.00
O108   O     0.58427   0.11784   0.36441   0.00000  Uiso   1.00
C109   C     0.55745   0.06322   0.36504   0.00000  Uiso   1.00
H110   H     0.51171   0.05527   0.35246   0.00000  Uiso   1.00
H111   H     0.55134   0.04594   0.40317   0.00000  Uiso   1.00
H112   H     0.58913   0.04274   0.33792   0.00000  Uiso   1.00
C113   C     0.84856   0.26671   0.25107   0.00000  Uiso   1.00
C114   C     0.80932   0.13111   0.48272   0.00000  Uiso   1.00
C115   C     0.82897   0.13615   0.42934   0.00000  Uiso   1.00
C116   C     0.85455   0.15186   0.01437   0.00000  Uiso   1.00
C117   C     0.91828   0.17044   0.49163   0.00000  Uiso   1.00
C118   C     0.93687   0.16614   0.43930   0.00000  Uiso   1.00
C119   C     0.89404   0.14196   0.40951   0.00000  Uiso   1.00
C120   C     0.83875   0.15684   0.06752   0.00000  Uiso   1.00
C121   C     0.94765   0.18860   0.07438   0.00000  Uiso   1.00
C122   C     0.78330   0.13344   0.39804   0.00000  Uiso   1.00
C123   C     0.85748   0.32263   0.25052   0.00000  Uiso   1.00
C124   C     0.80025   0.15510   0.34569   0.00000  Uiso   1.00
C125   C     0.80969   0.01065   0.24772   0.00000  Uiso   1.00
C126   C     0.81833   0.06661   0.24822   0.00000  Uiso   1.00
C127   C     0.86649   0.17059   0.15306   0.00000  Uiso   1.00
C128   C     0.96394   0.18923   0.02161   0.00000  Uiso   1.00
C129   C     0.88502   0.17222   0.09755   0.00000  Uiso   1.00
C130   C     0.72190   0.10778   0.41682   0.00000  Uiso   1.00
C131   C     0.70442   0.08939   0.46680   0.00000  Uiso   1.00
C132   C     0.74686   0.10252   0.00058   0.00000  Uiso   1.00
Cu133  Cu    0.77377   0.16105   0.24435   0.00000  Uiso   1.00
Cu134  Cu    0.89290   0.17228   0.25564   0.00000  Uiso   1.00
H135   H     0.98382   0.20143   0.09698   0.00000  Uiso   1.00
H136   H     0.76350   0.32026   0.24543   0.00000  Uiso   1.00
H137   H     0.67059   0.20616   0.28965   0.00000  Uiso   1.00
H138   H     0.99603   0.12709   0.21043   0.00000  Uiso   1.00
H139   H     0.98573   0.17750   0.42193   0.00000  Uiso   1.00
H140   H     0.67935   0.20243   0.00417   0.00000  Uiso   1.00
H141   H     0.68775   0.10068   0.39217   0.00000  Uiso   1.00
H142   H     0.90376   0.01302   0.25242   0.00000  Uiso   1.00
N143   N     0.98241   0.18074   0.26416   0.00000  Uiso   1.00
N144   N     0.68426   0.15259   0.23584   0.00000  Uiso   1.00
O145   O     0.79464   0.23807   0.24633   0.00000  Uiso   1.00
O146   O     0.89524   0.24755   0.25586   0.00000  Uiso   1.00
O147   O     0.75848   0.15960   0.31839   0.00000  Uiso   1.00
O148   O     0.85908   0.16908   0.32793   0.00000  Uiso   1.00
O149   O     0.77142   0.08578   0.24413   0.00000  Uiso   1.00
O150   O     0.87203   0.09526   0.25367   0.00000  Uiso   1.00
O151   O     0.80758   0.16425   0.17207   0.00000  Uiso   1.00
O152   O     0.90819   0.17373   0.18160   0.00000  Uiso   1.00
H153   H     0.79058   0.14952   0.08631   0.00000  Uiso   1.00
O154   O     0.72667   0.08401   0.04964   0.00000  Uiso   1.00
C155   C     0.75018   0.03871   0.05350   0.00000  Uiso   1.00
H156   H     0.80216   0.04753   0.04629   0.00000  Uiso   1.00
H157   H     0.73268   0.00653   0.02718   0.00000  Uiso   1.00
H158   H     0.73362   0.02410   0.09291   0.00000  Uiso   1.00
O159   O     0.97710   0.06270   0.48484   0.00000  Uiso   1.00
C160   C     0.96674   0.01215   0.46126   0.00000  Uiso   1.00
H161   H     0.99911   0.32188   0.46969   0.00000  Uiso   1.00
H162   H     0.97108   0.01420   0.41932   0.00000  Uiso   1.00
H163   H     0.91839   0.32420   0.47671   0.00000  Uiso   1.00
O164   O     0.91760   0.11784   0.36441   0.00000  Uiso   1.00
C165   C     0.89079   0.06322   0.36504   0.00000  Uiso   1.00
H166   H     0.84504   0.05527   0.35246   0.00000  Uiso   1.00
H167   H     0.88468   0.04594   0.40317   0.00000  Uiso   1.00
H168   H     0.92247   0.04274   0.33792   0.00000  Uiso   1.00
C169   C     0.18190   0.60005   0.25107   0.00000  Uiso   1.00
C170   C     0.14265   0.46444   0.48272   0.00000  Uiso   1.00
C171   C     0.16231   0.46948   0.42934   0.00000  Uiso   1.00
C172   C     0.18788   0.48519   0.01437   0.00000  Uiso   1.00
C173   C     0.25161   0.50377   0.49163   0.00000  Uiso   1.00
C174   C     0.27021   0.49948   0.43930   0.00000  Uiso   1.00
C175   C     0.22737   0.47529   0.40951   0.00000  Uiso   1.00
C176   C     0.17208   0.49017   0.06752   0.00000  Uiso   1.00
C177   C     0.28099   0.52193   0.07438   0.00000  Uiso   1.00
C178   C     0.11663   0.46677   0.39804   0.00000  Uiso   1.00
C179   C     0.19081   0.65597   0.25052   0.00000  Uiso   1.00
C180   C     0.13358   0.48843   0.34569   0.00000  Uiso   1.00
C181   C     0.14303   0.34399   0.24772   0.00000  Uiso   1.00
C182   C     0.15167   0.39994   0.24822   0.00000  Uiso   1.00
C183   C     0.19982   0.50392   0.15306   0.00000  Uiso   1.00
C184   C     0.29727   0.52256   0.02161   0.00000  Uiso   1.00
C185   C     0.21835   0.50555   0.09755   0.00000  Uiso   1.00
C186   C     0.05523   0.44112   0.41682   0.00000  Uiso   1.00
C187   C     0.03775   0.42272   0.46680   0.00000  Uiso   1.00
C188   C     0.08020   0.43585   0.00058   0.00000  Uiso   1.00
Cu189  Cu    0.10710   0.49439   0.24435   0.00000  Uiso   1.00
Cu190  Cu    0.22623   0.50561   0.25564   0.00000  Uiso   1.00
H191   H     0.31716   0.53476   0.09698   0.00000  Uiso   1.00
H192   H     0.09684   0.65359   0.24543   0.00000  Uiso   1.00
H193   H     0.00393   0.53949   0.28965   0.00000  Uiso   1.00
H194   H     0.32936   0.46043   0.21043   0.00000  Uiso   1.00
H195   H     0.31906   0.51084   0.42193   0.00000  Uiso   1.00
H196   H     0.01269   0.53577   0.00417   0.00000  Uiso   1.00
H197   H     0.02108   0.43402   0.39217   0.00000  Uiso   1.00
H198   H     0.23709   0.34635   0.25242   0.00000  Uiso   1.00
N199   N     0.31574   0.51407   0.26416   0.00000  Uiso   1.00
N200   N     0.01759   0.48593   0.23584   0.00000  Uiso   1.00
O201   O     0.12797   0.57141   0.24633   0.00000  Uiso   1.00
O202   O     0.22858   0.58089   0.25586   0.00000  Uiso   1.00
O203   O     0.09181   0.49293   0.31839   0.00000  Uiso   1.00
O204   O     0.19242   0.50241   0.32793   0.00000  Uiso   1.00
O205   O     0.10476   0.41911   0.24413   0.00000  Uiso   1.00
O206   O     0.20536   0.42859   0.25367   0.00000  Uiso   1.00
O207   O     0.14092   0.49759   0.17207   0.00000  Uiso   1.00
O208   O     0.24152   0.50707   0.18160   0.00000  Uiso   1.00
H209   H     0.12391   0.48285   0.08631   0.00000  Uiso   1.00
O210   O     0.06000   0.41735   0.04964   0.00000  Uiso   1.00
C211   C     0.08352   0.37205   0.05350   0.00000  Uiso   1.00
H212   H     0.13549   0.38086   0.04629   0.00000  Uiso   1.00
H213   H     0.06601   0.33986   0.02718   0.00000  Uiso   1.00
H214   H     0.06695   0.35743   0.09291   0.00000  Uiso   1.00
O215   O     0.31044   0.39604   0.48484   0.00000  Uiso   1.00
C216   C     0.30007   0.34548   0.46126   0.00000  Uiso   1.00
H217   H     0.33244   0.65522   0.46969   0.00000  Uiso   1.00
H218   H     0.30442   0.34753   0.41932   0.00000  Uiso   1.00
H219   H     0.25172   0.65753   0.47671   0.00000  Uiso   1.00
O220   O     0.25093   0.45118   0.36441   0.00000  Uiso   1.00
C221   C     0.22412   0.39655   0.36504   0.00000  Uiso   1.00
H222   H     0.17838   0.38860   0.35246   0.00000  Uiso   1.00
H223   H     0.21801   0.37927   0.40317   0.00000  Uiso   1.00
H224   H     0.25580   0.37608   0.33792   0.00000  Uiso   1.00
C225   C     0.51523   0.60005   0.25107   0.00000  Uiso   1.00
C226   C     0.47599   0.46444   0.48272   0.00000  Uiso   1.00
C227   C     0.49564   0.46948   0.42934   0.00000  Uiso   1.00
C228   C     0.52122   0.48519   0.01437   0.00000  Uiso   1.00
C229   C     0.58494   0.50377   0.49163   0.00000  Uiso   1.00
C230   C     0.60354   0.49948   0.43930   0.00000  Uiso   1.00
C231   C     0.56070   0.47529   0.40951   0.00000  Uiso   1.00
C232   C     0.50542   0.49017   0.06752   0.00000  Uiso   1.00
C233   C     0.61432   0.52193   0.07438   0.00000  Uiso   1.00
C234   C     0.44996   0.46677   0.39804   0.00000  Uiso   1.00
C235   C     0.52415   0.65597   0.25052   0.00000  Uiso   1.00
C236   C     0.46692   0.48843   0.34569   0.00000  Uiso   1.00
C237   C     0.47636   0.34399   0.24772   0.00000  Uiso   1.00
C238   C     0.48500   0.39994   0.24822   0.00000  Uiso   1.00
C239   C     0.53316   0.50392   0.15306   0.00000  Uiso   1.00
C240   C     0.63060   0.52256   0.02161   0.00000  Uiso   1.00
C241   C     0.55169   0.50555   0.09755   0.00000  Uiso   1.00
C242   C     0.38856   0.44112   0.41682   0.00000  Uiso   1.00
C243   C     0.37108   0.42272   0.46680   0.00000  Uiso   1.00
C244   C     0.41353   0.43585   0.00058   0.00000  Uiso   1.00
Cu245  Cu    0.44043   0.49439   0.24435   0.00000  Uiso   1.00
Cu246  Cu    0.55957   0.50561   0.25564   0.00000  Uiso   1.00
H247   H     0.65049   0.53476   0.09698   0.00000  Uiso   1.00
H248   H     0.43017   0.65359   0.24543   0.00000  Uiso   1.00
H249   H     0.33726   0.53949   0.28965   0.00000  Uiso   1.00
H250   H     0.66269   0.46043   0.21043   0.00000  Uiso   1.00
H251   H     0.65239   0.51084   0.42193   0.00000  Uiso   1.00
H252   H     0.34602   0.53577   0.00417   0.00000  Uiso   1.00
H253   H     0.35441   0.43402   0.39217   0.00000  Uiso   1.00
H254   H     0.57043   0.34635   0.25242   0.00000  Uiso   1.00
N255   N     0.64908   0.51407   0.26416   0.00000  Uiso   1.00
N256   N     0.35092   0.48593   0.23584   0.00000  Uiso   1.00
O257   O     0.46131   0.57141   0.24633   0.00000  Uiso   1.00
O258   O     0.56191   0.58089   0.25586   0.00000  Uiso   1.00
O259   O     0.42515   0.49293   0.31839   0.00000  Uiso   1.00
O260   O     0.52575   0.50241   0.32793   0.00000  Uiso   1.00
O261   O     0.43809   0.41911   0.24413   0.00000  Uiso   1.00
O262   O     0.53869   0.42859   0.25367   0.00000  Uiso   1.00
O263   O     0.47425   0.49759   0.17207   0.00000  Uiso   1.00
O264   O     0.57485   0.50707   0.18160   0.00000  Uiso   1.00
H265   H     0.45724   0.48285   0.08631   0.00000  Uiso   1.00
O266   O     0.39333   0.41735   0.04964   0.00000  Uiso   1.00
C267   C     0.41685   0.37205   0.05350   0.00000  Uiso   1.00
H268   H     0.46883   0.38086   0.04629   0.00000  Uiso   1.00
H269   H     0.39934   0.33986   0.02718   0.00000  Uiso   1.00
H270   H     0.40029   0.35743   0.09291   0.00000  Uiso   1.00
O271   O     0.64377   0.39604   0.48484   0.00000  Uiso   1.00
C272   C     0.63340   0.34548   0.46126   0.00000  Uiso   1.00
H273   H     0.66578   0.65522   0.46969   0.00000  Uiso   1.00
H274   H     0.63775   0.34753   0.41932   0.00000  Uiso   1.00
H275   H     0.58505   0.65753   0.47671   0.00000  Uiso   1.00
O276   O     0.58427   0.45118   0.36441   0.00000  Uiso   1.00
C277   C     0.55745   0.39655   0.36504   0.00000  Uiso   1.00
H278   H     0.51171   0.38860   0.35246   0.00000  Uiso   1.00
H279   H     0.55134   0.37927   0.40317   0.00000  Uiso   1.00
H280   H     0.58913   0.37608   0.33792   0.00000  Uiso   1.00
C281   C     0.84856   0.60005   0.25107   0.00000  Uiso   1.00
C282   C     0.80932   0.46444   0.48272   0.00000  Uiso   1.00
C283   C     0.82897   0.46948   0.42934   0.00000  Uiso   1.00
C284   C     0.85455   0.48519   0.01437   0.00000  Uiso   1.00
C285   C     0.91828   0.50377   0.49163   0.00000  Uiso   1.00
C286   C     0.93687   0.49948   0.43930   0.00000  Uiso   1.00
C287   C     0.89404   0.47529   0.40951   0.00000  Uiso   1.00
C288   C     0.83875   0.49017   0.06752   0.00000  Uiso   1.00
C289   C     0.94765   0.52193   0.07438   0.00000  Uiso   1.00
C290   C     0.78330   0.46677   0.39804   0.00000  Uiso   1.00
C291   C     0.85748   0.65597   0.25052   0.00000  Uiso   1.00
C292   C     0.80025   0.48843   0.34569   0.00000  Uiso   1.00
C293   C     0.80969   0.34399   0.24772   0.00000  Uiso   1.00
C294   C     0.81833   0.39994   0.24822   0.00000  Uiso   1.00
C295   C     0.86649   0.50392   0.15306   0.00000  Uiso   1.00
C296   C     0.96394   0.52256   0.02161   0.00000  Uiso   1.00
C297   C     0.88502   0.50555   0.09755   0.00000  Uiso   1.00
C298   C     0.72190   0.44112   0.41682   0.00000  Uiso   1.00
C299   C     0.70442   0.42272   0.46680   0.00000  Uiso   1.00
C300   C     0.74686   0.43585   0.00058   0.00000  Uiso   1.00
Cu301  Cu    0.77377   0.49439   0.24435   0.00000  Uiso   1.00
Cu302  Cu    0.89290   0.50561   0.25564   0.00000  Uiso   1.00
H303   H     0.98382   0.53476   0.09698   0.00000  Uiso   1.00
H304   H     0.76350   0.65359   0.24543   0.00000  Uiso   1.00
H305   H     0.67059   0.53949   0.28965   0.00000  Uiso   1.00
H306   H     0.99603   0.46043   0.21043   0.00000  Uiso   1.00
H307   H     0.98573   0.51084   0.42193   0.00000  Uiso   1.00
H308   H     0.67935   0.53577   0.00417   0.00000  Uiso   1.00
H309   H     0.68775   0.43402   0.39217   0.00000  Uiso   1.00
H310   H     0.90376   0.34635   0.25242   0.00000  Uiso   1.00
N311   N     0.98241   0.51407   0.26416   0.00000  Uiso   1.00
N312   N     0.68426   0.48593   0.23584   0.00000  Uiso   1.00
O313   O     0.79464   0.57141   0.24633   0.00000  Uiso   1.00
O314   O     0.89524   0.58089   0.25586   0.00000  Uiso   1.00
O315   O     0.75848   0.49293   0.31839   0.00000  Uiso   1.00
O316   O     0.85908   0.50241   0.32793   0.00000  Uiso   1.00
O317   O     0.77142   0.41911   0.24413   0.00000  Uiso   1.00
O318   O     0.87203   0.42859   0.25367   0.00000  Uiso   1.00
O319   O     0.80758   0.49759   0.17207   0.00000  Uiso   1.00
O320   O     0.90819   0.50707   0.18160   0.00000  Uiso   1.00
H321   H     0.79058   0.48285   0.08631   0.00000  Uiso   1.00
O322   O     0.72667   0.41735   0.04964   0.00000  Uiso   1.00
C323   C     0.75018   0.37205   0.05350   0.00000  Uiso   1.00
H324   H     0.80216   0.38086   0.04629   0.00000  Uiso   1.00
H325   H     0.73268   0.33986   0.02718   0.00000  Uiso   1.00
H326   H     0.73362   0.35743   0.09291   0.00000  Uiso   1.00
O327   O     0.97710   0.39604   0.48484   0.00000  Uiso   1.00
C328   C     0.96674   0.34548   0.46126   0.00000  Uiso   1.00
H329   H     0.99911   0.65522   0.46969   0.00000  Uiso   1.00
H330   H     0.97108   0.34753   0.41932   0.00000  Uiso   1.00
H331   H     0.91839   0.65753   0.47671   0.00000  Uiso   1.00
O332   O     0.91760   0.45118   0.36441   0.00000  Uiso   1.00
C333   C     0.89079   0.39655   0.36504   0.00000  Uiso   1.00
H334   H     0.84504   0.38860   0.35246   0.00000  Uiso   1.00
H335   H     0.88468   0.37927   0.40317   0.00000  Uiso   1.00
H336   H     0.92247   0.37608   0.33792   0.00000  Uiso   1.00
C337   C     0.18190   0.93338   0.25107   0.00000  Uiso   1.00
C338   C     0.14265   0.79778   0.48272   0.00000  Uiso   1.00
C339   C     0.16231   0.80282   0.42934   0.00000  Uiso   1.00
C340   C     0.18788   0.81852   0.01437   0.00000  Uiso   1.00
C341   C     0.25161   0.83710   0.49163   0.00000  Uiso   1.00
C342   C     0.27021   0.83281   0.43930   0.00000  Uiso   1.00
C343   C     0.22737   0.80863   0.40951   0.00000  Uiso   1.00
C344   C     0.17208   0.82350   0.06752   0.00000  Uiso   1.00
C345   C     0.28099   0.85527   0.07438   0.00000  Uiso   1.00
C346   C     0.11663   0.80011   0.39804   0.00000  Uiso   1.00
C347   C     0.19081   0.98930   0.25052   0.00000  Uiso   1.00
C348   C     0.13358   0.82176   0.34569   0.00000  Uiso   1.00
C349   C     0.14303   0.67732   0.24772   0.00000  Uiso   1.00
C350   C     0.15167   0.73327   0.24822   0.00000  Uiso   1.00
C351   C     0.19982   0.83725   0.15306   0.00000  Uiso   1.00
C352   C     0.29727   0.85589   0.02161   0.00000  Uiso   1.00
C353   C     0.21835   0.83888   0.09755   0.00000  Uiso   1.00
C354   C     0.05523   0.77445   0.41682   0.00000  Uiso   1.00
C355   C     0.03775   0.75606   0.46680   0.00000  Uiso   1.00
C356   C     0.08020   0.76918   0.00058   0.00000  Uiso   1.00
Cu357  Cu    0.10710   0.82772   0.24435   0.00000  Uiso   1.00
Cu358  Cu    0.22623   0.83895   0.25564   0.00000  Uiso   1.00
H359   H     0.31716   0.86809   0.09698   0.00000  Uiso   1.00
H360   H     0.09684   0.98693   0.24543   0.00000  Uiso   1.00
H361   H     0.00393   0.87282   0.28965   0.00000  Uiso   1.00
H362   H     0.32936   0.79376   0.21043   0.00000  Uiso   1.00
H363   H     0.31906   0.84417   0.42193   0.00000  Uiso   1.00
H364   H     0.01269   0.86910   0.00417   0.00000  Uiso   1.00
H365   H     0.02108   0.76735   0.39217   0.00000  Uiso   1.00
H366   H     0.23709   0.67968   0.25242   0.00000  Uiso   1.00
N367   N     0.31574   0.84741   0.26416   0.00000  Uiso   1.00
N368   N     0.01759   0.81926   0.23584   0.00000  Uiso   1.00
O369   O     0.12797   0.90474   0.24633   0.00000  Uiso   1.00
O370   O     0.22858   0.91422   0.25586   0.00000  Uiso   1.00
O371   O     0.09181   0.82627   0.31839   0.00000  Uiso   1.00
O372   O     0.19242   0.83575   0.32793   0.00000  Uiso   1.00
O373   O     0.10476   0.75245   0.24413   0.00000  Uiso   1.00
O374   O     0.20536   0.76193   0.25367   0.00000  Uiso   1.00
O375   O     0.14092   0.83092   0.17207   0.00000  Uiso   1.00
O376   O     0.24152   0.84040   0.18160   0.00000  Uiso   1.00
H377   H     0.12391   0.81619   0.08631   0.00000  Uiso   1.00
O378   O     0.06000   0.75068   0.04964   0.00000  Uiso   1.00
C379   C     0.08352   0.70538   0.05350   0.00000  Uiso   1.00
H380   H     0.13549   0.71420   0.04629   0.00000  Uiso   1.00
H381   H     0.06601   0.67320   0.02718   0.00000  Uiso   1.00
H382   H     0.06695   0.69077   0.09291   0.00000  Uiso   1.00
O383   O     0.31044   0.72937   0.48484   0.00000  Uiso   1.00
C384   C     0.30007   0.67881   0.46126   0.00000  Uiso   1.00
H385   H     0.33244   0.98855   0.46969   0.00000  Uiso   1.00
H386   H     0.30442   0.68087   0.41932   0.00000  Uiso   1.00
H387   H     0.25172   0.99086   0.47671   0.00000  Uiso   1.00
O388   O     0.25093   0.78451   0.36441   0.00000  Uiso   1.00
C389   C     0.22412   0.72989   0.36504   0.00000  Uiso   1.00
H390   H     0.17838   0.72193   0.35246   0.00000  Uiso   1.00
H391   H     0.21801   0.71260   0.40317   0.00000  Uiso   1.00
H392   H     0.25580   0.70941   0.33792   0.00000  Uiso   1.00
C393   C     0.51523   0.93338   0.25107   0.00000  Uiso   1.00
C394   C     0.47599   0.79778   0.48272   0.00000  Uiso   1.00
C395   C     0.49564   0.80282   0.42934   0.00000  Uiso   1.00
C396   C     0.52122   0.81852   0.01437   0.00000  Uiso   1.00
C397   C     0.58494   0.83710   0.49163   0.00000  Uiso   1.00
C398   C     0.60354   0.83281   0.43930   0.00000  Uiso   1.00
C399   C     0.56070   0.80863   0.40951   0.00000  Uiso   1.00
C400   C     0.50542   0.82350   0.06752   0.00000  Uiso   1.00
C401   C     0.61432   0.85527   0.07438   0.00000  Uiso   1.00
C402   C     0.44996   0.80011   0.39804   0.00000  Uiso   1.00
C403   C     0.52415   0.98930   0.25052   0.00000  Uiso   1.00
C404   C     0.46692   0.82176   0.34569   0.00000  Uiso   1.00
C405   C     0.47636   0.67732   0.24772   0.00000  Uiso   1.00
C406   C     0.48500   0.73327   0.24822   0.00000  Uiso   1.00
C407   C     0.53316   0.83725   0.15306   0.00000  Uiso   1.00
C408   C     0.63060   0.85589   0.02161   0.00000  Uiso   1.00
C409   C     0.55169   0.83888   0.09755   0.00000  Uiso   1.00
C410   C     0.38856   0.77445   0.41682   0.00000  Uiso   1.00
C411   C     0.37108   0.75606   0.46680   0.00000  Uiso   1.00
C412   C     0.41353   0.76918   0.00058   0.00000  Uiso   1.00
Cu413  Cu    0.44043   0.82772   0.24435   0.00000  Uiso   1.00
Cu414  Cu    0.55957   0.83895   0.25564   0.00000  Uiso   1.00
H415   H     0.65049   0.86809   0.09698   0.00000  Uiso   1.00
H416   H     0.43017   0.98693   0.24543   0.00000  Uiso   1.00
H417   H     0.33726   0.87282   0.28965   0.00000  Uiso   1.00
H418   H     0.66269   0.79376   0.21043   0.00000  Uiso   1.00
H419   H     0.65239   0.84417   0.42193   0.00000  Uiso   1.00
H420   H     0.34602   0.86910   0.00417   0.00000  Uiso   1.00
H421   H     0.35441   0.76735   0.39217   0.00000  Uiso   1.00
H422   H     0.57043   0.67968   0.25242   0.00000  Uiso   1.00
N423   N     0.64908   0.84741   0.26416   0.00000  Uiso   1.00
N424   N     0.35092   0.81926   0.23584   0.00000  Uiso   1.00
O425   O     0.46131   0.90474   0.24633   0.00000  Uiso   1.00
O426   O     0.56191   0.91422   0.25586   0.00000  Uiso   1.00
O427   O     0.42515   0.82627   0.31839   0.00000  Uiso   1.00
O428   O     0.52575   0.83575   0.32793   0.00000  Uiso   1.00
O429   O     0.43809   0.75245   0.24413   0.00000  Uiso   1.00
O430   O     0.53869   0.76193   0.25367   0.00000  Uiso   1.00
O431   O     0.47425   0.83092   0.17207   0.00000  Uiso   1.00
O432   O     0.57485   0.84040   0.18160   0.00000  Uiso   1.00
H433   H     0.45724   0.81619   0.08631   0.00000  Uiso   1.00
O434   O     0.39333   0.75068   0.04964   0.00000  Uiso   1.00
C435   C     0.41685   0.70538   0.05350   0.00000  Uiso   1.00
H436   H     0.46883   0.71420   0.04629   0.00000  Uiso   1.00
H437   H     0.39934   0.67320   0.02718   0.00000  Uiso   1.00
H438   H     0.40029   0.69077   0.09291   0.00000  Uiso   1.00
O439   O     0.64377   0.72937   0.48484   0.00000  Uiso   1.00
C440   C     0.63340   0.67881   0.46126   0.00000  Uiso   1.00
H441   H     0.66578   0.98855   0.46969   0.00000  Uiso   1.00
H442   H     0.63775   0.68087   0.41932   0.00000  Uiso   1.00
H443   H     0.58505   0.99086   0.47671   0.00000  Uiso   1.00
O444   O     0.58427   0.78451   0.36441   0.00000  Uiso   1.00
C445   C     0.55745   0.72989   0.36504   0.00000  Uiso   1.00
H446   H     0.51171   0.72193   0.35246   0.00000  Uiso   1.00
H447   H     0.55134   0.71260   0.40317   0.00000  Uiso   1.00
H448   H     0.58913   0.70941   0.33792   0.00000  Uiso   1.00
C449   C     0.84856   0.93338   0.25107   0.00000  Uiso   1.00
C450   C     0.80932   0.79778   0.48272   0.00000  Uiso   1.00
C451   C     0.82897   0.80282   0.42934   0.00000  Uiso   1.00
C452   C     0.85455   0.81852   0.01437   0.00000  Uiso   1.00
C453   C     0.91828   0.83710   0.49163   0.00000  Uiso   1.00
C454   C     0.93687   0.83281   0.43930   0.00000  Uiso   1.00
C455   C     0.89404   0.80863   0.40951   0.00000  Uiso   1.00
C456   C     0.83875   0.82350   0.06752   0.00000  Uiso   1.00
C457   C     0.94765   0.85527   0.07438   0.00000  Uiso   1.00
C458   C     0.78330   0.80011   0.39804   0.00000  Uiso   1.00
C459   C     0.85748   0.98930   0.25052   0.00000  Uiso   1.00
C460   C     0.80025   0.82176   0.34569   0.00000  Uiso   1.00
C461   C     0.80969   0.67732   0.24772   0.00000  Uiso   1.00
C462   C     0.81833   0.73327   0.24822   0.00000  Uiso   1.00
C463   C     0.86649   0.83725   0.15306   0.00000  Uiso   1.00
C464   C     0.96394   0.85589   0.02161   0.00000  Uiso   1.00
C465   C     0.88502   0.83888   0.09755   0.00000  Uiso   1.00
C466   C     0.72190   0.77445   0.41682   0.00000  Uiso   1.00
C467   C     0.70442   0.75606   0.46680   0.00000  Uiso   1.00
C468   C     0.74686   0.76918   0.00058   0.00000  Uiso   1.00
Cu469  Cu    0.77377   0.82772   0.24435   0.00000  Uiso   1.00
Cu470  Cu    0.89290   0.83895   0.25564   0.00000  Uiso   1.00
H471   H     0.98382   0.86809   0.09698   0.00000  Uiso   1.00
H472   H     0.76350   0.98693   0.24543   0.00000  Uiso   1.00
H473   H     0.67059   0.87282   0.28965   0.00000  Uiso   1.00
H474   H     0.99603   0.79376   0.21043   0.00000  Uiso   1.00
H475   H     0.98573   0.84417   0.42193   0.00000  Uiso   1.00
H476   H     0.67935   0.86910   0.00417   0.00000  Uiso   1.00
H477   H     0.68775   0.76735   0.39217   0.00000  Uiso   1.00
H478   H     0.90376   0.67968   0.25242   0.00000  Uiso   1.00
N479   N     0.98241   0.84741   0.26416   0.00000  Uiso   1.00
N480   N     0.68426   0.81926   0.23584   0.00000  Uiso   1.00
O481   O     0.79464   0.90474   0.24633   0.00000  Uiso   1.00
O482   O     0.89524   0.91422   0.25586   0.00000  Uiso   1.00
O483   O     0.75848   0.82627   0.31839   0.00000  Uiso   1.00
O484   O     0.85908   0.83575   0.32793   0.00000  Uiso   1.00
O485   O     0.77142   0.75245   0.24413   0.00000  Uiso   1.00
O486   O     0.87203   0.76193   0.25367   0.00000  Uiso   1.00
O487   O     0.80758   0.83092   0.17207   0.00000  Uiso   1.00
O488   O     0.90819   0.84040   0.18160   0.00000  Uiso   1.00
H489   H     0.79058   0.81619   0.08631   0.00000  Uiso   1.00
O490   O     0.72667   0.75068   0.04964   0.00000  Uiso   1.00
C491   C     0.75018   0.70538   0.05350   0.00000  Uiso   1.00
H492   H     0.80216   0.71420   0.04629   0.00000  Uiso   1.00
H493   H     0.73268   0.67320   0.02718   0.00000  Uiso   1.00
H494   H     0.73362   0.69077   0.09291   0.00000  Uiso   1.00
O495   O     0.97710   0.72937   0.48484   0.00000  Uiso   1.00
C496   C     0.96674   0.67881   0.46126   0.00000  Uiso   1.00
H497   H     0.99911   0.98855   0.46969   0.00000  Uiso   1.00
H498   H     0.97108   0.68087   0.41932   0.00000  Uiso   1.00
H499   H     0.91839   0.99086   0.47671   0.00000  Uiso   1.00
O500   O     0.91760   0.78451   0.36441   0.00000  Uiso   1.00
C501   C     0.89079   0.72989   0.36504   0.00000  Uiso   1.00
H502   H     0.84504   0.72193   0.35246   0.00000  Uiso   1.00
H503   H     0.88468   0.71260   0.40317   0.00000  Uiso   1.00
H504   H     0.92247   0.70941   0.33792   0.00000  Uiso   1.00
C505   C     0.18190   0.26671   0.75107   0.00000  Uiso   1.00
C506   C     0.14265   0.13111   0.98272   0.00000  Uiso   1.00
C507   C     0.16231   0.13615   0.92934   0.00000  Uiso   1.00
C508   C     0.18788   0.15186   0.51437   0.00000  Uiso   1.00
C509   C     0.25161   0.17044   0.99163   0.00000  Uiso   1.00
C510   C     0.27021   0.16614   0.93930   0.00000  Uiso   1.00
C511   C     0.22737   0.14196   0.90951   0.00000  Uiso   1.00
C512   C     0.17208   0.15684   0.56752   0.00000  Uiso   1.00
C513   C     0.28099   0.18860   0.57438   0.00000  Uiso   1.00
C514   C     0.11663   0.13344   0.89804   0.00000  Uiso   1.00
C515   C     0.19081   0.32263   0.75052   0.00000  Uiso   1.00
C516   C     0.13358   0.15510   0.84569   0.00000  Uiso   1.00
C517   C     0.14303   0.01065   0.74772   0.00000  Uiso   1.00
C518   C     0.15167   0.06661   0.74822   0.00000  Uiso   1.00
C519   C     0.19982   0.17059   0.65306   0.00000  Uiso   1.00
C520   C     0.29727   0.18923   0.52161   0.00000  Uiso   1.00
C521   C     0.21835   0.17222   0.59755   0.00000  Uiso   1.00
C522   C     0.05523   0.10778   0.91682   0.00000  Uiso   1.00
C523   C     0.03775   0.08939   0.96680   0.00000  Uiso   1.00
C524   C     0.08020   0.10252   0.50058   0.00000  Uiso   1.00
Cu525  Cu    0.10710   0.16105   0.74435   0.00000  Uiso   1.00
Cu526  Cu    0.22623   0.17228   0.75564   0.00000  Uiso   1.00
H527   H     0.31716   0.20143   0.59698   0.00000  Uiso   1.00
H528   H     0.09684   0.32026   0.74543   0.00000  Uiso   1.00
H529   H     0.00393   0.20616   0.78965   0.00000  Uiso   1.00
H530   H     0.32936   0.12709   0.71043   0.00000  Uiso   1.00
H531   H     0.31906   0.17750   0.92193   0.00000  Uiso   1.00
H532   H     0.01269   0.20243   0.50417   0.00000  Uiso   1.00
H533   H     0.02108   0.10068   0.89217   0.00000  Uiso   1.00
H534   H     0.23709   0.01302   0.75242   0.00000  Uiso   1.00
N535   N     0.31574   0.18074   0.76416   0.00000  Uiso   1.00
N536   N     0.01759   0.15259   0.73584   0.00000  Uiso   1.00
O537   O     0.12797   0.23807   0.74633   0.00000  Uiso   1.00
O538   O     0.22858   0.24755   0.75586   0.00000  Uiso   1.00
O539   O     0.09181   0.15960   0.81839   0.00000  Uiso   1.00
O540   O     0.19242   0.16908   0.82793   0.00000  Uiso   1.00
O541   O     0.10476   0.08578   0.74413   0.00000  Uiso   1.00
O542   O     0.20536   0.09526   0.75367   0.00000  Uiso   1.00
O543   O     0.14092   0.16425   0.67207   0.00000  Uiso   1.00
O544   O     0.24152   0.17373   0.68160   0.00000  Uiso   1.00
H545   H     0.12391   0.14952   0.58631   0.00000  Uiso   1.00
O546   O     0.06000   0.08401   0.54964   0.00000  Uiso   1.00
C547   C     0.08352   0.03871   0.55350   0.00000  Uiso   1.00
H548   H     0.13549   0.04753   0.54629   0.00000  Uiso   1.00
H549   H     0.06601   0.00653   0.52718   0.00000  Uiso   1.00
H550   H     0.06695   0.02410   0.59291   0.00000  Uiso   1.00
O551   O     0.31044   0.06270   0.98484   0.00000  Uiso   1.00
C552   C     0.30007   0.01215   0.96126   0.00000  Uiso   1.00
H553   H     0.33244   0.32188   0.96969   0.00000  Uiso   1.00
H554   H     0.30442   0.01420   0.91932   0.00000  Uiso   1.00
H555   H     0.25172   0.32420   0.97671   0.00000  Uiso   1.00
O556   O     0.25093   0.11784   0.86441   0.00000  Uiso   1.00
C557   C     0.22412   0.06322   0.86504   0.00000  Uiso   1.00
H558   H     0.17838   0.05527   0.85246   0.00000  Uiso   1.00
H559   H     0.21801   0.04594   0.90317   0.00000  Uiso   1.00
H560   H     0.25580   0.04274   0.83792   0.00000  Uiso   1.00
C561   C     0.51523   0.26671   0.75107   0.00000  Uiso   1.00
C562   C     0.47599   0.13111   0.98272   0.00000  Uiso   1.00
C563   C     0.49564   0.13615   0.92934   0.00000  Uiso   1.00
C564   C     0.52122   0.15186   0.51437   0.00000  Uiso   1.00
C565   C     0.58494   0.17044   0.99163   0.00000  Uiso   1.00
C566   C     0.60354   0.16614   0.93930   0.00000  Uiso   1.00
C567   C     0.56070   0.14196   0.90951   0.00000  Uiso   1.00
C568   C     0.50542   0.15684   0.56752   0.00000  Uiso   1.00
C569   C     0.61432   0.18860   0.57438   0.00000  Uiso   1.00
C570   C     0.44996   0.13344   0.89804   0.00000  Uiso   1.00
C571   C     0.52415   0.32263   0.75052   0.00000  Uiso   1.00
C572   C     0.46692   0.15510   0.84569   0.00000  Uiso   1.00
C573   C     0.47636   0.01065   0.74772   0.00000  Uiso   1.00
C574   C     0.48500   0.06661   0.74822   0.00000  Uiso   1.00
C575   C     0.53316   0.17059   0.65306   0.00000  Uiso   1.00
C576   C     0.63060   0.18923   0.52161   0.00000  Uiso   1.00
C577   C     0.55169   0.17222   0.59755   0.00000  Uiso   1.00
C578   C     0.38856   0.10778   0.91682   0.00000  Uiso   1.00
C579   C     0.37108   0.08939   0.96680   0.00000  Uiso   1.00
C580   C     0.41353   0.10252   0.50058   0.00000  Uiso   1.00
Cu581  Cu    0.44043   0.16105   0.74435   0.00000  Uiso   1.00
Cu582  Cu    0.55957   0.17228   0.75564   0.00000  Uiso   1.00
H583   H     0.65049   0.20143   0.59698   0.00000  Uiso   1.00
H584   H     0.43017   0.32026   0.74543   0.00000  Uiso   1.00
H585   H     0.33726   0.20616   0.78965   0.00000  Uiso   1.00
H586   H     0.66269   0.12709   0.71043   0.00000  Uiso   1.00
H587   H     0.65239   0.17750   0.92193   0.00000  Uiso   1.00
H588   H     0.34602   0.20243   0.50417   0.00000  Uiso   1.00
H589   H     0.35441   0.10068   0.89217   0.00000  Uiso   1.00
H590   H     0.57043   0.01302   0.75242   0.00000  Uiso   1.00
N591   N     0.64908   0.18074   0.76416   0.00000  Uiso   1.00
N592   N     0.35092   0.15259   0.73584   0.00000  Uiso   1.00
O593   O     0.46131   0.23807   0.74633   0.00000  Uiso   1.00
O594   O     0.56191   0.24755   0.75586   0.00000  Uiso   1.00
O595   O     0.42515   0.15960   0.81839   0.00000  Uiso   1.00
O596   O     0.52575   0.16908   0.82793   0.00000  Uiso   1.00
O597   O     0.43809   0.08578   0.74413   0.00000  Uiso   1.00
O598   O     0.53869   0.09526   0.75367   0.00000  Uiso   1.00
O599   O     0.47425   0.16425   0.67207   0.00000  Uiso   1.00
O600   O     0.57485   0.17373   0.68160   0.00000  Uiso   1.00
H601   H     0.45724   0.14952   0.58631   0.00000  Uiso   1.00
O602   O     0.39333   0.08401   0.54964   0.00000  Uiso   1.00
C603   C     0.41685   0.03871   0.55350   0.00000  Uiso   1.00
H604   H     0.46883   0.04753   0.54629   0.00000  Uiso   1.00
H605   H     0.39934   0.00653   0.52718   0.00000  Uiso   1.00
H606   H     0.40029   0.02410   0.59291   0.00000  Uiso   1.00
O607   O     0.64377   0.06270   0.98484   0.00000  Uiso   1.00
C608   C     0.63340   0.01215   0.96126   0.00000  Uiso   1.00
H609   H     0.66578   0.32188   0.96969   0.00000  Uiso   1.00
H610   H     0.63775   0.01420   0.91932   0.00000  Uiso   1.00
H611   H     0.58505   0.32420   0.97671   0.00000  Uiso   1.00
O612   O     0.58427   0.11784   0.86441   0.00000  Uiso   1.00
C613   C     0.55745   0.06322   0.86504   0.00000  Uiso   1.00
H614   H     0.51171   0.05527   0.85246   0.00000  Uiso   1.00
H615   H     0.55134   0.04594   0.90317   0.00000  Uiso   1.00
H616   H     0.58913   0.04274   0.83792   0.00000  Uiso   1.00
C617   C     0.84856   0.26671   0.75107   0.00000  Uiso   1.00
C618   C     0.80932   0.13111   0.98272   0.00000  Uiso   1.00
C619   C     0.82897   0.13615   0.92934   0.00000  Uiso   1.00
C620   C     0.85455   0.15186   0.51437   0.00000  Uiso   1.00
C621   C     0.91828   0.17044   0.99163   0.00000  Uiso   1.00
C622   C     0.93687   0.16614   0.93930   0.00000  Uiso   1.00
C623   C     0.89404   0.14196   0.90951   0.00000  Uiso   1.00
C624   C     0.83875   0.15684   0.56752   0.00000  Uiso   1.00
C625   C     0.94765   0.18860   0.57438   0.00000  Uiso   1.00
C626   C     0.78330   0.13344   0.89804   0.00000  Uiso   1.00
C627   C     0.85748   0.32263   0.75052   0.00000  Uiso   1.00
C628   C     0.80025   0.15510   0.84569   0.00000  Uiso   1.00
C629   C     0.80969   0.01065   0.74772   0.00000  Uiso   1.00
C630   C     0.81833   0.06661   0.74822   0.00000  Uiso   1.00
C631   C     0.86649   0.17059   0.65306   0.00000  Uiso   1.00
C632   C     0.96394   0.18923   0.52161   0.00000  Uiso   1.00
C633   C     0.88502   0.17222   0.59755   0.00000  Uiso   1.00
C634   C     0.72190   0.10778   0.91682   0.00000  Uiso   1.00
C635   C     0.70442   0.08939   0.96680   0.00000  Uiso   1.00
C636   C     0.74686   0.10252   0.50058   0.00000  Uiso   1.00
Cu637  Cu    0.77377   0.16105   0.74435   0.00000  Uiso   1.00
Cu638  Cu    0.89290   0.17228   0.75564   0.00000  Uiso   1.00
H639   H     0.98382   0.20143   0.59698   0.00000  Uiso   1.00
H640   H     0.76350   0.32026   0.74543   0.00000  Uiso   1.00
H641   H     0.67059   0.20616   0.78965   0.00000  Uiso   1.00
H642   H     0.99603   0.12709   0.71043   0.00000  Uiso   1.00
H643   H     0.98573   0.17750   0.92193   0.00000  Uiso   1.00
H644   H     0.67935   0.20243   0.50417   0.00000  Uiso   1.00
H645   H     0.68775   0.10068   0.89217   0.00000  Uiso   1.00
H646   H     0.90376   0.01302   0.75242   0.00000  Uiso   1.00
N647   N     0.98241   0.18074   0.76416   0.00000  Uiso   1.00
N648   N     0.68426   0.15259   0.73584   0.00000  Uiso   1.00
O649   O     0.79464   0.23807   0.74633   0.00000  Uiso   1.00
O650   O     0.89524   0.24755   0.75586   0.00000  Uiso   1.00
O651   O     0.75848   0.15960   0.81839   0.00000  Uiso   1.00
O652   O     0.85908   0.16908   0.82793   0.00000  Uiso   1.00
O653   O     0.77142   0.08578   0.74413   0.00000  Uiso   1.00
O654   O     0.87203   0.09526   0.75367   0.00000  Uiso   1.00
O655   O     0.80758   0.16425   0.67207   0.00000  Uiso   1.00
O656   O     0.90819   0.17373   0.68160   0.00000  Uiso   1.00
H657   H     0.79058   0.14952   0.58631   0.00000  Uiso   1.00
O658   O     0.72667   0.08401   0.54964   0.00000  Uiso   1.00
C659   C     0.75018   0.03871   0.55350   0.00000  Uiso   1.00
H660   H     0.80216   0.04753   0.54629   0.00000  Uiso   1.00
H661   H     0.73268   0.00653   0.52718   0.00000  Uiso   1.00
H662   H     0.73362   0.02410   0.59291   0.00000  Uiso   1.00
O663   O     0.97710   0.06270   0.98484   0.00000  Uiso   1.00
C664   C     0.96674   0.01215   0.96126   0.00000  Uiso   1.00
H665   H     0.99911   0.32188   0.96969   0.00000  Uiso   1.00
H666   H     0.97108   0.01420   0.91932   0.00000  Uiso   1.00
H667   H     0.91839   0.32420   0.97671   0.00000  Uiso   1.00
O668   O     0.91760   0.11784   0.86441   0.00000  Uiso   1.00
C669   C     0.89079   0.06322   0.86504   0.00000  Uiso   1.00
H670   H     0.84504   0.05527   0.85246   0.00000  Uiso   1.00
H671   H     0.88468   0.04594   0.90317   0.00000  Uiso   1.00
H672   H     0.92247   0.04274   0.83792   0.00000  Uiso   1.00
C673   C     0.18190   0.60005   0.75107   0.00000  Uiso   1.00
C674   C     0.14265   0.46444   0.98272   0.00000  Uiso   1.00
C675   C     0.16231   0.46948   0.92934   0.00000  Uiso   1.00
C676   C     0.18788   0.48519   0.51437   0.00000  Uiso   1.00
C677   C     0.25161   0.50377   0.99163   0.00000  Uiso   1.00
C678   C     0.27021   0.49948   0.93930   0.00000  Uiso   1.00
C679   C     0.22737   0.47529   0.90951   0.00000  Uiso   1.00
C680   C     0.17208   0.49017   0.56752   0.00000  Uiso   1.00
C681   C     0.28099   0.52193   0.57438   0.00000  Uiso   1.00
C682   C     0.11663   0.46677   0.89804   0.00000  Uiso   1.00
C683   C     0.19081   0.65597   0.75052   0.00000  Uiso   1.00
C684   C     0.13358   0.48843   0.84569   0.00000  Uiso   1.00
C685   C     0.14303   0.34399   0.74772   0.00000  Uiso   1.00
C686   C     0.15167   0.39994   0.74822   0.00000  Uiso   1.00
C687   C     0.19982   0.50392   0.65306   0.00000  Uiso   1.00
C688   C     0.29727   0.52256   0.52161   0.00000  Uiso   1.00
C689   C     0.21835   0.50555   0.59755   0.00000  Uiso   1.00
C690   C     0.05523   0.44112   0.91682   0.00000  Uiso   1.00
C691   C     0.03775   0.42272   0.96680   0.00000  Uiso   1.00
C692   C     0.08020   0.43585   0.50058   0.00000  Uiso   1.00
Cu693  Cu    0.10710   0.49439   0.74435   0.00000  Uiso   1.00
Cu694  Cu    0.22623   0.50561   0.75564   0.00000  Uiso   1.00
H695   H     0.31716   0.53476   0.59698   0.00000  Uiso   1.00
H696   H     0.09684   0.65359   0.74543   0.00000  Uiso   1.00
H697   H     0.00393   0.53949   0.78965   0.00000  Uiso   1.00
H698   H     0.32936   0.46043   0.71043   0.00000  Uiso   1.00
H699   H     0.31906   0.51084   0.92193   0.00000  Uiso   1.00
H700   H     0.01269   0.53577   0.50417   0.00000  Uiso   1.00
H701   H     0.02108   0.43402   0.89217   0.00000  Uiso   1.00
H702   H     0.23709   0.34635   0.75242   0.00000  Uiso   1.00
N703   N     0.31574   0.51407   0.76416   0.00000  Uiso   1.00
N704   N     0.01759   0.48593   0.73584   0.00000  Uiso   1.00
O705   O     0.12797   0.57141   0.74633   0.00000  Uiso   1.00
O706   O     0.22858   0.58089   0.75586   0.00000  Uiso   1.00
O707   O     0.09181   0.49293   0.81839   0.00000  Uiso   1.00
O708   O     0.19242   0.50241   0.82793   0.00000  Uiso   1.00
O709   O     0.10476   0.41911   0.74413   0.00000  Uiso   1.00
O710   O     0.20536   0.42859   0.75367   0.00000  Uiso   1.00
O711   O     0.14092   0.49759   0.67207   0.00000  Uiso   1.00
O712   O     0.24152   0.50707   0.68160   0.00000  Uiso   1.00
H713   H     0.12391   0.48285   0.58631   0.00000  Uiso   1.00
O714   O     0.06000   0.41735   0.54964   0.00000  Uiso   1.00
C715   C     0.08352   0.37205   0.55350   0.00000  Uiso   1.00
H716   H     0.13549   0.38086   0.54629   0.00000  Uiso   1.00
H717   H     0.06601   0.33986   0.52718   0.00000  Uiso   1.00
H718   H     0.06695   0.35743   0.59291   0.00000  Uiso   1.00
O719   O     0.31044   0.39604   0.98484   0.00000  Uiso   1.00
C720   C     0.30007   0.34548   0.96126   0.00000  Uiso   1.00
H721   H     0.33244   0.65522   0.96969   0.00000  Uiso   1.00
H722   H     0.30442   0.34753   0.91932   0.00000  Uiso   1.00
H723   H     0.25172   0.65753   0.97671   0.00000  Uiso   1.00
O724   O     0.25093   0.45118   0.86441   0.00000  Uiso   1.00
C725   C     0.22412   0.39655   0.86504   0.00000  Uiso   1.00
H726   H     0.17838   0.38860   0.85246   0.00000  Uiso   1.00
H727   H     0.21801   0.37927   0.90317   0.00000  Uiso   1.00
H728   H     0.25580   0.37608   0.83792   0.00000  Uiso   1.00
C729   C     0.51523   0.60005   0.75107   0.00000  Uiso   1.00
C730   C     0.47599   0.46444   0.98272   0.00000  Uiso   1.00
C731   C     0.49564   0.46948   0.92934   0.00000  Uiso   1.00
C732   C     0.52122   0.48519   0.51437   0.00000  Uiso   1.00
C733   C     0.58494   0.50377   0.99163   0.00000  Uiso   1.00
C734   C     0.60354   0.49948   0.93930   0.00000  Uiso   1.00
C735   C     0.56070   0.47529   0.90951   0.00000  Uiso   1.00
C736   C     0.50542   0.49017   0.56752   0.00000  Uiso   1.00
C737   C     0.61432   0.52193   0.57438   0.00000  Uiso   1.00
C738   C     0.44996   0.46677   0.89804   0.00000  Uiso   1.00
C739   C     0.52415   0.65597   0.75052   0.00000  Uiso   1.00
C740   C     0.46692   0.48843   0.84569   0.00000  Uiso   1.00
C741   C     0.47636   0.34399   0.74772   0.00000  Uiso   1.00
C742   C     0.48500   0.39994   0.74822   0.00000  Uiso   1.00
C743   C     0.53316   0.50392   0.65306   0.00000  Uiso   1.00
C744   C     0.63060   0.52256   0.52161   0.00000  Uiso   1.00
C745   C     0.55169   0.50555   0.59755   0.00000  Uiso   1.00
C746   C     0.38856   0.44112   0.91682   0.00000  Uiso   1.00
C747   C     0.37108   0.42272   0.96680   0.00000  Uiso   1.00
C748   C     0.41353   0.43585   0.50058   0.00000  Uiso   1.00
Cu749  Cu    0.44043   0.49439   0.74435   0.00000  Uiso   1.00
Cu750  Cu    0.55957   0.50561   0.75564   0.00000  Uiso   1.00
H751   H     0.65049   0.53476   0.59698   0.00000  Uiso   1.00
H752   H     0.43017   0.65359   0.74543   0.00000  Uiso   1.00
H753   H     0.33726   0.53949   0.78965   0.00000  Uiso   1.00
H754   H     0.66269   0.46043   0.71043   0.00000  Uiso   1.00
H755   H     0.65239   0.51084   0.92193   0.00000  Uiso   1.00
H756   H     0.34602   0.53577   0.50417   0.00000  Uiso   1.00
H757   H     0.35441   0.43402   0.89217   0.00000  Uiso   1.00
H758   H     0.57043   0.34635   0.75242   0.00000  Uiso   1.00
N759   N     0.64908   0.51407   0.76416   0.00000  Uiso   1.00
N760   N     0.35092   0.48593   0.73584   0.00000  Uiso   1.00
O761   O     0.46131   0.57141   0.74633   0.00000  Uiso   1.00
O762   O     0.56191   0.58089   0.75586   0.00000  Uiso   1.00
O763   O     0.42515   0.49293   0.81839   0.00000  Uiso   1.00
O764   O     0.52575   0.50241   0.82793   0.00000  Uiso   1.00
O765   O     0.43809   0.41911   0.74413   0.00000  Uiso   1.00
O766   O     0.53869   0.42859   0.75367   0.00000  Uiso   1.00
O767   O     0.47425   0.49759   0.67207   0.00000  Uiso   1.00
O768   O     0.57485   0.50707   0.68160   0.00000  Uiso   1.00
H769   H     0.45724   0.48285   0.58631   0.00000  Uiso   1.00
O770   O     0.39333   0.41735   0.54964   0.00000  Uiso   1.00
C771   C     0.41685   0.37205   0.55350   0.00000  Uiso   1.00
H772   H     0.46883   0.38086   0.54629   0.00000  Uiso   1.00
H773   H     0.39934   0.33986   0.52718   0.00000  Uiso   1.00
H774   H     0.40029   0.35743   0.59291   0.00000  Uiso   1.00
O775   O     0.64377   0.39604   0.98484   0.00000  Uiso   1.00
C776   C     0.63340   0.34548   0.96126   0.00000  Uiso   1.00
H777   H     0.66578   0.65522   0.96969   0.00000  Uiso   1.00
H778   H     0.63775   0.34753   0.91932   0.00000  Uiso   1.00
H779   H     0.58505   0.65753   0.97671   0.00000  Uiso   1.00
O780   O     0.58427   0.45118   0.86441   0.00000  Uiso   1.00
C781   C     0.55745   0.39655   0.86504   0.00000  Uiso   1.00
H782   H     0.51171   0.38860   0.85246   0.00000  Uiso   1.00
H783   H     0.55134   0.37927   0.90317   0.00000  Uiso   1.00
H784   H     0.58913   0.37608   0.83792   0.00000  Uiso   1.00
C785   C     0.84856   0.60005   0.75107   0.00000  Uiso   1.00
C786   C     0.80932   0.46444   0.98272   0.00000  Uiso   1.00
C787   C     0.82897   0.46948   0.92934   0.00000  Uiso   1.00
C788   C     0.85455   0.48519   0.51437   0.00000  Uiso   1.00
C789   C     0.91828   0.50377   0.99163   0.00000  Uiso   1.00
C790   C     0.93687   0.49948   0.93930   0.00000  Uiso   1.00
C791   C     0.89404   0.47529   0.90951   0.00000  Uiso   1.00
C792   C     0.83875   0.49017   0.56752   0.00000  Uiso   1.00
C793   C     0.94765   0.52193   0.57438   0.00000  Uiso   1.00
C794   C     0.78330   0.46677   0.89804   0.00000  Uiso   1.00
C795   C     0.85748   0.65597   0.75052   0.00000  Uiso   1.00
C796   C     0.80025   0.48843   0.84569   0.00000  Uiso   1.00
C797   C     0.80969   0.34399   0.74772   0.00000  Uiso   1.00
C798   C     0.81833   0.39994   0.74822   0.00000  Uiso   1.00
C799   C     0.86649   0.50392   0.65306   0.00000  Uiso   1.00
C800   C     0.96394   0.52256   0.52161   0.00000  Uiso   1.00
C801   C     0.88502   0.50555   0.59755   0.00000  Uiso   1.00
C802   C     0.72190   0.44112   0.91682   0.00000  Uiso   1.00
C803   C     0.70442   0.42272   0.96680   0.00000  Uiso   1.00
C804   C     0.74686   0.43585   0.50058   0.00000  Uiso   1.00
Cu805  Cu    0.77377   0.49439   0.74435   0.00000  Uiso   1.00
Cu806  Cu    0.89290   0.50561   0.75564   0.00000  Uiso   1.00
H807   H     0.98382   0.53476   0.59698   0.00000  Uiso   1.00
H808   H     0.76350   0.65359   0.74543   0.00000  Uiso   1.00
H809   H     0.67059   0.53949   0.78965   0.00000  Uiso   1.00
H810   H     0.99603   0.46043   0.71043   0.00000  Uiso   1.00
H811   H     0.98573   0.51084   0.92193   0.00000  Uiso   1.00
H812   H     0.67935   0.53577   0.50417   0.00000  Uiso   1.00
H813   H     0.68775   0.43402   0.89217   0.00000  Uiso   1.00
H814   H     0.90376   0.34635   0.75242   0.00000  Uiso   1.00
N815   N     0.98241   0.51407   0.76416   0.00000  Uiso   1.00
N816   N     0.68426   0.48593   0.73584   0.00000  Uiso   1.00
O817   O     0.79464   0.57141   0.74633   0.00000  Uiso   1.00
O818   O     0.89524   0.58089   0.75586   0.00000  Uiso   1.00
O819   O     0.75848   0.49293   0.81839   0.00000  Uiso   1.00
O820   O     0.85908   0.50241   0.82793   0.00000  Uiso   1.00
O821   O     0.77142   0.41911   0.74413   0.00000  Uiso   1.00
O822   O     0.87203   0.42859   0.75367   0.00000  Uiso   1.00
O823   O     0.80758   0.49759   0.67207   0.00000  Uiso   1.00
O824   O     0.90819   0.50707   0.68160   0.00000  Uiso   1.00
H825   H     0.79058   0.48285   0.58631   0.00000  Uiso   1.00
O826   O     0.72667   0.41735   0.54964   0.00000  Uiso   1.00
C827   C     0.75018   0.37205   0.55350   0.00000  Uiso   1.00
H828   H     0.80216   0.38086   0.54629   0.00000  Uiso   1.00
H829   H     0.73268   0.33986   0.52718   0.00000  Uiso   1.00
H830   H     0.73362   0.35743   0.59291   0.00000  Uiso   1.00
O831   O     0.97710   0.39604   0.98484   0.00000  Uiso   1.00
C832   C     0.96674   0.34548   0.96126   0.00000  Uiso   1.00
H833   H     0.99911   0.65522   0.96969   0.00000  Uiso   1.00
H834   H     0.97108   0.34753   0.91932   0.00000  Uiso   1.00
H835   H     0.91839   0.65753   0.97671   0.00000  Uiso   1.00
O836   O     0.91760   0.45118   0.86441   0.00000  Uiso   1.00
C837   C     0.89079   0.39655   0.86504   0.00000  Uiso   1.00
H838   H     0.84504   0.38860   0.85246   0.00000  Uiso   1.00
H839   H     0.88468   0.37927   0.90317   0.00000  Uiso   1.00
H840   H     0.92247   0.37608   0.83792   0.00000  Uiso   1.00
C841   C     0.18190   0.93338   0.75107   0.00000  Uiso   1.00
C842   C     0.14265   0.79778   0.98272   0.00000  Uiso   1.00
C843   C     0.16231   0.80282   0.92934   0.00000  Uiso   1.00
C844   C     0.18788   0.81852   0.51437   0.00000  Uiso   1.00
C845   C     0.25161   0.83710   0.99163   0.00000  Uiso   1.00
C846   C     0.27021   0.83281   0.93930   0.00000  Uiso   1.00
C847   C     0.22737   0.80863   0.90951   0.00000  Uiso   1.00
C848   C     0.17208   0.82350   0.56752   0.00000  Uiso   1.00
C849   C     0.28099   0.85527   0.57438   0.00000  Uiso   1.00
C850   C     0.11663   0.80011   0.89804   0.00000  Uiso   1.00
C851   C     0.19081   0.98930   0.75052   0.00000  Uiso   1.00
C852   C     0.13358   0.82176   0.84569   0.00000  Uiso   1.00
C853   C     0.14303   0.67732   0.74772   0.00000  Uiso   1.00
C854   C     0.15167   0.73327   0.74822   0.00000  Uiso   1.00
C855   C     0.19982   0.83725   0.65306   0.00000  Uiso   1.00
C856   C     0.29727   0.85589   0.52161   0.00000  Uiso   1.00
C857   C     0.21835   0.83888   0.59755   0.00000  Uiso   1.00
C858   C     0.05523   0.77445   0.91682   0.00000  Uiso   1.00
C859   C     0.03775   0.75606   0.96680   0.00000  Uiso   1.00
C860   C     0.08020   0.76918   0.50058   0.00000  Uiso   1.00
Cu861  Cu    0.10710   0.82772   0.74435   0.00000  Uiso   1.00
Cu862  Cu    0.22623   0.83895   0.75564   0.00000  Uiso   1.00
H863   H     0.31716   0.86809   0.59698   0.00000  Uiso   1.00
H864   H     0.09684   0.98693   0.74543   0.00000  Uiso   1.00
H865   H     0.00393   0.87282   0.78965   0.00000  Uiso   1.00
H866   H     0.32936   0.79376   0.71043   0.00000  Uiso   1.00
H867   H     0.31906   0.84417   0.92193   0.00000  Uiso   1.00
H868   H     0.01269   0.86910   0.50417   0.00000  Uiso   1.00
H869   H     0.02108   0.76735   0.89217   0.00000  Uiso   1.00
H870   H     0.23709   0.67968   0.75242   0.00000  Uiso   1.00
N871   N     0.31574   0.84741   0.76416   0.00000  Uiso   1.00
N872   N     0.01759   0.81926   0.73584   0.00000  Uiso   1.00
O873   O     0.12797   0.90474   0.74633   0.00000  Uiso   1.00
O874   O     0.22858   0.91422   0.75586   0.00000  Uiso   1.00
O875   O     0.09181   0.82627   0.81839   0.00000  Uiso   1.00
O876   O     0.19242   0.83575   0.82793   0.00000  Uiso   1.00
O877   O     0.10476   0.75245   0.74413   0.00000  Uiso   1.00
O878   O     0.20536   0.76193   0.75367   0.00000  Uiso   1.00
O879   O     0.14092   0.83092   0.67207   0.00000  Uiso   1.00
O880   O     0.24152   0.84040   0.68160   0.00000  Uiso   1.00
H881   H     0.12391   0.81619   0.58631   0.00000  Uiso   1.00
O882   O     0.06000   0.75068   0.54964   0.00000  Uiso   1.00
C883   C     0.08352   0.70538   0.55350   0.00000  Uiso   1.00
H884   H     0.13549   0.71420   0.54629   0.00000  Uiso   1.00
H885   H     0.06601   0.67320   0.52718   0.00000  Uiso   1.00
H886   H     0.06695   0.69077   0.59291   0.00000  Uiso   1.00
O887   O     0.31044   0.72937   0.98484   0.00000  Uiso   1.00
C888   C     0.30007   0.67881   0.96126   0.00000  Uiso   1.00
H889   H     0.33244   0.98855   0.96969   0.00000  Uiso   1.00
H890   H     0.30442   0.68087   0.91932   0.00000  Uiso   1.00
H891   H     0.25172   0.99086   0.97671   0.00000  Uiso   1.00
O892   O     0.25093   0.78451   0.86441   0.00000  Uiso   1.00
C893   C     0.22412   0.72989   0.86504   0.00000  Uiso   1.00
H894   H     0.17838   0.72193   0.85246   0.00000  Uiso   1.00
H895   H     0.21801   0.71260   0.90317   0.00000  Uiso   1.00
H896   H     0.25580   0.70941   0.83792   0.00000  Uiso   1.00
C897   C     0.51523   0.93338   0.75107   0.00000  Uiso   1.00
C898   C     0.47599   0.79778   0.98272   0.00000  Uiso   1.00
C899   C     0.49564   0.80282   0.92934   0.00000  Uiso   1.00
C900   C     0.52122   0.81852   0.51437   0.00000  Uiso   1.00
C901   C     0.58494   0.83710   0.99163   0.00000  Uiso   1.00
C902   C     0.60354   0.83281   0.93930   0.00000  Uiso   1.00
C903   C     0.56070   0.80863   0.90951   0.00000  Uiso   1.00
C904   C     0.50542   0.82350   0.56752   0.00000  Uiso   1.00
C905   C     0.61432   0.85527   0.57438   0.00000  Uiso   1.00
C906   C     0.44996   0.80011   0.89804   0.00000  Uiso   1.00
C907   C     0.52415   0.98930   0.75052   0.00000  Uiso   1.00
C908   C     0.46692   0.82176   0.84569   0.00000  Uiso   1.00
C909   C     0.47636   0.67732   0.74772   0.00000  Uiso   1.00
C910   C     0.48500   0.73327   0.74822   0.00000  Uiso   1.00
C911   C     0.53316   0.83725   0.65306   0.00000  Uiso   1.00
C912   C     0.63060   0.85589   0.52161   0.00000  Uiso   1.00
C913   C     0.55169   0.83888   0.59755   0.00000  Uiso   1.00
C914   C     0.38856   0.77445   0.91682   0.00000  Uiso   1.00
C915   C     0.37108   0.75606   0.96680   0.00000  Uiso   1.00
C916   C     0.41353   0.76918   0.50058   0.00000  Uiso   1.00
Cu917  Cu    0.44043   0.82772   0.74435   0.00000  Uiso   1.00
Cu918  Cu    0.55957   0.83895   0.75564   0.00000  Uiso   1.00
H919   H     0.65049   0.86809   0.59698   0.00000  Uiso   1.00
H920   H     0.43017   0.98693   0.74543   0.00000  Uiso   1.00
H921   H     0.33726   0.87282   0.78965   0.00000  Uiso   1.00
H922   H     0.66269   0.79376   0.71043   0.00000  Uiso   1.00
H923   H     0.65239   0.84417   0.92193   0.00000  Uiso   1.00
H924   H     0.34602   0.86910   0.50417   0.00000  Uiso   1.00
H925   H     0.35441   0.76735   0.89217   0.00000  Uiso   1.00
H926   H     0.57043   0.67968   0.75242   0.00000  Uiso   1.00
N927   N     0.64908   0.84741   0.76416   0.00000  Uiso   1.00
N928   N     0.35092   0.81926   0.73584   0.00000  Uiso   1.00
O929   O     0.46131   0.90474   0.74633   0.00000  Uiso   1.00
O930   O     0.56191   0.91422   0.75586   0.00000  Uiso   1.00
O931   O     0.42515   0.82627   0.81839   0.00000  Uiso   1.00
O932   O     0.52575   0.83575   0.82793   0.00000  Uiso   1.00
O933   O     0.43809   0.75245   0.74413   0.00000  Uiso   1.00
O934   O     0.53869   0.76193   0.75367   0.00000  Uiso   1.00
O935   O     0.47425   0.83092   0.67207   0.00000  Uiso   1.00
O936   O     0.57485   0.84040   0.68160   0.00000  Uiso   1.00
H937   H     0.45724   0.81619   0.58631   0.00000  Uiso   1.00
O938   O     0.39333   0.75068   0.54964   0.00000  Uiso   1.00
C939   C     0.41685   0.70538   0.55350   0.00000  Uiso   1.00
H940   H     0.46883   0.71420   0.54629   0.00000  Uiso   1.00
H941   H     0.39934   0.67320   0.52718   0.00000  Uiso   1.00
H942   H     0.40029   0.69077   0.59291   0.00000  Uiso   1.00
O943   O     0.64377   0.72937   0.98484   0.00000  Uiso   1.00
C944   C     0.63340   0.67881   0.96126   0.00000  Uiso   1.00
H945   H     0.66578   0.98855   0.96969   0.00000  Uiso   1.00
H946   H     0.63775   0.68087   0.91932   0.00000  Uiso   1.00
H947   H     0.58505   0.99086   0.97671   0.00000  Uiso   1.00
O948   O     0.58427   0.78451   0.86441   0.00000  Uiso   1.00
C949   C     0.55745   0.72989   0.86504   0.00000  Uiso   1.00
H950   H     0.51171   0.72193   0.85246   0.00000  Uiso   1.00
H951   H     0.55134   0.71260   0.90317   0.00000  Uiso   1.00
H952   H     0.58913   0.70941   0.83792   0.00000  Uiso   1.00
C953   C     0.84856   0.93338   0.75107   0.00000  Uiso   1.00
C954   C     0.80932   0.79778   0.98272   0.00000  Uiso   1.00
C955   C     0.82897   0.80282   0.92934   0.00000  Uiso   1.00
C956   C     0.85455   0.81852   0.51437   0.00000  Uiso   1.00
C957   C     0.91828   0.83710   0.99163   0.00000  Uiso   1.00
C958   C     0.93687   0.83281   0.93930   0.00000  Uiso   1.00
C959   C     0.89404   0.80863   0.90951   0.00000  Uiso   1.00
C960   C     0.83875   0.82350   0.56752   0.00000  Uiso   1.00
C961   C     0.94765   0.85527   0.57438   0.00000  Uiso   1.00
C962   C     0.78330   0.80011   0.89804   0.00000  Uiso   1.00
C963   C     0.85748   0.98930   0.75052   0.00000  Uiso   1.00
C964   C     0.80025   0.82176   0.84569   0.00000  Uiso   1.00
C965   C     0.80969   0.67732   0.74772   0.00000  Uiso   1.00
C966   C     0.81833   0.73327   0.74822   0.00000  Uiso   1.00
C967   C     0.86649   0.83725   0.65306   0.00000  Uiso   1.00
C968   C     0.96394   0.85589   0.52161   0.00000  Uiso   1.00
C969   C     0.88502   0.83888   0.59755   0.00000  Uiso   1.00
C970   C     0.72190   0.77445   0.91682   0.00000  Uiso   1.00
C971   C     0.70442   0.75606   0.96680   0.00000  Uiso   1.00
C972   C     0.74686   0.76918   0.50058   0.00000  Uiso   1.00
Cu973  Cu    0.77377   0.82772   0.74435   0.00000  Uiso   1.00
Cu974  Cu    0.89290   0.83895   0.75564   0.00000  Uiso   1.00
H975   H     0.98382   0.86809   0.59698   0.00000  Uiso   1.00
H976   H     0.76350   0.98693   0.74543   0.00000  Uiso   1.00
H977   H     0.67059   0.87282   0.78965   0.00000  Uiso   1.00
H978   H     0.99603   0.79376   0.71043   0.00000  Uiso   1.00
H979   H     0.98573   0.84417   0.92193   0.00000  Uiso   1.00
H980   H     0.67935   0.86910   0.50417   0.00000  Uiso   1.00
H981   H     0.68775   0.76735   0.89217   0.00000  Uiso   1.00
H982   H     0.90376   0.67968   0.75242   0.00000  Uiso   1.00
N983   N     0.98241   0.84741   0.76416   0.00000  Uiso   1.00
N984   N     0.68426   0.81926   0.73584   0.00000  Uiso   1.00
O985   O     0.79464   0.90474   0.74633   0.00000  Uiso   1.00
O986   O     0.89524   0.91422   0.75586   0.00000  Uiso   1.00
O987   O     0.75848   0.82627   0.81839   0.00000  Uiso   1.00
O988   O     0.85908   0.83575   0.82793   0.00000  Uiso   1.00
O989   O     0.77142   0.75245   0.74413   0.00000  Uiso   1.00
O990   O     0.87203   0.76193   0.75367   0.00000  Uiso   1.00
O991   O     0.80758   0.83092   0.67207   0.00000  Uiso   1.00
O992   O     0.90819   0.84040   0.68160   0.00000  Uiso   1.00
H993   H     0.79058   0.81619   0.58631   0.00000  Uiso   1.00
O994   O     0.72667   0.75068   0.54964   0.00000  Uiso   1.00
C995   C     0.75018   0.70538   0.55350   0.00000  Uiso   1.00
H996   H     0.80216   0.71420   0.54629   0.00000  Uiso   1.00
H997   H     0.73268   0.67320   0.52718   0.00000  Uiso   1.00
H998   H     0.73362   0.69077   0.59291   0.00000  Uiso   1.00
O999   O     0.97710   0.72937   0.98484   0.00000  Uiso   1.00
C1000  C     0.96674   0.67881   0.96126   0.00000  Uiso   1.00
H1001  H     0.99911   0.98855   0.96969   0.00000  Uiso   1.00
H1002  H     0.97108   0.68087   0.91932   0.00000  Uiso   1.00
H1003  H     0.91839   0.99086   0.97671   0.00000  Uiso   1.00
O1004  O     0.91760   0.78451   0.86441   0.00000  Uiso   1.00
C1005  C     0.89079   0.72989   0.86504   0.00000  Uiso   1.00
H1006  H     0.84504   0.72193   0.85246   0.00000  Uiso   1.00
H1007  H     0.88468   0.71260   0.90317   0.00000  Uiso   1.00
H1008  H     0.92247   0.70941   0.83792   0.00000  Uiso   1.00
loop_
_geom_bond_atom_site_label_1
_geom_bond_atom_site_label_2
_geom_bond_distance
_geom_bond_site_symmetry_2
_ccdc_geom_bond_type
C1     O34     1.284   .     A
C1     O33     1.291   .     A
C1     C11     1.425   .     S
C2     C3      1.415   .     A
C2     C508    1.435   .     S
C2     C524    1.431   .     S
C3     C10     1.429   .     A
C3     C7      1.424   .     A
C4     C8      1.401   .     A
C4     C506    1.435   1_554 S
C4     C509    1.422   1_554 S
C5     C6      1.384   .     A
C5     C508    1.422   .     S
C5     C520    1.403   .     S
C6     C7      1.382   .     A
C6     H27     1.081   .     S
C7     O52     1.388   .     S
C8     C17     1.404   .     A
C8     H41     1.075   .     S
C9     C17     1.397   .     A
C9     C16     1.387   .     A
C9     H23     1.083   .     S
C10    C12     1.491   .     S
C10    C18     1.394   .     A
C11    C181    1.326   .     S
C11    H198    1.087   .     S
C12    O36     1.284   .     A
C12    O35     1.321   .     A
C13    C14     1.425   .     S
C13    C347    1.326   1_545 S
C13    H360    1.088   1_545 S
C14    O37     1.284   .     A
C14    O38     1.292   .     A
C15    O39     1.292   .     A
C15    O40     1.302   .     A
C15    C17     1.462   .     S
C16    C509    1.403   1_554 S
C16    H84     1.084   .     S
C18    C19     1.402   .     A
C18    H29     1.081   .     S
C19    C524    1.408   .     S
C19    O159    1.384   1_455 S
C20    O42     1.383   .     S
C20    C523    1.408   1_554 S
C20    C506    1.431   1_554 S
Cu21   O35     1.944   .     S
Cu21   O39     1.933   .     S
Cu21   N32     2.018   .     S
Cu21   O33     1.954   .     S
Cu21   O37     1.948   .     S
Cu21   Cu22    2.686   .     S
Cu22   O36     1.933   .     S
Cu22   O40     1.944   .     S
Cu22   O34     1.948   .     S
Cu22   O38     1.954   .     S
Cu22   N31     2.018   .     S
H24    C181    1.088   .     S
H25    N143    1.029   1_455 S
H26    N88     1.029   .     S
H28    C128    1.084   1_455 S
H30    C347    1.087   1_545 S
N31    H81     1.029   .     S
N31    N88     1.296   .     S
N32    N143    1.296   1_455 S
N32    H138    1.029   1_455 S
O42    C43     1.412   .     S
C43    H44     1.112   .     S
C43    H45     1.110   .     S
C43    H46     1.109   .     S
O47    C48     1.412   .     S
O47    C75     1.384   .     S
C48    H50     1.111   .     S
C48    H385    1.111   1_545 S
C48    H387    1.109   1_545 S
H49    C216    1.111   .     S
H51    C216    1.109   .     S
O52    C53     1.413   .     S
C53    H55     1.114   .     S
C53    H54     1.110   .     S
C53    H56     1.108   .     S
C57    O90     1.284   .     A
C57    O89     1.291   .     A
C57    C67     1.425   .     S
C58    C59     1.415   .     A
C58    C564    1.435   .     S
C58    C580    1.431   .     S
C59    C66     1.429   .     A
C59    C63     1.424   .     A
C60    C64     1.401   .     A
C60    C562    1.435   1_554 S
C60    C565    1.422   1_554 S
C61    C62     1.384   .     A
C61    C564    1.422   .     S
C61    C576    1.403   .     S
C62    C63     1.382   .     A
C62    H83     1.081   .     S
C63    O108    1.388   .     S
C64    C73     1.404   .     A
C64    H97     1.075   .     S
C65    C73     1.397   .     A
C65    C72     1.387   .     A
C65    H79     1.083   .     S
C66    C68     1.491   .     S
C66    C74     1.394   .     A
C67    C237    1.326   .     S
C67    H254    1.087   .     S
C68    O92     1.284   .     A
C68    O91     1.321   .     A
C69    C70     1.425   .     S
C69    C403    1.326   1_545 S
C69    H416    1.088   1_545 S
C70    O93     1.284   .     A
C70    O94     1.292   .     A
C71    O95     1.292   .     A
C71    O96     1.302   .     A
C71    C73     1.462   .     S
C72    C565    1.403   1_554 S
C72    H140    1.084   .     S
C74    C75     1.402   .     A
C74    H85     1.081   .     S
C75    C580    1.408   .     S
C76    O98     1.383   .     S
C76    C579    1.408   1_554 S
C76    C562    1.431   1_554 S
Cu77   O91     1.944   .     S
Cu77   O95     1.933   .     S
Cu77   N88     2.018   .     S
Cu77   O89     1.954   .     S
Cu77   O93     1.948   .     S
Cu77   Cu78    2.686   .     S
Cu78   O92     1.933   .     S
Cu78   O96     1.944   .     S
Cu78   O90     1.948   .     S
Cu78   O94     1.954   .     S
Cu78   N87     2.018   .     S
H80    C237    1.088   .     S
H82    N144    1.029   .     S
H86    C403    1.087   1_545 S
N87    H137    1.029   .     S
N87    N144    1.296   .     S
O98    C99     1.412   .     S
C99    H100    1.112   .     S
C99    H101    1.110   .     S
C99    H102    1.109   .     S
O103   C104    1.412   .     S
O103   C131    1.384   .     S
C104   H106    1.111   .     S
C104   H441    1.111   1_545 S
C104   H443    1.109   1_545 S
H105   C272    1.111   .     S
H107   C272    1.109   .     S
O108   C109    1.413   .     S
C109   H111    1.114   .     S
C109   H110    1.110   .     S
C109   H112    1.108   .     S
C113   O146    1.284   .     A
C113   O145    1.291   .     A
C113   C123    1.425   .     S
C114   C115    1.415   .     A
C114   C620    1.435   .     S
C114   C636    1.431   .     S
C115   C122    1.429   .     A
C115   C119    1.424   .     A
C116   C120    1.401   .     A
C116   C618    1.435   1_554 S
C116   C621    1.422   1_554 S
C117   C118    1.384   .     A
C117   C620    1.422   .     S
C117   C632    1.403   .     S
C118   C119    1.382   .     A
C118   H139    1.081   .     S
C119   O164    1.388   .     S
C120   C129    1.404   .     A
C120   H153    1.075   .     S
C121   C129    1.397   .     A
C121   C128    1.387   .     A
C121   H135    1.083   .     S
C122   C124    1.491   .     S
C122   C130    1.394   .     A
C123   C293    1.326   .     S
C123   H310    1.087   .     S
C124   O148    1.284   .     A
C124   O147    1.321   .     A
C125   C126    1.425   .     S
C125   C459    1.326   1_545 S
C125   H472    1.088   1_545 S
C126   O149    1.284   .     A
C126   O150    1.292   .     A
C127   O151    1.292   .     A
C127   O152    1.302   .     A
C127   C129    1.462   .     S
C128   C621    1.403   1_554 S
C128   H28     1.084   1_655 S
C130   C131    1.402   .     A
C130   H141    1.081   .     S
C131   C636    1.408   .     S
C132   O154    1.383   .     S
C132   C635    1.408   1_554 S
C132   C618    1.431   1_554 S
Cu133  O147    1.944   .     S
Cu133  O151    1.933   .     S
Cu133  N144    2.018   .     S
Cu133  O145    1.954   .     S
Cu133  O149    1.948   .     S
Cu133  Cu134   2.686   .     S
Cu134  O148    1.933   .     S
Cu134  O152    1.944   .     S
Cu134  O146    1.948   .     S
Cu134  O150    1.954   .     S
Cu134  N143    2.018   .     S
H136   C293    1.088   .     S
H138   N32     1.029   1_655 S
H142   C459    1.087   1_545 S
N143   H25     1.029   1_655 S
N143   N32     1.296   1_655 S
O154   C155    1.412   .     S
C155   H156    1.112   .     S
C155   H157    1.110   .     S
C155   H158    1.109   .     S
O159   C160    1.412   .     S
O159   C19     1.384   1_655 S
C160   H162    1.111   .     S
C160   H497    1.111   1_545 S
C160   H499    1.109   1_545 S
H161   C328    1.111   .     S
H163   C328    1.109   .     S
O164   C165    1.413   .     S
C165   H167    1.114   .     S
C165   H166    1.110   .     S
C165   H168    1.108   .     S
C169   O202    1.284   .     A
C169   O201    1.291   .     A
C169   C179    1.425   .     S
C170   C171    1.415   .     A
C170   C676    1.435   .     S
C170   C692    1.431   .     S
C171   C178    1.429   .     A
C171   C175    1.424   .     A
C172   C176    1.401   .     A
C172   C674    1.435   1_554 S
C172   C677    1.422   1_554 S
C173   C174    1.384   .     A
C173   C676    1.422   .     S
C173   C688    1.403   .     S
C174   C175    1.382   .     A
C174   H195    1.081   .     S
C175   O220    1.388   .     S
C176   C185    1.404   .     A
C176   H209    1.075   .     S
C177   C185    1.397   .     A
C177   C184    1.387   .     A
C177   H191    1.083   .     S
C178   C180    1.491   .     S
C178   C186    1.394   .     A
C179   C349    1.326   .     S
C179   H366    1.087   .     S
C180   O204    1.284   .     A
C180   O203    1.321   .     A
C181   C182    1.425   .     S
C182   O205    1.284   .     A
C182   O206    1.292   .     A
C183   O207    1.292   .     A
C183   O208    1.302   .     A
C183   C185    1.462   .     S
C184   C677    1.403   1_554 S
C184   H252    1.084   .     S
C186   C187    1.402   .     A
C186   H197    1.081   .     S
C187   C692    1.408   .     S
C187   O327    1.384   1_455 S
C188   O210    1.383   .     S
C188   C691    1.408   1_554 S
C188   C674    1.431   1_554 S
Cu189  O203    1.944   .     S
Cu189  O207    1.933   .     S
Cu189  N200    2.018   .     S
Cu189  O201    1.954   .     S
Cu189  O205    1.948   .     S
Cu189  Cu190   2.686   .     S
Cu190  O204    1.933   .     S
Cu190  O208    1.944   .     S
Cu190  O202    1.948   .     S
Cu190  O206    1.954   .     S
Cu190  N199    2.018   .     S
H192   C349    1.088   .     S
H193   N311    1.029   1_455 S
H194   N256    1.029   .     S
H196   C296    1.084   1_455 S
N199   H249    1.029   .     S
N199   N256    1.296   .     S
N200   N311    1.296   1_455 S
N200   H306    1.029   1_455 S
O210   C211    1.412   .     S
C211   H212    1.112   .     S
C211   H213    1.110   .     S
C211   H214    1.109   .     S
O215   C216    1.412   .     S
O215   C243    1.384   .     S
C216   H218    1.111   .     S
H217   C384    1.111   .     S
H219   C384    1.109   .     S
O220   C221    1.413   .     S
C221   H223    1.114   .     S
C221   H222    1.110   .     S
C221   H224    1.108   .     S
C225   O258    1.284   .     A
C225   O257    1.291   .     A
C225   C235    1.425   .     S
C226   C227    1.415   .     A
C226   C732    1.435   .     S
C226   C748    1.431   .     S
C227   C234    1.429   .     A
C227   C231    1.424   .     A
C228   C232    1.401   .     A
C228   C730    1.435   1_554 S
C228   C733    1.422   1_554 S
C229   C230    1.384   .     A
C229   C732    1.422   .     S
C229   C744    1.403   .     S
C230   C231    1.382   .     A
C230   H251    1.081   .     S
C231   O276    1.388   .     S
C232   C241    1.404   .     A
C232   H265    1.075   .     S
C233   C241    1.397   .     A
C233   C240    1.387   .     A
C233   H247    1.083   .     S
C234   C236    1.491   .     S
C234   C242    1.394   .     A
C235   C405    1.326   .     S
C235   H422    1.087   .     S
C236   O260    1.284   .     A
C236   O259    1.321   .     A
C237   C238    1.425   .     S
C238   O261    1.284   .     A
C238   O262    1.292   .     A
C239   O263    1.292   .     A
C239   O264    1.302   .     A
C239   C241    1.462   .     S
C240   C733    1.403   1_554 S
C240   H308    1.084   .     S
C242   C243    1.402   .     A
C242   H253    1.081   .     S
C243   C748    1.408   .     S
C244   O266    1.383   .     S
C244   C747    1.408   1_554 S
C244   C730    1.431   1_554 S
Cu245  O259    1.944   .     S
Cu245  O263    1.933   .     S
Cu245  N256    2.018   .     S
Cu245  O257    1.954   .     S
Cu245  O261    1.948   .     S
Cu245  Cu246   2.686   .     S
Cu246  O260    1.933   .     S
Cu246  O264    1.944   .     S
Cu246  O258    1.948   .     S
Cu246  O262    1.954   .     S
Cu246  N255    2.018   .     S
H248   C405    1.088   .     S
H250   N312    1.029   .     S
N255   H305    1.029   .     S
N255   N312    1.296   .     S
O266   C267    1.412   .     S
C267   H268    1.112   .     S
C267   H269    1.110   .     S
C267   H270    1.109   .     S
O271   C272    1.412   .     S
O271   C299    1.384   .     S
C272   H274    1.111   .     S
H273   C440    1.111   .     S
H275   C440    1.109   .     S
O276   C277    1.413   .     S
C277   H279    1.114   .     S
C277   H278    1.110   .     S
C277   H280    1.108   .     S
C281   O314    1.284   .     A
C281   O313    1.291   .     A
C281   C291    1.425   .     S
C282   C283    1.415   .     A
C282   C788    1.435   .     S
C282   C804    1.431   .     S
C283   C290    1.429   .     A
C283   C287    1.424   .     A
C284   C288    1.401   .     A
C284   C786    1.435   1_554 S
C284   C789    1.422   1_554 S
C285   C286    1.384   .     A
C285   C788    1.422   .     S
C285   C800    1.403   .     S
C286   C287    1.382   .     A
C286   H307    1.081   .     S
C287   O332    1.388   .     S
C288   C297    1.404   .     A
C288   H321    1.075   .     S
C289   C297    1.397   .     A
C289   C296    1.387   .     A
C289   H303    1.083   .     S
C290   C292    1.491   .     S
C290   C298    1.394   .     A
C291   C461    1.326   .     S
C291   H478    1.087   .     S
C292   O316    1.284   .     A
C292   O315    1.321   .     A
C293   C294    1.425   .     S
C294   O317    1.284   .     A
C294   O318    1.292   .     A
C295   O319    1.292   .     A
C295   O320    1.302   .     A
C295   C297    1.462   .     S
C296   C789    1.403   1_554 S
C296   H196    1.084   1_655 S
C298   C299    1.402   .     A
C298   H309    1.081   .     S
C299   C804    1.408   .     S
C300   O322    1.383   .     S
C300   C803    1.408   1_554 S
C300   C786    1.431   1_554 S
Cu301  O315    1.944   .     S
Cu301  O319    1.933   .     S
Cu301  N312    2.018   .     S
Cu301  O313    1.954   .     S
Cu301  O317    1.948   .     S
Cu301  Cu302   2.686   .     S
Cu302  O316    1.933   .     S
Cu302  O320    1.944   .     S
Cu302  O314    1.948   .     S
Cu302  O318    1.954   .     S
Cu302  N311    2.018   .     S
H304   C461    1.088   .     S
H306   N200    1.029   1_655 S
N311   H193    1.029   1_655 S
N311   N200    1.296   1_655 S
O322   C323    1.412   .     S
C323   H324    1.112   .     S
C323   H325    1.110   .     S
C323   H326    1.109   .     S
O327   C328    1.412   .     S
O327   C187    1.384   1_655 S
C328   H330    1.111   .     S
H329   C496    1.111   .     S
H331   C496    1.109   .     S
O332   C333    1.413   .     S
C333   H335    1.114   .     S
C333   H334    1.110   .     S
C333   H336    1.108   .     S
C337   O370    1.284   .     A
C337   O369    1.291   .     A
C337   C347    1.425   .     S
C338   C339    1.415   .     A
C338   C844    1.435   .     S
C338   C860    1.431   .     S
C339   C346    1.429   .     A
C339   C343    1.424   .     A
C340   C344    1.401   .     A
C340   C842    1.435   1_554 S
C340   C845    1.422   1_554 S
C341   C342    1.384   .     A
C341   C844    1.422   .     S
C341   C856    1.403   .     S
C342   C343    1.382   .     A
C342   H363    1.081   .     S
C343   O388    1.388   .     S
C344   C353    1.404   .     A
C344   H377    1.075   .     S
C345   C353    1.397   .     A
C345   C352    1.387   .     A
C345   H359    1.083   .     S
C346   C348    1.491   .     S
C346   C354    1.394   .     A
C347   C13     1.326   1_565 S
C347   H30     1.087   1_565 S
C348   O372    1.284   .     A
C348   O371    1.321   .     A
C349   C350    1.425   .     S
C350   O373    1.284   .     A
C350   O374    1.292   .     A
C351   O375    1.292   .     A
C351   O376    1.302   .     A
C351   C353    1.462   .     S
C352   C845    1.403   1_554 S
C352   H420    1.084   .     S
C354   C355    1.402   .     A
C354   H365    1.081   .     S
C355   C860    1.408   .     S
C355   O495    1.384   1_455 S
C356   O378    1.383   .     S
C356   C859    1.408   1_554 S
C356   C842    1.431   1_554 S
Cu357  O371    1.944   .     S
Cu357  O375    1.933   .     S
Cu357  N368    2.018   .     S
Cu357  O369    1.954   .     S
Cu357  O373    1.948   .     S
Cu357  Cu358   2.686   .     S
Cu358  O372    1.933   .     S
Cu358  O376    1.944   .     S
Cu358  O370    1.948   .     S
Cu358  O374    1.954   .     S
Cu358  N367    2.018   .     S
H360   C13     1.088   1_565 S
H361   N479    1.029   1_455 S
H362   N424    1.029   .     S
H364   C464    1.084   1_455 S
N367   H417    1.029   .     S
N367   N424    1.296   .     S
N368   N479    1.296   1_455 S
N368   H474    1.029   1_455 S
O378   C379    1.412   .     S
C379   H380    1.112   .     S
C379   H381    1.110   .     S
C379   H382    1.109   .     S
O383   C384    1.412   .     S
O383   C411    1.384   .     S
C384   H386    1.111   .     S
H385   C48     1.111   1_565 S
H387   C48     1.109   1_565 S
O388   C389    1.413   .     S
C389   H391    1.114   .     S
C389   H390    1.110   .     S
C389   H392    1.108   .     S
C393   O426    1.284   .     A
C393   O425    1.291   .     A
C393   C403    1.425   .     S
C394   C395    1.415   .     A
C394   C900    1.435   .     S
C394   C916    1.431   .     S
C395   C402    1.429   .     A
C395   C399    1.424   .     A
C396   C400    1.401   .     A
C396   C898    1.435   1_554 S
C396   C901    1.422   1_554 S
C397   C398    1.384   .     A
C397   C900    1.422   .     S
C397   C912    1.403   .     S
C398   C399    1.382   .     A
C398   H419    1.081   .     S
C399   O444    1.388   .     S
C400   C409    1.404   .     A
C400   H433    1.075   .     S
C401   C409    1.397   .     A
C401   C408    1.387   .     A
C401   H415    1.083   .     S
C402   C404    1.491   .     S
C402   C410    1.394   .     A
C403   C69     1.326   1_565 S
C403   H86     1.087   1_565 S
C404   O428    1.284   .     A
C404   O427    1.321   .     A
C405   C406    1.425   .     S
C406   O429    1.284   .     A
C406   O430    1.292   .     A
C407   O431    1.292   .     A
C407   O432    1.302   .     A
C407   C409    1.462   .     S
C408   C901    1.403   1_554 S
C408   H476    1.084   .     S
C410   C411    1.402   .     A
C410   H421    1.081   .     S
C411   C916    1.408   .     S
C412   O434    1.383   .     S
C412   C915    1.408   1_554 S
C412   C898    1.431   1_554 S
Cu413  O427    1.944   .     S
Cu413  O431    1.933   .     S
Cu413  N424    2.018   .     S
Cu413  O425    1.954   .     S
Cu413  O429    1.948   .     S
Cu413  Cu414   2.686   .     S
Cu414  O428    1.933   .     S
Cu414  O432    1.944   .     S
Cu414  O426    1.948   .     S
Cu414  O430    1.954   .     S
Cu414  N423    2.018   .     S
H416   C69     1.088   1_565 S
H418   N480    1.029   .     S
N423   H473    1.029   .     S
N423   N480    1.296   .     S
O434   C435    1.412   .     S
C435   H436    1.112   .     S
C435   H437    1.110   .     S
C435   H438    1.109   .     S
O439   C440    1.412   .     S
O439   C467    1.384   .     S
C440   H442    1.111   .     S
H441   C104    1.111   1_565 S
H443   C104    1.109   1_565 S
O444   C445    1.413   .     S
C445   H447    1.114   .     S
C445   H446    1.110   .     S
C445   H448    1.108   .     S
C449   O482    1.284   .     A
C449   O481    1.291   .     A
C449   C459    1.425   .     S
C450   C451    1.415   .     A
C450   C956    1.435   .     S
C450   C972    1.431   .     S
C451   C458    1.429   .     A
C451   C455    1.424   .     A
C452   C456    1.401   .     A
C452   C954    1.435   1_554 S
C452   C957    1.422   1_554 S
C453   C454    1.384   .     A
C453   C956    1.422   .     S
C453   C968    1.403   .     S
C454   C455    1.382   .     A
C454   H475    1.081   .     S
C455   O500    1.388   .     S
C456   C465    1.404   .     A
C456   H489    1.075   .     S
C457   C465    1.397   .     A
C457   C464    1.387   .     A
C457   H471    1.083   .     S
C458   C460    1.491   .     S
C458   C466    1.394   .     A
C459   C125    1.326   1_565 S
C459   H142    1.087   1_565 S
C460   O484    1.284   .     A
C460   O483    1.321   .     A
C461   C462    1.425   .     S
C462   O485    1.284   .     A
C462   O486    1.292   .     A
C463   O487    1.292   .     A
C463   O488    1.302   .     A
C463   C465    1.462   .     S
C464   C957    1.403   1_554 S
C464   H364    1.084   1_655 S
C466   C467    1.402   .     A
C466   H477    1.081   .     S
C467   C972    1.408   .     S
C468   O490    1.383   .     S
C468   C971    1.408   1_554 S
C468   C954    1.431   1_554 S
Cu469  O483    1.944   .     S
Cu469  O487    1.933   .     S
Cu469  N480    2.018   .     S
Cu469  O481    1.954   .     S
Cu469  O485    1.948   .     S
Cu469  Cu470   2.686   .     S
Cu470  O484    1.933   .     S
Cu470  O488    1.944   .     S
Cu470  O482    1.948   .     S
Cu470  O486    1.954   .     S
Cu470  N479    2.018   .     S
H472   C125    1.088   1_565 S
H474   N368    1.029   1_655 S
N479   H361    1.029   1_655 S
N479   N368    1.296   1_655 S
O490   C491    1.412   .     S
C491   H492    1.112   .     S
C491   H493    1.110   .     S
C491   H494    1.109   .     S
O495   C496    1.412   .     S
O495   C355    1.384   1_655 S
C496   H498    1.111   .     S
H497   C160    1.111   1_565 S
H499   C160    1.109   1_565 S
O500   C501    1.413   .     S
C501   H503    1.114   .     S
C501   H502    1.110   .     S
C501   H504    1.108   .     S
C505   O538    1.284   .     A
C505   O537    1.291   .     A
C505   C515    1.425   .     S
C506   C507    1.415   .     A
C506   C4      1.435   1_556 S
C506   C20     1.431   1_556 S
C507   C514    1.429   .     A
C507   C511    1.424   .     A
C508   C512    1.401   .     A
C509   C510    1.384   .     A
C509   C4      1.422   1_556 S
C509   C16     1.403   1_556 S
C510   C511    1.382   .     A
C510   H531    1.081   .     S
C511   O556    1.388   .     S
C512   C521    1.404   .     A
C512   H545    1.075   .     S
C513   C521    1.397   .     A
C513   C520    1.387   .     A
C513   H527    1.083   .     S
C514   C516    1.491   .     S
C514   C522    1.394   .     A
C515   C685    1.326   .     S
C515   H702    1.087   .     S
C516   O540    1.284   .     A
C516   O539    1.321   .     A
C517   C518    1.425   .     S
C517   C851    1.326   1_545 S
C517   H864    1.088   1_545 S
C518   O541    1.284   .     A
C518   O542    1.292   .     A
C519   O543    1.292   .     A
C519   O544    1.302   .     A
C519   C521    1.462   .     S
C520   H588    1.084   .     S
C522   C523    1.402   .     A
C522   H533    1.081   .     S
C523   C20     1.408   1_556 S
C523   O663    1.384   1_455 S
C524   O546    1.383   .     S
Cu525  O539    1.944   .     S
Cu525  O543    1.933   .     S
Cu525  N536    2.018   .     S
Cu525  O537    1.954   .     S
Cu525  O541    1.948   .     S
Cu525  Cu526   2.686   .     S
Cu526  O540    1.933   .     S
Cu526  O544    1.944   .     S
Cu526  O538    1.948   .     S
Cu526  O542    1.954   .     S
Cu526  N535    2.018   .     S
H528   C685    1.088   .     S
H529   N647    1.029   1_455 S
H530   N592    1.029   .     S
H532   C632    1.084   1_455 S
H534   C851    1.087   1_545 S
N535   H585    1.029   .     S
N535   N592    1.296   .     S
N536   N647    1.296   1_455 S
N536   H642    1.029   1_455 S
O546   C547    1.412   .     S
C547   H548    1.112   .     S
C547   H549    1.110   .     S
C547   H550    1.109   .     S
O551   C552    1.412   .     S
O551   C579    1.384   .     S
C552   H554    1.111   .     S
C552   H889    1.111   1_545 S
C552   H891    1.109   1_545 S
H553   C720    1.111   .     S
H555   C720    1.109   .     S
O556   C557    1.413   .     S
C557   H559    1.114   .     S
C557   H558    1.110   .     S
C557   H560    1.108   .     S
C561   O594    1.284   .     A
C561   O593    1.291   .     A
C561   C571    1.425   .     S
C562   C563    1.415   .     A
C562   C60     1.435   1_556 S
C562   C76     1.431   1_556 S
C563   C570    1.429   .     A
C563   C567    1.424   .     A
C564   C568    1.401   .     A
C565   C566    1.384   .     A
C565   C60     1.422   1_556 S
C565   C72     1.403   1_556 S
C566   C567    1.382   .     A
C566   H587    1.081   .     S
C567   O612    1.388   .     S
C568   C577    1.404   .     A
C568   H601    1.075   .     S
C569   C577    1.397   .     A
C569   C576    1.387   .     A
C569   H583    1.083   .     S
C570   C572    1.491   .     S
C570   C578    1.394   .     A
C571   C741    1.326   .     S
C571   H758    1.087   .     S
C572   O596    1.284   .     A
C572   O595    1.321   .     A
C573   C574    1.425   .     S
C573   C907    1.326   1_545 S
C573   H920    1.088   1_545 S
C574   O597    1.284   .     A
C574   O598    1.292   .     A
C575   O599    1.292   .     A
C575   O600    1.302   .     A
C575   C577    1.462   .     S
C576   H644    1.084   .     S
C578   C579    1.402   .     A
C578   H589    1.081   .     S
C579   C76     1.408   1_556 S
C580   O602    1.383   .     S
Cu581  O595    1.944   .     S
Cu581  O599    1.933   .     S
Cu581  N592    2.018   .     S
Cu581  O593    1.954   .     S
Cu581  O597    1.948   .     S
Cu581  Cu582   2.686   .     S
Cu582  O596    1.933   .     S
Cu582  O600    1.944   .     S
Cu582  O594    1.948   .     S
Cu582  O598    1.954   .     S
Cu582  N591    2.018   .     S
H584   C741    1.088   .     S
H586   N648    1.029   .     S
H590   C907    1.087   1_545 S
N591   H641    1.029   .     S
N591   N648    1.296   .     S
O602   C603    1.412   .     S
C603   H604    1.112   .     S
C603   H605    1.110   .     S
C603   H606    1.109   .     S
O607   C608    1.412   .     S
O607   C635    1.384   .     S
C608   H610    1.111   .     S
C608   H945    1.111   1_545 S
C608   H947    1.109   1_545 S
H609   C776    1.111   .     S
H611   C776    1.109   .     S
O612   C613    1.413   .     S
C613   H615    1.114   .     S
C613   H614    1.110   .     S
C613   H616    1.108   .     S
C617   O650    1.284   .     A
C617   O649    1.291   .     A
C617   C627    1.425   .     S
C618   C619    1.415   .     A
C618   C116    1.435   1_556 S
C618   C132    1.431   1_556 S
C619   C626    1.429   .     A
C619   C623    1.424   .     A
C620   C624    1.401   .     A
C621   C622    1.384   .     A
C621   C116    1.422   1_556 S
C621   C128    1.403   1_556 S
C622   C623    1.382   .     A
C622   H643    1.081   .     S
C623   O668    1.388   .     S
C624   C633    1.404   .     A
C624   H657    1.075   .     S
C625   C633    1.397   .     A
C625   C632    1.387   .     A
C625   H639    1.083   .     S
C626   C628    1.491   .     S
C626   C634    1.394   .     A
C627   C797    1.326   .     S
C627   H814    1.087   .     S
C628   O652    1.284   .     A
C628   O651    1.321   .     A
C629   C630    1.425   .     S
C629   C963    1.326   1_545 S
C629   H976    1.088   1_545 S
C630   O653    1.284   .     A
C630   O654    1.292   .     A
C631   O655    1.292   .     A
C631   O656    1.302   .     A
C631   C633    1.462   .     S
C632   H532    1.084   1_655 S
C634   C635    1.402   .     A
C634   H645    1.081   .     S
C635   C132    1.408   1_556 S
C636   O658    1.383   .     S
Cu637  O651    1.944   .     S
Cu637  O655    1.933   .     S
Cu637  N648    2.018   .     S
Cu637  O649    1.954   .     S
Cu637  O653    1.948   .     S
Cu637  Cu638   2.686   .     S
Cu638  O652    1.933   .     S
Cu638  O656    1.944   .     S
Cu638  O650    1.948   .     S
Cu638  O654    1.954   .     S
Cu638  N647    2.018   .     S
H640   C797    1.088   .     S
H642   N536    1.029   1_655 S
H646   C963    1.087   1_545 S
N647   H529    1.029   1_655 S
N647   N536    1.296   1_655 S
O658   C659    1.412   .     S
C659   H660    1.112   .     S
C659   H661    1.110   .     S
C659   H662    1.109   .     S
O663   C664    1.412   .     S
O663   C523    1.384   1_655 S
C664   H666    1.111   .     S
C664   H1001   1.111   1_545 S
C664   H1003   1.109   1_545 S
H665   C832    1.111   .     S
H667   C832    1.109   .     S
O668   C669    1.413   .     S
C669   H671    1.114   .     S
C669   H670    1.110   .     S
C669   H672    1.108   .     S
C673   O706    1.284   .     A
C673   O705    1.291   .     A
C673   C683    1.425   .     S
C674   C675    1.415   .     A
C674   C172    1.435   1_556 S
C674   C188    1.431   1_556 S
C675   C682    1.429   .     A
C675   C679    1.424   .     A
C676   C680    1.401   .     A
C677   C678    1.384   .     A
C677   C172    1.422   1_556 S
C677   C184    1.403   1_556 S
C678   C679    1.382   .     A
C678   H699    1.081   .     S
C679   O724    1.388   .     S
C680   C689    1.404   .     A
C680   H713    1.075   .     S
C681   C689    1.397   .     A
C681   C688    1.387   .     A
C681   H695    1.083   .     S
C682   C684    1.491   .     S
C682   C690    1.394   .     A
C683   C853    1.326   .     S
C683   H870    1.087   .     S
C684   O708    1.284   .     A
C684   O707    1.321   .     A
C685   C686    1.425   .     S
C686   O709    1.284   .     A
C686   O710    1.292   .     A
C687   O711    1.292   .     A
C687   O712    1.302   .     A
C687   C689    1.462   .     S
C688   H756    1.084   .     S
C690   C691    1.402   .     A
C690   H701    1.081   .     S
C691   C188    1.408   1_556 S
C691   O831    1.384   1_455 S
C692   O714    1.383   .     S
Cu693  O707    1.944   .     S
Cu693  O711    1.933   .     S
Cu693  N704    2.018   .     S
Cu693  O705    1.954   .     S
Cu693  O709    1.948   .     S
Cu693  Cu694   2.686   .     S
Cu694  O708    1.933   .     S
Cu694  O712    1.944   .     S
Cu694  O706    1.948   .     S
Cu694  O710    1.954   .     S
Cu694  N703    2.018   .     S
H696   C853    1.088   .     S
H697   N815    1.029   1_455 S
H698   N760    1.029   .     S
H700   C800    1.084   1_455 S
N703   H753    1.029   .     S
N703   N760    1.296   .     S
N704   N815    1.296   1_455 S
N704   H810    1.029   1_455 S
O714   C715    1.412   .     S
C715   H716    1.112   .     S
C715   H717    1.110   .     S
C715   H718    1.109   .     S
O719   C720    1.412   .     S
O719   C747    1.384   .     S
C720   H722    1.111   .     S
H721   C888    1.111   .     S
H723   C888    1.109   .     S
O724   C725    1.413   .     S
C725   H727    1.114   .     S
C725   H726    1.110   .     S
C725   H728    1.108   .     S
C729   O762    1.284   .     A
C729   O761    1.291   .     A
C729   C739    1.425   .     S
C730   C731    1.415   .     A
C730   C228    1.435   1_556 S
C730   C244    1.431   1_556 S
C731   C738    1.429   .     A
C731   C735    1.424   .     A
C732   C736    1.401   .     A
C733   C734    1.384   .     A
C733   C228    1.422   1_556 S
C733   C240    1.403   1_556 S
C734   C735    1.382   .     A
C734   H755    1.081   .     S
C735   O780    1.388   .     S
C736   C745    1.404   .     A
C736   H769    1.075   .     S
C737   C745    1.397   .     A
C737   C744    1.387   .     A
C737   H751    1.083   .     S
C738   C740    1.491   .     S
C738   C746    1.394   .     A
C739   C909    1.326   .     S
C739   H926    1.087   .     S
C740   O764    1.284   .     A
C740   O763    1.321   .     A
C741   C742    1.425   .     S
C742   O765    1.284   .     A
C742   O766    1.292   .     A
C743   O767    1.292   .     A
C743   O768    1.302   .     A
C743   C745    1.462   .     S
C744   H812    1.084   .     S
C746   C747    1.402   .     A
C746   H757    1.081   .     S
C747   C244    1.408   1_556 S
C748   O770    1.383   .     S
Cu749  O763    1.944   .     S
Cu749  O767    1.933   .     S
Cu749  N760    2.018   .     S
Cu749  O761    1.954   .     S
Cu749  O765    1.948   .     S
Cu749  Cu750   2.686   .     S
Cu750  O764    1.933   .     S
Cu750  O768    1.944   .     S
Cu750  O762    1.948   .     S
Cu750  O766    1.954   .     S
Cu750  N759    2.018   .     S
H752   C909    1.088   .     S
H754   N816    1.029   .     S
N759   H809    1.029   .     S
N759   N816    1.296   .     S
O770   C771    1.412   .     S
C771   H772    1.112   .     S
C771   H773    1.110   .     S
C771   H774    1.109   .     S
O775   C776    1.412   .     S
O775   C803    1.384   .     S
C776   H778    1.111   .     S
H777   C944    1.111   .     S
H779   C944    1.109   .     S
O780   C781    1.413   .     S
C781   H783    1.114   .     S
C781   H782    1.110   .     S
C781   H784    1.108   .     S
C785   O818    1.284   .     A
C785   O817    1.291   .     A
C785   C795    1.425   .     S
C786   C787    1.415   .     A
C786   C284    1.435   1_556 S
C786   C300    1.431   1_556 S
C787   C794    1.429   .     A
C787   C791    1.424   .     A
C788   C792    1.401   .     A
C789   C790    1.384   .     A
C789   C284    1.422   1_556 S
C789   C296    1.403   1_556 S
C790   C791    1.382   .     A
C790   H811    1.081   .     S
C791   O836    1.388   .     S
C792   C801    1.404   .     A
C792   H825    1.075   .     S
C793   C801    1.397   .     A
C793   C800    1.387   .     A
C793   H807    1.083   .     S
C794   C796    1.491   .     S
C794   C802    1.394   .     A
C795   C965    1.326   .     S
C795   H982    1.087   .     S
C796   O820    1.284   .     A
C796   O819    1.321   .     A
C797   C798    1.425   .     S
C798   O821    1.284   .     A
C798   O822    1.292   .     A
C799   O823    1.292   .     A
C799   O824    1.302   .     A
C799   C801    1.462   .     S
C800   H700    1.084   1_655 S
C802   C803    1.402   .     A
C802   H813    1.081   .     S
C803   C300    1.408   1_556 S
C804   O826    1.383   .     S
Cu805  O819    1.944   .     S
Cu805  O823    1.933   .     S
Cu805  N816    2.018   .     S
Cu805  O817    1.954   .     S
Cu805  O821    1.948   .     S
Cu805  Cu806   2.686   .     S
Cu806  O820    1.933   .     S
Cu806  O824    1.944   .     S
Cu806  O818    1.948   .     S
Cu806  O822    1.954   .     S
Cu806  N815    2.018   .     S
H808   C965    1.088   .     S
H810   N704    1.029   1_655 S
N815   H697    1.029   1_655 S
N815   N704    1.296   1_655 S
O826   C827    1.412   .     S
C827   H828    1.112   .     S
C827   H829    1.110   .     S
C827   H830    1.109   .     S
O831   C832    1.412   .     S
O831   C691    1.384   1_655 S
C832   H834    1.111   .     S
H833   C1000   1.111   .     S
H835   C1000   1.109   .     S
O836   C837    1.413   .     S
C837   H839    1.114   .     S
C837   H838    1.110   .     S
C837   H840    1.108   .     S
C841   O874    1.284   .     A
C841   O873    1.291   .     A
C841   C851    1.425   .     S
C842   C843    1.415   .     A
C842   C340    1.435   1_556 S
C842   C356    1.431   1_556 S
C843   C850    1.429   .     A
C843   C847    1.424   .     A
C844   C848    1.401   .     A
C845   C846    1.384   .     A
C845   C340    1.422   1_556 S
C845   C352    1.403   1_556 S
C846   C847    1.382   .     A
C846   H867    1.081   .     S
C847   O892    1.388   .     S
C848   C857    1.404   .     A
C848   H881    1.075   .     S
C849   C857    1.397   .     A
C849   C856    1.387   .     A
C849   H863    1.083   .     S
C850   C852    1.491   .     S
C850   C858    1.394   .     A
C851   C517    1.326   1_565 S
C851   H534    1.087   1_565 S
C852   O876    1.284   .     A
C852   O875    1.321   .     A
C853   C854    1.425   .     S
C854   O877    1.284   .     A
C854   O878    1.292   .     A
C855   O879    1.292   .     A
C855   O880    1.302   .     A
C855   C857    1.462   .     S
C856   H924    1.084   .     S
C858   C859    1.402   .     A
C858   H869    1.081   .     S
C859   C356    1.408   1_556 S
C859   O999    1.384   1_455 S
C860   O882    1.383   .     S
Cu861  O875    1.944   .     S
Cu861  O879    1.933   .     S
Cu861  N872    2.018   .     S
Cu861  O873    1.954   .     S
Cu861  O877    1.948   .     S
Cu861  Cu862   2.686   .     S
Cu862  O876    1.933   .     S
Cu862  O880    1.944   .     S
Cu862  O874    1.948   .     S
Cu862  O878    1.954   .     S
Cu862  N871    2.018   .     S
H864   C517    1.088   1_565 S
H865   N983    1.029   1_455 S
H866   N928    1.029   .     S
H868   C968    1.084   1_455 S
N871   H921    1.029   .     S
N871   N928    1.296   .     S
N872   N983    1.296   1_455 S
N872   H978    1.029   1_455 S
O882   C883    1.412   .     S
C883   H884    1.112   .     S
C883   H885    1.110   .     S
C883   H886    1.109   .     S
O887   C888    1.412   .     S
O887   C915    1.384   .     S
C888   H890    1.111   .     S
H889   C552    1.111   1_565 S
H891   C552    1.109   1_565 S
O892   C893    1.413   .     S
C893   H895    1.114   .     S
C893   H894    1.110   .     S
C893   H896    1.108   .     S
C897   O930    1.284   .     A
C897   O929    1.291   .     A
C897   C907    1.425   .     S
C898   C899    1.415   .     A
C898   C396    1.435   1_556 S
C898   C412    1.431   1_556 S
C899   C906    1.429   .     A
C899   C903    1.424   .     A
C900   C904    1.401   .     A
C901   C902    1.384   .     A
C901   C396    1.422   1_556 S
C901   C408    1.403   1_556 S
C902   C903    1.382   .     A
C902   H923    1.081   .     S
C903   O948    1.388   .     S
C904   C913    1.404   .     A
C904   H937    1.075   .     S
C905   C913    1.397   .     A
C905   C912    1.387   .     A
C905   H919    1.083   .     S
C906   C908    1.491   .     S
C906   C914    1.394   .     A
C907   C573    1.326   1_565 S
C907   H590    1.087   1_565 S
C908   O932    1.284   .     A
C908   O931    1.321   .     A
C909   C910    1.425   .     S
C910   O933    1.284   .     A
C910   O934    1.292   .     A
C911   O935    1.292   .     A
C911   O936    1.302   .     A
C911   C913    1.462   .     S
C912   H980    1.084   .     S
C914   C915    1.402   .     A
C914   H925    1.081   .     S
C915   C412    1.408   1_556 S
C916   O938    1.383   .     S
Cu917  O931    1.944   .     S
Cu917  O935    1.933   .     S
Cu917  N928    2.018   .     S
Cu917  O929    1.954   .     S
Cu917  O933    1.948   .     S
Cu917  Cu918   2.686   .     S
Cu918  O932    1.933   .     S
Cu918  O936    1.944   .     S
Cu918  O930    1.948   .     S
Cu918  O934    1.954   .     S
Cu918  N927    2.018   .     S
H920   C573    1.088   1_565 S
H922   N984    1.029   .     S
N927   H977    1.029   .     S
N927   N984    1.296   .     S
O938   C939    1.412   .     S
C939   H940    1.112   .     S
C939   H941    1.110   .     S
C939   H942    1.109   .     S
O943   C944    1.412   .     S
O943   C971    1.384   .     S
C944   H946    1.111   .     S
H945   C608    1.111   1_565 S
H947   C608    1.109   1_565 S
O948   C949    1.413   .     S
C949   H951    1.114   .     S
C949   H950    1.110   .     S
C949   H952    1.108   .     S
C953   O986    1.284   .     A
C953   O985    1.291   .     A
C953   C963    1.425   .     S
C954   C955    1.415   .     A
C954   C452    1.435   1_556 S
C954   C468    1.431   1_556 S
C955   C962    1.429   .     A
C955   C959    1.424   .     A
C956   C960    1.401   .     A
C957   C958    1.384   .     A
C957   C452    1.422   1_556 S
C957   C464    1.403   1_556 S
C958   C959    1.382   .     A
C958   H979    1.081   .     S
C959   O1004   1.388   .     S
C960   C969    1.404   .     A
C960   H993    1.075   .     S
C961   C969    1.397   .     A
C961   C968    1.387   .     A
C961   H975    1.083   .     S
C962   C964    1.491   .     S
C962   C970    1.394   .     A
C963   C629    1.326   1_565 S
C963   H646    1.087   1_565 S
C964   O988    1.284   .     A
C964   O987    1.321   .     A
C965   C966    1.425   .     S
C966   O989    1.284   .     A
C966   O990    1.292   .     A
C967   O991    1.292   .     A
C967   O992    1.302   .     A
C967   C969    1.462   .     S
C968   H868    1.084   1_655 S
C970   C971    1.402   .     A
C970   H981    1.081   .     S
C971   C468    1.408   1_556 S
C972   O994    1.383   .     S
Cu973  O987    1.944   .     S
Cu973  O991    1.933   .     S
Cu973  N984    2.018   .     S
Cu973  O985    1.954   .     S
Cu973  O989    1.948   .     S
Cu973  Cu974   2.686   .     S
Cu974  O988    1.933   .     S
Cu974  O992    1.944   .     S
Cu974  O986    1.948   .     S
Cu974  O990    1.954   .     S
Cu974  N983    2.018   .     S
H976   C629    1.088   1_565 S
H978   N872    1.029   1_655 S
N983   H865    1.029   1_655 S
N983   N872    1.296   1_655 S
O994   C995    1.412   .     S
C995   H996    1.112   .     S
C995   H997    1.110   .     S
C995   H998    1.109   .     S
O999   C1000   1.412   .     S
O999   C859    1.384   1_655 S
C1000  H1002   1.111   .     S
H1001  C664    1.111   1_565 S
H1003  C664    1.109   1_565 S
O1004  C1005   1.413   .     S
C1005  H1007   1.114   .     S
C1005  H1006   1.110   .     S
C1005  H1008   1.108   .     S
