data_str_m2_o2_o10_pcu_sym.93
_audit_creation_date              2020-01-03
_audit_creation_method            'Materials Studio'
_symmetry_space_group_name_H-M    'P1'
_symmetry_Int_Tables_number       1
_symmetry_cell_setting            triclinic
loop_
_symmetry_equiv_pos_as_xyz
  x,y,z
_cell_length_a                    26.3079
_cell_length_b                    30.1542
_cell_length_c                    27.8323
_cell_angle_alpha                 89.3090
_cell_angle_beta                  97.0627
_cell_angle_gamma                 91.3806
loop_
_atom_site_label
_atom_site_type_symbol
_atom_site_fract_x
_atom_site_fract_y
_atom_site_fract_z
_atom_site_U_iso_or_equiv
_atom_site_adp_type
_atom_site_occupancy
C1     C     0.16895   0.16510   0.25052   0.00000  Uiso   1.00
C2     C     0.18409   0.28569   0.44807   0.00000  Uiso   1.00
C3     C     0.16918   0.24828   0.02756   0.00000  Uiso   1.00
C4     C     0.16833   0.24768   0.47293   0.00000  Uiso   1.00
C5     C     0.06813   0.24920   0.23814   0.00000  Uiso   1.00
C6     C     0.26516   0.24970   0.26209   0.00000  Uiso   1.00
C7     C     0.01377   0.24193   0.23318   0.00000  Uiso   1.00
C8     C     0.31967   0.25488   0.26838   0.00000  Uiso   1.00
C9     C     0.20695   0.04722   0.28550   0.00000  Uiso   1.00
C10    C     0.12602   0.45340   0.26509   0.00000  Uiso   1.00
C11    C     0.20786   0.09416   0.28547   0.00000  Uiso   1.00
C12    C     0.16589   0.33497   0.24966   0.00000  Uiso   1.00
C13    C     0.12312   0.40660   0.26362   0.00000  Uiso   1.00
C14    C     0.17278   0.11685   0.25130   0.00000  Uiso   1.00
C15    C     0.16481   0.38333   0.24907   0.00000  Uiso   1.00
C16    C     0.14066   0.09327   0.21630   0.00000  Uiso   1.00
C17    C     0.20693   0.40641   0.23425   0.00000  Uiso   1.00
C18    C     0.14111   0.04746   0.21571   0.00000  Uiso   1.00
C19    C     0.20886   0.45233   0.23434   0.00000  Uiso   1.00
C20    C     0.17294   0.02433   0.25069   0.00000  Uiso   1.00
C21    C     0.16921   0.47587   0.25043   0.00000  Uiso   1.00
C22    C     0.24866   0.11942   0.31858   0.00000  Uiso   1.00
C23    C     0.21293   0.26240   0.05917   0.00000  Uiso   1.00
C24    C     0.23384   0.12442   0.36958   0.00000  Uiso   1.00
C25    C     0.07494   0.38210   0.27495   0.00000  Uiso   1.00
C26    C     0.03414   0.38125   0.23094   0.00000  Uiso   1.00
C27    C     0.26532   0.27014   0.04147   0.00000  Uiso   1.00
C28    C     0.28558   0.22872   0.01985   0.00000  Uiso   1.00
C29    C     0.14142   0.16486   0.46786   0.00000  Uiso   1.00
C30    C     0.18906   0.14664   0.49789   0.00000  Uiso   1.00
C31    C     0.15116   0.21009   0.44467   0.00000  Uiso   1.00
C32    C     0.20750   0.26881   0.10888   0.00000  Uiso   1.00
C33    C     0.14407   0.21489   0.39330   0.00000  Uiso   1.00
C34    C     0.12586   0.23343   0.09952   0.00000  Uiso   1.00
C35    C     0.18642   0.28502   0.39784   0.00000  Uiso   1.00
C36    C     0.12505   0.23537   0.04888   0.00000  Uiso   1.00
Cu37   Cu    0.16667   0.24999   0.29821   0.00000  Uiso   1.00
Cu38   Cu    0.16667   0.25000   0.20178   0.00000  Uiso   1.00
H39    H     0.11442   0.11044   0.18970   0.00000  Uiso   1.00
H40    H     0.19639   0.14050   0.36829   0.00000  Uiso   1.00
H41    H     0.23121   0.09178   0.38793   0.00000  Uiso   1.00
H42    H     0.28589   0.10252   0.32050   0.00000  Uiso   1.00
H43    H     0.25631   0.15286   0.30361   0.00000  Uiso   1.00
H44    H     0.02344   0.41542   0.21915   0.00000  Uiso   1.00
H45    H     0.04855   0.36383   0.20054   0.00000  Uiso   1.00
H46    H     0.33272   0.36320   0.24034   0.00000  Uiso   1.00
H47    H     0.08295   0.34751   0.28598   0.00000  Uiso   1.00
H48    H     0.05959   0.39698   0.30628   0.00000  Uiso   1.00
H49    H     0.28450   0.20018   0.04531   0.00000  Uiso   1.00
H50    H     0.23886   0.38878   0.22328   0.00000  Uiso   1.00
H51    H     0.26350   0.22043   0.48454   0.00000  Uiso   1.00
H52    H     0.32598   0.23491   0.01341   0.00000  Uiso   1.00
H53    H     0.26477   0.29806   0.01532   0.00000  Uiso   1.00
H54    H     0.29495   0.27935   0.07161   0.00000  Uiso   1.00
H55    H     0.22196   0.14739   0.47644   0.00000  Uiso   1.00
H56    H     0.19902   0.16548   0.03176   0.00000  Uiso   1.00
H57    H     0.18147   0.11165   0.00828   0.00000  Uiso   1.00
H58    H     0.10936   0.16583   0.49001   0.00000  Uiso   1.00
H59    H     0.13012   0.13930   0.44024   0.00000  Uiso   1.00
H60    H     0.11545   0.02978   0.18865   0.00000  Uiso   1.00
H61    H     0.24183   0.46969   0.22270   0.00000  Uiso   1.00
H62    H     0.09253   0.22054   0.11465   0.00000  Uiso   1.00
H63    H     0.20191   0.31367   0.38045   0.00000  Uiso   1.00
H64    H     0.08990   0.22634   0.02649   0.00000  Uiso   1.00
H65    H     0.19514   0.31596   0.46744   0.00000  Uiso   1.00
H66    H     0.26319   0.14532   0.39144   0.00000  Uiso   1.00
I67    I     0.31870   0.19987   0.17351   0.00000  Uiso   1.00
I68    I     0.01436   0.28958   0.33403   0.00000  Uiso   1.00
I69    I     0.25567   0.01000   0.33794   0.00000  Uiso   1.00
I70    I     0.06683   0.49084   0.29123   0.00000  Uiso   1.00
I71    I     0.25465   0.32021   0.14517   0.00000  Uiso   1.00
I72    I     0.08553   0.17330   0.35457   0.00000  Uiso   1.00
N73    N     0.16667   0.25001   0.12935   0.00000  Uiso   1.00
N74    N     0.16667   0.24999   0.37065   0.00000  Uiso   1.00
O75    O     0.16667   0.18572   0.29071   0.00000  Uiso   1.00
O76    O     0.16666   0.31427   0.20928   0.00000  Uiso   1.00
O77    O     0.16667   0.18573   0.20928   0.00000  Uiso   1.00
O78    O     0.16666   0.31427   0.29072   0.00000  Uiso   1.00
O79    O     0.09161   0.25000   0.28132   0.00000  Uiso   1.00
O80    O     0.24172   0.25000   0.21868   0.00000  Uiso   1.00
O81    O     0.09161   0.25000   0.19988   0.00000  Uiso   1.00
O82    O     0.24172   0.25000   0.30011   0.00000  Uiso   1.00
C83    C     0.50228   0.16510   0.25052   0.00000  Uiso   1.00
C84    C     0.51743   0.28569   0.44807   0.00000  Uiso   1.00
C85    C     0.50251   0.24828   0.02756   0.00000  Uiso   1.00
C86    C     0.50166   0.24768   0.47293   0.00000  Uiso   1.00
C87    C     0.40146   0.24920   0.23814   0.00000  Uiso   1.00
C88    C     0.59849   0.24970   0.26209   0.00000  Uiso   1.00
C89    C     0.34710   0.24193   0.23318   0.00000  Uiso   1.00
C90    C     0.65300   0.25488   0.26838   0.00000  Uiso   1.00
C91    C     0.54028   0.04722   0.28550   0.00000  Uiso   1.00
C92    C     0.45936   0.45340   0.26509   0.00000  Uiso   1.00
C93    C     0.54119   0.09416   0.28547   0.00000  Uiso   1.00
C94    C     0.49922   0.33497   0.24966   0.00000  Uiso   1.00
C95    C     0.45645   0.40660   0.26362   0.00000  Uiso   1.00
C96    C     0.50611   0.11685   0.25130   0.00000  Uiso   1.00
C97    C     0.49814   0.38333   0.24907   0.00000  Uiso   1.00
C98    C     0.47400   0.09327   0.21630   0.00000  Uiso   1.00
C99    C     0.54027   0.40641   0.23425   0.00000  Uiso   1.00
C100   C     0.47444   0.04746   0.21571   0.00000  Uiso   1.00
C101   C     0.54219   0.45233   0.23434   0.00000  Uiso   1.00
C102   C     0.50627   0.02433   0.25069   0.00000  Uiso   1.00
C103   C     0.50254   0.47587   0.25043   0.00000  Uiso   1.00
C104   C     0.58199   0.11942   0.31858   0.00000  Uiso   1.00
C105   C     0.54627   0.26240   0.05917   0.00000  Uiso   1.00
C106   C     0.56717   0.12442   0.36958   0.00000  Uiso   1.00
C107   C     0.40828   0.38210   0.27495   0.00000  Uiso   1.00
C108   C     0.36748   0.38125   0.23094   0.00000  Uiso   1.00
C109   C     0.59865   0.27014   0.04147   0.00000  Uiso   1.00
C110   C     0.61891   0.22872   0.01985   0.00000  Uiso   1.00
C111   C     0.47476   0.16486   0.46786   0.00000  Uiso   1.00
C112   C     0.52239   0.14664   0.49789   0.00000  Uiso   1.00
C113   C     0.48450   0.21009   0.44467   0.00000  Uiso   1.00
C114   C     0.54084   0.26881   0.10888   0.00000  Uiso   1.00
C115   C     0.47740   0.21489   0.39330   0.00000  Uiso   1.00
C116   C     0.45919   0.23343   0.09952   0.00000  Uiso   1.00
C117   C     0.51975   0.28502   0.39784   0.00000  Uiso   1.00
C118   C     0.45839   0.23537   0.04888   0.00000  Uiso   1.00
Cu119  Cu    0.50000   0.24999   0.29821   0.00000  Uiso   1.00
Cu120  Cu    0.50000   0.25000   0.20178   0.00000  Uiso   1.00
H121   H     0.44775   0.11044   0.18970   0.00000  Uiso   1.00
H122   H     0.52972   0.14050   0.36829   0.00000  Uiso   1.00
H123   H     0.56454   0.09178   0.38793   0.00000  Uiso   1.00
H124   H     0.61923   0.10252   0.32050   0.00000  Uiso   1.00
H125   H     0.58964   0.15286   0.30361   0.00000  Uiso   1.00
H126   H     0.35677   0.41542   0.21915   0.00000  Uiso   1.00
H127   H     0.38188   0.36383   0.20054   0.00000  Uiso   1.00
H128   H     0.66606   0.36320   0.24034   0.00000  Uiso   1.00
H129   H     0.41629   0.34751   0.28598   0.00000  Uiso   1.00
H130   H     0.39292   0.39698   0.30628   0.00000  Uiso   1.00
H131   H     0.61783   0.20018   0.04531   0.00000  Uiso   1.00
H132   H     0.57220   0.38878   0.22328   0.00000  Uiso   1.00
H133   H     0.59683   0.22043   0.48454   0.00000  Uiso   1.00
H134   H     0.65931   0.23491   0.01341   0.00000  Uiso   1.00
H135   H     0.59811   0.29806   0.01532   0.00000  Uiso   1.00
H136   H     0.62828   0.27935   0.07161   0.00000  Uiso   1.00
H137   H     0.55529   0.14739   0.47644   0.00000  Uiso   1.00
H138   H     0.53235   0.16548   0.03176   0.00000  Uiso   1.00
H139   H     0.51480   0.11165   0.00828   0.00000  Uiso   1.00
H140   H     0.44270   0.16583   0.49001   0.00000  Uiso   1.00
H141   H     0.46345   0.13930   0.44024   0.00000  Uiso   1.00
H142   H     0.44878   0.02978   0.18865   0.00000  Uiso   1.00
H143   H     0.57517   0.46969   0.22270   0.00000  Uiso   1.00
H144   H     0.42586   0.22054   0.11465   0.00000  Uiso   1.00
H145   H     0.53525   0.31367   0.38045   0.00000  Uiso   1.00
H146   H     0.42323   0.22634   0.02649   0.00000  Uiso   1.00
H147   H     0.52847   0.31596   0.46744   0.00000  Uiso   1.00
H148   H     0.59652   0.14532   0.39144   0.00000  Uiso   1.00
I149   I     0.65204   0.19987   0.17351   0.00000  Uiso   1.00
I150   I     0.34769   0.28958   0.33403   0.00000  Uiso   1.00
I151   I     0.58901   0.01000   0.33794   0.00000  Uiso   1.00
I152   I     0.40017   0.49084   0.29123   0.00000  Uiso   1.00
I153   I     0.58799   0.32021   0.14517   0.00000  Uiso   1.00
I154   I     0.41886   0.17330   0.35457   0.00000  Uiso   1.00
N155   N     0.50000   0.25001   0.12935   0.00000  Uiso   1.00
N156   N     0.50000   0.24999   0.37065   0.00000  Uiso   1.00
O157   O     0.50000   0.18572   0.29071   0.00000  Uiso   1.00
O158   O     0.50000   0.31427   0.20928   0.00000  Uiso   1.00
O159   O     0.50000   0.18573   0.20928   0.00000  Uiso   1.00
O160   O     0.50000   0.31427   0.29072   0.00000  Uiso   1.00
O161   O     0.42495   0.25000   0.28132   0.00000  Uiso   1.00
O162   O     0.57505   0.25000   0.21868   0.00000  Uiso   1.00
O163   O     0.42495   0.25000   0.19988   0.00000  Uiso   1.00
O164   O     0.57505   0.25000   0.30011   0.00000  Uiso   1.00
C165   C     0.83562   0.16510   0.25052   0.00000  Uiso   1.00
C166   C     0.85076   0.28569   0.44807   0.00000  Uiso   1.00
C167   C     0.83584   0.24828   0.02756   0.00000  Uiso   1.00
C168   C     0.83500   0.24768   0.47293   0.00000  Uiso   1.00
C169   C     0.73479   0.24920   0.23814   0.00000  Uiso   1.00
C170   C     0.93182   0.24970   0.26209   0.00000  Uiso   1.00
C171   C     0.68043   0.24193   0.23318   0.00000  Uiso   1.00
C172   C     0.98634   0.25488   0.26838   0.00000  Uiso   1.00
C173   C     0.87361   0.04722   0.28550   0.00000  Uiso   1.00
C174   C     0.79269   0.45340   0.26509   0.00000  Uiso   1.00
C175   C     0.87453   0.09416   0.28547   0.00000  Uiso   1.00
C176   C     0.83256   0.33497   0.24966   0.00000  Uiso   1.00
C177   C     0.78978   0.40660   0.26362   0.00000  Uiso   1.00
C178   C     0.83944   0.11685   0.25130   0.00000  Uiso   1.00
C179   C     0.83148   0.38333   0.24907   0.00000  Uiso   1.00
C180   C     0.80733   0.09327   0.21630   0.00000  Uiso   1.00
C181   C     0.87360   0.40641   0.23425   0.00000  Uiso   1.00
C182   C     0.80778   0.04746   0.21571   0.00000  Uiso   1.00
C183   C     0.87553   0.45233   0.23434   0.00000  Uiso   1.00
C184   C     0.83961   0.02433   0.25069   0.00000  Uiso   1.00
C185   C     0.83588   0.47587   0.25043   0.00000  Uiso   1.00
C186   C     0.91533   0.11942   0.31858   0.00000  Uiso   1.00
C187   C     0.87960   0.26240   0.05917   0.00000  Uiso   1.00
C188   C     0.90051   0.12442   0.36958   0.00000  Uiso   1.00
C189   C     0.74161   0.38210   0.27495   0.00000  Uiso   1.00
C190   C     0.70081   0.38125   0.23094   0.00000  Uiso   1.00
C191   C     0.93199   0.27014   0.04147   0.00000  Uiso   1.00
C192   C     0.95225   0.22872   0.01985   0.00000  Uiso   1.00
C193   C     0.80809   0.16486   0.46786   0.00000  Uiso   1.00
C194   C     0.85572   0.14664   0.49789   0.00000  Uiso   1.00
C195   C     0.81783   0.21009   0.44467   0.00000  Uiso   1.00
C196   C     0.87417   0.26881   0.10888   0.00000  Uiso   1.00
C197   C     0.81073   0.21489   0.39330   0.00000  Uiso   1.00
C198   C     0.79253   0.23343   0.09952   0.00000  Uiso   1.00
C199   C     0.85308   0.28502   0.39784   0.00000  Uiso   1.00
C200   C     0.79172   0.23537   0.04888   0.00000  Uiso   1.00
Cu201  Cu    0.83333   0.24999   0.29821   0.00000  Uiso   1.00
Cu202  Cu    0.83333   0.25000   0.20178   0.00000  Uiso   1.00
H203   H     0.78109   0.11044   0.18970   0.00000  Uiso   1.00
H204   H     0.86305   0.14050   0.36829   0.00000  Uiso   1.00
H205   H     0.89788   0.09178   0.38793   0.00000  Uiso   1.00
H206   H     0.95256   0.10252   0.32050   0.00000  Uiso   1.00
H207   H     0.92298   0.15286   0.30361   0.00000  Uiso   1.00
H208   H     0.69011   0.41542   0.21915   0.00000  Uiso   1.00
H209   H     0.71522   0.36383   0.20054   0.00000  Uiso   1.00
H210   H     0.99939   0.36320   0.24034   0.00000  Uiso   1.00
H211   H     0.74962   0.34751   0.28598   0.00000  Uiso   1.00
H212   H     0.72625   0.39698   0.30628   0.00000  Uiso   1.00
H213   H     0.95117   0.20018   0.04531   0.00000  Uiso   1.00
H214   H     0.90553   0.38878   0.22328   0.00000  Uiso   1.00
H215   H     0.93017   0.22043   0.48454   0.00000  Uiso   1.00
H216   H     0.99264   0.23491   0.01341   0.00000  Uiso   1.00
H217   H     0.93144   0.29806   0.01532   0.00000  Uiso   1.00
H218   H     0.96161   0.27935   0.07161   0.00000  Uiso   1.00
H219   H     0.88863   0.14739   0.47644   0.00000  Uiso   1.00
H220   H     0.86568   0.16548   0.03176   0.00000  Uiso   1.00
H221   H     0.84813   0.11165   0.00828   0.00000  Uiso   1.00
H222   H     0.77603   0.16583   0.49001   0.00000  Uiso   1.00
H223   H     0.79678   0.13930   0.44024   0.00000  Uiso   1.00
H224   H     0.78212   0.02978   0.18865   0.00000  Uiso   1.00
H225   H     0.90850   0.46969   0.22270   0.00000  Uiso   1.00
H226   H     0.75920   0.22054   0.11465   0.00000  Uiso   1.00
H227   H     0.86858   0.31367   0.38045   0.00000  Uiso   1.00
H228   H     0.75656   0.22634   0.02649   0.00000  Uiso   1.00
H229   H     0.86180   0.31596   0.46744   0.00000  Uiso   1.00
H230   H     0.92986   0.14532   0.39144   0.00000  Uiso   1.00
I231   I     0.98537   0.19987   0.17351   0.00000  Uiso   1.00
I232   I     0.68103   0.28958   0.33403   0.00000  Uiso   1.00
I233   I     0.92234   0.01000   0.33794   0.00000  Uiso   1.00
I234   I     0.73350   0.49084   0.29123   0.00000  Uiso   1.00
I235   I     0.92132   0.32021   0.14517   0.00000  Uiso   1.00
I236   I     0.75219   0.17330   0.35457   0.00000  Uiso   1.00
N237   N     0.83333   0.25001   0.12935   0.00000  Uiso   1.00
N238   N     0.83333   0.24999   0.37065   0.00000  Uiso   1.00
O239   O     0.83334   0.18572   0.29071   0.00000  Uiso   1.00
O240   O     0.83333   0.31427   0.20928   0.00000  Uiso   1.00
O241   O     0.83334   0.18573   0.20928   0.00000  Uiso   1.00
O242   O     0.83333   0.31427   0.29072   0.00000  Uiso   1.00
O243   O     0.75828   0.25000   0.28132   0.00000  Uiso   1.00
O244   O     0.90839   0.25000   0.21868   0.00000  Uiso   1.00
O245   O     0.75828   0.25000   0.19988   0.00000  Uiso   1.00
O246   O     0.90839   0.25000   0.30011   0.00000  Uiso   1.00
C247   C     0.16895   0.66510   0.25052   0.00000  Uiso   1.00
C248   C     0.18409   0.78569   0.44807   0.00000  Uiso   1.00
C249   C     0.16918   0.74828   0.02756   0.00000  Uiso   1.00
C250   C     0.16833   0.74768   0.47293   0.00000  Uiso   1.00
C251   C     0.06813   0.74920   0.23814   0.00000  Uiso   1.00
C252   C     0.26516   0.74970   0.26209   0.00000  Uiso   1.00
C253   C     0.01377   0.74193   0.23318   0.00000  Uiso   1.00
C254   C     0.31967   0.75488   0.26838   0.00000  Uiso   1.00
C255   C     0.20695   0.54722   0.28550   0.00000  Uiso   1.00
C256   C     0.12602   0.95340   0.26509   0.00000  Uiso   1.00
C257   C     0.20786   0.59416   0.28547   0.00000  Uiso   1.00
C258   C     0.16589   0.83497   0.24966   0.00000  Uiso   1.00
C259   C     0.12312   0.90660   0.26362   0.00000  Uiso   1.00
C260   C     0.17278   0.61685   0.25130   0.00000  Uiso   1.00
C261   C     0.16481   0.88333   0.24907   0.00000  Uiso   1.00
C262   C     0.14066   0.59327   0.21630   0.00000  Uiso   1.00
C263   C     0.20693   0.90641   0.23425   0.00000  Uiso   1.00
C264   C     0.14111   0.54746   0.21571   0.00000  Uiso   1.00
C265   C     0.20886   0.95233   0.23434   0.00000  Uiso   1.00
C266   C     0.17294   0.52433   0.25069   0.00000  Uiso   1.00
C267   C     0.16921   0.97587   0.25043   0.00000  Uiso   1.00
C268   C     0.24866   0.61942   0.31858   0.00000  Uiso   1.00
C269   C     0.21293   0.76240   0.05917   0.00000  Uiso   1.00
C270   C     0.23384   0.62442   0.36958   0.00000  Uiso   1.00
C271   C     0.07494   0.88210   0.27495   0.00000  Uiso   1.00
C272   C     0.03414   0.88125   0.23094   0.00000  Uiso   1.00
C273   C     0.26532   0.77014   0.04147   0.00000  Uiso   1.00
C274   C     0.28558   0.72872   0.01985   0.00000  Uiso   1.00
C275   C     0.14142   0.66486   0.46786   0.00000  Uiso   1.00
C276   C     0.18906   0.64664   0.49789   0.00000  Uiso   1.00
C277   C     0.15116   0.71009   0.44467   0.00000  Uiso   1.00
C278   C     0.20750   0.76881   0.10888   0.00000  Uiso   1.00
C279   C     0.14407   0.71489   0.39330   0.00000  Uiso   1.00
C280   C     0.12586   0.73343   0.09952   0.00000  Uiso   1.00
C281   C     0.18642   0.78502   0.39784   0.00000  Uiso   1.00
C282   C     0.12505   0.73537   0.04888   0.00000  Uiso   1.00
Cu283  Cu    0.16667   0.74999   0.29821   0.00000  Uiso   1.00
Cu284  Cu    0.16667   0.75000   0.20178   0.00000  Uiso   1.00
H285   H     0.11442   0.61044   0.18970   0.00000  Uiso   1.00
H286   H     0.19639   0.64050   0.36829   0.00000  Uiso   1.00
H287   H     0.23121   0.59178   0.38793   0.00000  Uiso   1.00
H288   H     0.28589   0.60252   0.32050   0.00000  Uiso   1.00
H289   H     0.25631   0.65286   0.30361   0.00000  Uiso   1.00
H290   H     0.02344   0.91542   0.21915   0.00000  Uiso   1.00
H291   H     0.04855   0.86383   0.20054   0.00000  Uiso   1.00
H292   H     0.33272   0.86320   0.24034   0.00000  Uiso   1.00
H293   H     0.08295   0.84751   0.28598   0.00000  Uiso   1.00
H294   H     0.05959   0.89698   0.30628   0.00000  Uiso   1.00
H295   H     0.28450   0.70018   0.04531   0.00000  Uiso   1.00
H296   H     0.23886   0.88878   0.22328   0.00000  Uiso   1.00
H297   H     0.26350   0.72043   0.48454   0.00000  Uiso   1.00
H298   H     0.32598   0.73491   0.01341   0.00000  Uiso   1.00
H299   H     0.26477   0.79806   0.01532   0.00000  Uiso   1.00
H300   H     0.29495   0.77935   0.07161   0.00000  Uiso   1.00
H301   H     0.22196   0.64739   0.47644   0.00000  Uiso   1.00
H302   H     0.19902   0.66548   0.03176   0.00000  Uiso   1.00
H303   H     0.18147   0.61165   0.00828   0.00000  Uiso   1.00
H304   H     0.10936   0.66583   0.49001   0.00000  Uiso   1.00
H305   H     0.13012   0.63930   0.44024   0.00000  Uiso   1.00
H306   H     0.11545   0.52978   0.18865   0.00000  Uiso   1.00
H307   H     0.24183   0.96969   0.22270   0.00000  Uiso   1.00
H308   H     0.09253   0.72054   0.11465   0.00000  Uiso   1.00
H309   H     0.20191   0.81367   0.38045   0.00000  Uiso   1.00
H310   H     0.08990   0.72634   0.02649   0.00000  Uiso   1.00
H311   H     0.19514   0.81596   0.46744   0.00000  Uiso   1.00
H312   H     0.26319   0.64532   0.39144   0.00000  Uiso   1.00
I313   I     0.31870   0.69987   0.17351   0.00000  Uiso   1.00
I314   I     0.01436   0.78958   0.33403   0.00000  Uiso   1.00
I315   I     0.25567   0.51000   0.33794   0.00000  Uiso   1.00
I316   I     0.06683   0.99084   0.29123   0.00000  Uiso   1.00
I317   I     0.25465   0.82021   0.14517   0.00000  Uiso   1.00
I318   I     0.08553   0.67330   0.35457   0.00000  Uiso   1.00
N319   N     0.16667   0.75001   0.12935   0.00000  Uiso   1.00
N320   N     0.16667   0.74999   0.37065   0.00000  Uiso   1.00
O321   O     0.16667   0.68572   0.29071   0.00000  Uiso   1.00
O322   O     0.16666   0.81427   0.20928   0.00000  Uiso   1.00
O323   O     0.16667   0.68573   0.20928   0.00000  Uiso   1.00
O324   O     0.16666   0.81427   0.29072   0.00000  Uiso   1.00
O325   O     0.09161   0.75000   0.28132   0.00000  Uiso   1.00
O326   O     0.24172   0.75000   0.21868   0.00000  Uiso   1.00
O327   O     0.09161   0.75000   0.19988   0.00000  Uiso   1.00
O328   O     0.24172   0.75000   0.30011   0.00000  Uiso   1.00
C329   C     0.50228   0.66510   0.25052   0.00000  Uiso   1.00
C330   C     0.51743   0.78569   0.44807   0.00000  Uiso   1.00
C331   C     0.50251   0.74828   0.02756   0.00000  Uiso   1.00
C332   C     0.50166   0.74768   0.47293   0.00000  Uiso   1.00
C333   C     0.40146   0.74920   0.23814   0.00000  Uiso   1.00
C334   C     0.59849   0.74970   0.26209   0.00000  Uiso   1.00
C335   C     0.34710   0.74193   0.23318   0.00000  Uiso   1.00
C336   C     0.65300   0.75488   0.26838   0.00000  Uiso   1.00
C337   C     0.54028   0.54722   0.28550   0.00000  Uiso   1.00
C338   C     0.45936   0.95340   0.26509   0.00000  Uiso   1.00
C339   C     0.54119   0.59416   0.28547   0.00000  Uiso   1.00
C340   C     0.49922   0.83497   0.24966   0.00000  Uiso   1.00
C341   C     0.45645   0.90660   0.26362   0.00000  Uiso   1.00
C342   C     0.50611   0.61685   0.25130   0.00000  Uiso   1.00
C343   C     0.49814   0.88333   0.24907   0.00000  Uiso   1.00
C344   C     0.47400   0.59327   0.21630   0.00000  Uiso   1.00
C345   C     0.54027   0.90641   0.23425   0.00000  Uiso   1.00
C346   C     0.47444   0.54746   0.21571   0.00000  Uiso   1.00
C347   C     0.54219   0.95233   0.23434   0.00000  Uiso   1.00
C348   C     0.50627   0.52433   0.25069   0.00000  Uiso   1.00
C349   C     0.50254   0.97587   0.25043   0.00000  Uiso   1.00
C350   C     0.58199   0.61942   0.31858   0.00000  Uiso   1.00
C351   C     0.54627   0.76240   0.05917   0.00000  Uiso   1.00
C352   C     0.56717   0.62442   0.36958   0.00000  Uiso   1.00
C353   C     0.40828   0.88210   0.27495   0.00000  Uiso   1.00
C354   C     0.36748   0.88125   0.23094   0.00000  Uiso   1.00
C355   C     0.59865   0.77014   0.04147   0.00000  Uiso   1.00
C356   C     0.61891   0.72872   0.01985   0.00000  Uiso   1.00
C357   C     0.47476   0.66486   0.46786   0.00000  Uiso   1.00
C358   C     0.52239   0.64664   0.49789   0.00000  Uiso   1.00
C359   C     0.48450   0.71009   0.44467   0.00000  Uiso   1.00
C360   C     0.54084   0.76881   0.10888   0.00000  Uiso   1.00
C361   C     0.47740   0.71489   0.39330   0.00000  Uiso   1.00
C362   C     0.45919   0.73343   0.09952   0.00000  Uiso   1.00
C363   C     0.51975   0.78502   0.39784   0.00000  Uiso   1.00
C364   C     0.45839   0.73537   0.04888   0.00000  Uiso   1.00
Cu365  Cu    0.50000   0.74999   0.29821   0.00000  Uiso   1.00
Cu366  Cu    0.50000   0.75000   0.20178   0.00000  Uiso   1.00
H367   H     0.44775   0.61044   0.18970   0.00000  Uiso   1.00
H368   H     0.52972   0.64050   0.36829   0.00000  Uiso   1.00
H369   H     0.56454   0.59178   0.38793   0.00000  Uiso   1.00
H370   H     0.61923   0.60252   0.32050   0.00000  Uiso   1.00
H371   H     0.58964   0.65286   0.30361   0.00000  Uiso   1.00
H372   H     0.35677   0.91542   0.21915   0.00000  Uiso   1.00
H373   H     0.38188   0.86383   0.20054   0.00000  Uiso   1.00
H374   H     0.66606   0.86320   0.24034   0.00000  Uiso   1.00
H375   H     0.41629   0.84751   0.28598   0.00000  Uiso   1.00
H376   H     0.39292   0.89698   0.30628   0.00000  Uiso   1.00
H377   H     0.61783   0.70018   0.04531   0.00000  Uiso   1.00
H378   H     0.57220   0.88878   0.22328   0.00000  Uiso   1.00
H379   H     0.59683   0.72043   0.48454   0.00000  Uiso   1.00
H380   H     0.65931   0.73491   0.01341   0.00000  Uiso   1.00
H381   H     0.59811   0.79806   0.01532   0.00000  Uiso   1.00
H382   H     0.62828   0.77935   0.07161   0.00000  Uiso   1.00
H383   H     0.55529   0.64739   0.47644   0.00000  Uiso   1.00
H384   H     0.53235   0.66548   0.03176   0.00000  Uiso   1.00
H385   H     0.51480   0.61165   0.00828   0.00000  Uiso   1.00
H386   H     0.44270   0.66583   0.49001   0.00000  Uiso   1.00
H387   H     0.46345   0.63930   0.44024   0.00000  Uiso   1.00
H388   H     0.44878   0.52978   0.18865   0.00000  Uiso   1.00
H389   H     0.57517   0.96969   0.22270   0.00000  Uiso   1.00
H390   H     0.42586   0.72054   0.11465   0.00000  Uiso   1.00
H391   H     0.53525   0.81367   0.38045   0.00000  Uiso   1.00
H392   H     0.42323   0.72634   0.02649   0.00000  Uiso   1.00
H393   H     0.52847   0.81596   0.46744   0.00000  Uiso   1.00
H394   H     0.59652   0.64532   0.39144   0.00000  Uiso   1.00
I395   I     0.65204   0.69987   0.17351   0.00000  Uiso   1.00
I396   I     0.34769   0.78958   0.33403   0.00000  Uiso   1.00
I397   I     0.58901   0.51000   0.33794   0.00000  Uiso   1.00
I398   I     0.40017   0.99084   0.29123   0.00000  Uiso   1.00
I399   I     0.58799   0.82021   0.14517   0.00000  Uiso   1.00
I400   I     0.41886   0.67330   0.35457   0.00000  Uiso   1.00
N401   N     0.50000   0.75001   0.12935   0.00000  Uiso   1.00
N402   N     0.50000   0.74999   0.37065   0.00000  Uiso   1.00
O403   O     0.50000   0.68572   0.29071   0.00000  Uiso   1.00
O404   O     0.50000   0.81427   0.20928   0.00000  Uiso   1.00
O405   O     0.50000   0.68573   0.20928   0.00000  Uiso   1.00
O406   O     0.50000   0.81427   0.29072   0.00000  Uiso   1.00
O407   O     0.42495   0.75000   0.28132   0.00000  Uiso   1.00
O408   O     0.57505   0.75000   0.21868   0.00000  Uiso   1.00
O409   O     0.42495   0.75000   0.19988   0.00000  Uiso   1.00
O410   O     0.57505   0.75000   0.30011   0.00000  Uiso   1.00
C411   C     0.83562   0.66510   0.25052   0.00000  Uiso   1.00
C412   C     0.85076   0.78569   0.44807   0.00000  Uiso   1.00
C413   C     0.83584   0.74828   0.02756   0.00000  Uiso   1.00
C414   C     0.83500   0.74768   0.47293   0.00000  Uiso   1.00
C415   C     0.73479   0.74920   0.23814   0.00000  Uiso   1.00
C416   C     0.93182   0.74970   0.26209   0.00000  Uiso   1.00
C417   C     0.68043   0.74193   0.23318   0.00000  Uiso   1.00
C418   C     0.98634   0.75488   0.26838   0.00000  Uiso   1.00
C419   C     0.87361   0.54722   0.28550   0.00000  Uiso   1.00
C420   C     0.79269   0.95340   0.26509   0.00000  Uiso   1.00
C421   C     0.87453   0.59416   0.28547   0.00000  Uiso   1.00
C422   C     0.83256   0.83497   0.24966   0.00000  Uiso   1.00
C423   C     0.78978   0.90660   0.26362   0.00000  Uiso   1.00
C424   C     0.83944   0.61685   0.25130   0.00000  Uiso   1.00
C425   C     0.83148   0.88333   0.24907   0.00000  Uiso   1.00
C426   C     0.80733   0.59327   0.21630   0.00000  Uiso   1.00
C427   C     0.87360   0.90641   0.23425   0.00000  Uiso   1.00
C428   C     0.80778   0.54746   0.21571   0.00000  Uiso   1.00
C429   C     0.87553   0.95233   0.23434   0.00000  Uiso   1.00
C430   C     0.83961   0.52433   0.25069   0.00000  Uiso   1.00
C431   C     0.83588   0.97587   0.25043   0.00000  Uiso   1.00
C432   C     0.91533   0.61942   0.31858   0.00000  Uiso   1.00
C433   C     0.87960   0.76240   0.05917   0.00000  Uiso   1.00
C434   C     0.90051   0.62442   0.36958   0.00000  Uiso   1.00
C435   C     0.74161   0.88210   0.27495   0.00000  Uiso   1.00
C436   C     0.70081   0.88125   0.23094   0.00000  Uiso   1.00
C437   C     0.93199   0.77014   0.04147   0.00000  Uiso   1.00
C438   C     0.95225   0.72872   0.01985   0.00000  Uiso   1.00
C439   C     0.80809   0.66486   0.46786   0.00000  Uiso   1.00
C440   C     0.85572   0.64664   0.49789   0.00000  Uiso   1.00
C441   C     0.81783   0.71009   0.44467   0.00000  Uiso   1.00
C442   C     0.87417   0.76881   0.10888   0.00000  Uiso   1.00
C443   C     0.81073   0.71489   0.39330   0.00000  Uiso   1.00
C444   C     0.79253   0.73343   0.09952   0.00000  Uiso   1.00
C445   C     0.85308   0.78502   0.39784   0.00000  Uiso   1.00
C446   C     0.79172   0.73537   0.04888   0.00000  Uiso   1.00
Cu447  Cu    0.83333   0.74999   0.29821   0.00000  Uiso   1.00
Cu448  Cu    0.83333   0.75000   0.20178   0.00000  Uiso   1.00
H449   H     0.78109   0.61044   0.18970   0.00000  Uiso   1.00
H450   H     0.86305   0.64050   0.36829   0.00000  Uiso   1.00
H451   H     0.89788   0.59178   0.38793   0.00000  Uiso   1.00
H452   H     0.95256   0.60252   0.32050   0.00000  Uiso   1.00
H453   H     0.92298   0.65286   0.30361   0.00000  Uiso   1.00
H454   H     0.69011   0.91542   0.21915   0.00000  Uiso   1.00
H455   H     0.71522   0.86383   0.20054   0.00000  Uiso   1.00
H456   H     0.99939   0.86320   0.24034   0.00000  Uiso   1.00
H457   H     0.74962   0.84751   0.28598   0.00000  Uiso   1.00
H458   H     0.72625   0.89698   0.30628   0.00000  Uiso   1.00
H459   H     0.95117   0.70018   0.04531   0.00000  Uiso   1.00
H460   H     0.90553   0.88878   0.22328   0.00000  Uiso   1.00
H461   H     0.93017   0.72043   0.48454   0.00000  Uiso   1.00
H462   H     0.99264   0.73491   0.01341   0.00000  Uiso   1.00
H463   H     0.93144   0.79806   0.01532   0.00000  Uiso   1.00
H464   H     0.96161   0.77935   0.07161   0.00000  Uiso   1.00
H465   H     0.88863   0.64739   0.47644   0.00000  Uiso   1.00
H466   H     0.86568   0.66548   0.03176   0.00000  Uiso   1.00
H467   H     0.84813   0.61165   0.00828   0.00000  Uiso   1.00
H468   H     0.77603   0.66583   0.49001   0.00000  Uiso   1.00
H469   H     0.79678   0.63930   0.44024   0.00000  Uiso   1.00
H470   H     0.78212   0.52978   0.18865   0.00000  Uiso   1.00
H471   H     0.90850   0.96969   0.22270   0.00000  Uiso   1.00
H472   H     0.75920   0.72054   0.11465   0.00000  Uiso   1.00
H473   H     0.86858   0.81367   0.38045   0.00000  Uiso   1.00
H474   H     0.75656   0.72634   0.02649   0.00000  Uiso   1.00
H475   H     0.86180   0.81596   0.46744   0.00000  Uiso   1.00
H476   H     0.92986   0.64532   0.39144   0.00000  Uiso   1.00
I477   I     0.98537   0.69987   0.17351   0.00000  Uiso   1.00
I478   I     0.68103   0.78958   0.33403   0.00000  Uiso   1.00
I479   I     0.92234   0.51000   0.33794   0.00000  Uiso   1.00
I480   I     0.73350   0.99084   0.29123   0.00000  Uiso   1.00
I481   I     0.92132   0.82021   0.14517   0.00000  Uiso   1.00
I482   I     0.75219   0.67330   0.35457   0.00000  Uiso   1.00
N483   N     0.83333   0.75001   0.12935   0.00000  Uiso   1.00
N484   N     0.83333   0.74999   0.37065   0.00000  Uiso   1.00
O485   O     0.83334   0.68572   0.29071   0.00000  Uiso   1.00
O486   O     0.83333   0.81427   0.20928   0.00000  Uiso   1.00
O487   O     0.83334   0.68573   0.20928   0.00000  Uiso   1.00
O488   O     0.83333   0.81427   0.29072   0.00000  Uiso   1.00
O489   O     0.75828   0.75000   0.28132   0.00000  Uiso   1.00
O490   O     0.90839   0.75000   0.21868   0.00000  Uiso   1.00
O491   O     0.75828   0.75000   0.19988   0.00000  Uiso   1.00
O492   O     0.90839   0.75000   0.30011   0.00000  Uiso   1.00
C493   C     0.16895   0.16510   0.75052   0.00000  Uiso   1.00
C494   C     0.18409   0.28569   0.94807   0.00000  Uiso   1.00
C495   C     0.16918   0.24828   0.52756   0.00000  Uiso   1.00
C496   C     0.16833   0.24768   0.97293   0.00000  Uiso   1.00
C497   C     0.06813   0.24920   0.73814   0.00000  Uiso   1.00
C498   C     0.26516   0.24970   0.76209   0.00000  Uiso   1.00
C499   C     0.01377   0.24193   0.73318   0.00000  Uiso   1.00
C500   C     0.31967   0.25488   0.76838   0.00000  Uiso   1.00
C501   C     0.20695   0.04722   0.78550   0.00000  Uiso   1.00
C502   C     0.12602   0.45340   0.76509   0.00000  Uiso   1.00
C503   C     0.20786   0.09416   0.78547   0.00000  Uiso   1.00
C504   C     0.16589   0.33497   0.74966   0.00000  Uiso   1.00
C505   C     0.12312   0.40660   0.76362   0.00000  Uiso   1.00
C506   C     0.17278   0.11685   0.75130   0.00000  Uiso   1.00
C507   C     0.16481   0.38333   0.74907   0.00000  Uiso   1.00
C508   C     0.14066   0.09327   0.71630   0.00000  Uiso   1.00
C509   C     0.20693   0.40641   0.73425   0.00000  Uiso   1.00
C510   C     0.14111   0.04746   0.71571   0.00000  Uiso   1.00
C511   C     0.20886   0.45233   0.73434   0.00000  Uiso   1.00
C512   C     0.17294   0.02433   0.75069   0.00000  Uiso   1.00
C513   C     0.16921   0.47587   0.75043   0.00000  Uiso   1.00
C514   C     0.24866   0.11942   0.81858   0.00000  Uiso   1.00
C515   C     0.21293   0.26240   0.55917   0.00000  Uiso   1.00
C516   C     0.23384   0.12442   0.86958   0.00000  Uiso   1.00
C517   C     0.07494   0.38210   0.77495   0.00000  Uiso   1.00
C518   C     0.03414   0.38125   0.73094   0.00000  Uiso   1.00
C519   C     0.26532   0.27014   0.54147   0.00000  Uiso   1.00
C520   C     0.28558   0.22872   0.51985   0.00000  Uiso   1.00
C521   C     0.14142   0.16486   0.96786   0.00000  Uiso   1.00
C522   C     0.18906   0.14664   0.99789   0.00000  Uiso   1.00
C523   C     0.15116   0.21009   0.94467   0.00000  Uiso   1.00
C524   C     0.20750   0.26881   0.60888   0.00000  Uiso   1.00
C525   C     0.14407   0.21489   0.89330   0.00000  Uiso   1.00
C526   C     0.12586   0.23343   0.59952   0.00000  Uiso   1.00
C527   C     0.18642   0.28502   0.89784   0.00000  Uiso   1.00
C528   C     0.12505   0.23537   0.54888   0.00000  Uiso   1.00
Cu529  Cu    0.16667   0.24999   0.79821   0.00000  Uiso   1.00
Cu530  Cu    0.16667   0.25000   0.70178   0.00000  Uiso   1.00
H531   H     0.11442   0.11044   0.68970   0.00000  Uiso   1.00
H532   H     0.19639   0.14050   0.86829   0.00000  Uiso   1.00
H533   H     0.23121   0.09178   0.88793   0.00000  Uiso   1.00
H534   H     0.28589   0.10252   0.82050   0.00000  Uiso   1.00
H535   H     0.25631   0.15286   0.80361   0.00000  Uiso   1.00
H536   H     0.02344   0.41542   0.71915   0.00000  Uiso   1.00
H537   H     0.04855   0.36383   0.70054   0.00000  Uiso   1.00
H538   H     0.33272   0.36320   0.74034   0.00000  Uiso   1.00
H539   H     0.08295   0.34751   0.78598   0.00000  Uiso   1.00
H540   H     0.05959   0.39698   0.80628   0.00000  Uiso   1.00
H541   H     0.28450   0.20018   0.54531   0.00000  Uiso   1.00
H542   H     0.23886   0.38878   0.72328   0.00000  Uiso   1.00
H543   H     0.26350   0.22043   0.98454   0.00000  Uiso   1.00
H544   H     0.32598   0.23491   0.51341   0.00000  Uiso   1.00
H545   H     0.26477   0.29806   0.51532   0.00000  Uiso   1.00
H546   H     0.29495   0.27935   0.57161   0.00000  Uiso   1.00
H547   H     0.22196   0.14739   0.97644   0.00000  Uiso   1.00
H548   H     0.19902   0.16548   0.53176   0.00000  Uiso   1.00
H549   H     0.18147   0.11165   0.50828   0.00000  Uiso   1.00
H550   H     0.10936   0.16583   0.99001   0.00000  Uiso   1.00
H551   H     0.13012   0.13930   0.94024   0.00000  Uiso   1.00
H552   H     0.11545   0.02978   0.68865   0.00000  Uiso   1.00
H553   H     0.24183   0.46969   0.72270   0.00000  Uiso   1.00
H554   H     0.09253   0.22054   0.61465   0.00000  Uiso   1.00
H555   H     0.20191   0.31367   0.88045   0.00000  Uiso   1.00
H556   H     0.08990   0.22634   0.52649   0.00000  Uiso   1.00
H557   H     0.19514   0.31596   0.96744   0.00000  Uiso   1.00
H558   H     0.26319   0.14532   0.89144   0.00000  Uiso   1.00
I559   I     0.31870   0.19987   0.67351   0.00000  Uiso   1.00
I560   I     0.01436   0.28958   0.83403   0.00000  Uiso   1.00
I561   I     0.25567   0.01000   0.83794   0.00000  Uiso   1.00
I562   I     0.06683   0.49084   0.79123   0.00000  Uiso   1.00
I563   I     0.25465   0.32021   0.64517   0.00000  Uiso   1.00
I564   I     0.08553   0.17330   0.85457   0.00000  Uiso   1.00
N565   N     0.16667   0.25001   0.62935   0.00000  Uiso   1.00
N566   N     0.16667   0.24999   0.87065   0.00000  Uiso   1.00
O567   O     0.16667   0.18572   0.79071   0.00000  Uiso   1.00
O568   O     0.16666   0.31427   0.70928   0.00000  Uiso   1.00
O569   O     0.16667   0.18573   0.70928   0.00000  Uiso   1.00
O570   O     0.16666   0.31427   0.79072   0.00000  Uiso   1.00
O571   O     0.09161   0.25000   0.78132   0.00000  Uiso   1.00
O572   O     0.24172   0.25000   0.71868   0.00000  Uiso   1.00
O573   O     0.09161   0.25000   0.69988   0.00000  Uiso   1.00
O574   O     0.24172   0.25000   0.80011   0.00000  Uiso   1.00
C575   C     0.50228   0.16510   0.75052   0.00000  Uiso   1.00
C576   C     0.51743   0.28569   0.94807   0.00000  Uiso   1.00
C577   C     0.50251   0.24828   0.52756   0.00000  Uiso   1.00
C578   C     0.50166   0.24768   0.97293   0.00000  Uiso   1.00
C579   C     0.40146   0.24920   0.73814   0.00000  Uiso   1.00
C580   C     0.59849   0.24970   0.76209   0.00000  Uiso   1.00
C581   C     0.34710   0.24193   0.73318   0.00000  Uiso   1.00
C582   C     0.65300   0.25488   0.76838   0.00000  Uiso   1.00
C583   C     0.54028   0.04722   0.78550   0.00000  Uiso   1.00
C584   C     0.45936   0.45340   0.76509   0.00000  Uiso   1.00
C585   C     0.54119   0.09416   0.78547   0.00000  Uiso   1.00
C586   C     0.49922   0.33497   0.74966   0.00000  Uiso   1.00
C587   C     0.45645   0.40660   0.76362   0.00000  Uiso   1.00
C588   C     0.50611   0.11685   0.75130   0.00000  Uiso   1.00
C589   C     0.49814   0.38333   0.74907   0.00000  Uiso   1.00
C590   C     0.47400   0.09327   0.71630   0.00000  Uiso   1.00
C591   C     0.54027   0.40641   0.73425   0.00000  Uiso   1.00
C592   C     0.47444   0.04746   0.71571   0.00000  Uiso   1.00
C593   C     0.54219   0.45233   0.73434   0.00000  Uiso   1.00
C594   C     0.50627   0.02433   0.75069   0.00000  Uiso   1.00
C595   C     0.50254   0.47587   0.75043   0.00000  Uiso   1.00
C596   C     0.58199   0.11942   0.81858   0.00000  Uiso   1.00
C597   C     0.54627   0.26240   0.55917   0.00000  Uiso   1.00
C598   C     0.56717   0.12442   0.86958   0.00000  Uiso   1.00
C599   C     0.40828   0.38210   0.77495   0.00000  Uiso   1.00
C600   C     0.36748   0.38125   0.73094   0.00000  Uiso   1.00
C601   C     0.59865   0.27014   0.54147   0.00000  Uiso   1.00
C602   C     0.61891   0.22872   0.51985   0.00000  Uiso   1.00
C603   C     0.47476   0.16486   0.96786   0.00000  Uiso   1.00
C604   C     0.52239   0.14664   0.99789   0.00000  Uiso   1.00
C605   C     0.48450   0.21009   0.94467   0.00000  Uiso   1.00
C606   C     0.54084   0.26881   0.60888   0.00000  Uiso   1.00
C607   C     0.47740   0.21489   0.89330   0.00000  Uiso   1.00
C608   C     0.45919   0.23343   0.59952   0.00000  Uiso   1.00
C609   C     0.51975   0.28502   0.89784   0.00000  Uiso   1.00
C610   C     0.45839   0.23537   0.54888   0.00000  Uiso   1.00
Cu611  Cu    0.50000   0.24999   0.79821   0.00000  Uiso   1.00
Cu612  Cu    0.50000   0.25000   0.70178   0.00000  Uiso   1.00
H613   H     0.44775   0.11044   0.68970   0.00000  Uiso   1.00
H614   H     0.52972   0.14050   0.86829   0.00000  Uiso   1.00
H615   H     0.56454   0.09178   0.88793   0.00000  Uiso   1.00
H616   H     0.61923   0.10252   0.82050   0.00000  Uiso   1.00
H617   H     0.58964   0.15286   0.80361   0.00000  Uiso   1.00
H618   H     0.35677   0.41542   0.71915   0.00000  Uiso   1.00
H619   H     0.38188   0.36383   0.70054   0.00000  Uiso   1.00
H620   H     0.66606   0.36320   0.74034   0.00000  Uiso   1.00
H621   H     0.41629   0.34751   0.78598   0.00000  Uiso   1.00
H622   H     0.39292   0.39698   0.80628   0.00000  Uiso   1.00
H623   H     0.61783   0.20018   0.54531   0.00000  Uiso   1.00
H624   H     0.57220   0.38878   0.72328   0.00000  Uiso   1.00
H625   H     0.59683   0.22043   0.98454   0.00000  Uiso   1.00
H626   H     0.65931   0.23491   0.51341   0.00000  Uiso   1.00
H627   H     0.59811   0.29806   0.51532   0.00000  Uiso   1.00
H628   H     0.62828   0.27935   0.57161   0.00000  Uiso   1.00
H629   H     0.55529   0.14739   0.97644   0.00000  Uiso   1.00
H630   H     0.53235   0.16548   0.53176   0.00000  Uiso   1.00
H631   H     0.51480   0.11165   0.50828   0.00000  Uiso   1.00
H632   H     0.44270   0.16583   0.99001   0.00000  Uiso   1.00
H633   H     0.46345   0.13930   0.94024   0.00000  Uiso   1.00
H634   H     0.44878   0.02978   0.68865   0.00000  Uiso   1.00
H635   H     0.57517   0.46969   0.72270   0.00000  Uiso   1.00
H636   H     0.42586   0.22054   0.61465   0.00000  Uiso   1.00
H637   H     0.53525   0.31367   0.88045   0.00000  Uiso   1.00
H638   H     0.42323   0.22634   0.52649   0.00000  Uiso   1.00
H639   H     0.52847   0.31596   0.96744   0.00000  Uiso   1.00
H640   H     0.59652   0.14532   0.89144   0.00000  Uiso   1.00
I641   I     0.65204   0.19987   0.67351   0.00000  Uiso   1.00
I642   I     0.34769   0.28958   0.83403   0.00000  Uiso   1.00
I643   I     0.58901   0.01000   0.83794   0.00000  Uiso   1.00
I644   I     0.40017   0.49084   0.79123   0.00000  Uiso   1.00
I645   I     0.58799   0.32021   0.64517   0.00000  Uiso   1.00
I646   I     0.41886   0.17330   0.85457   0.00000  Uiso   1.00
N647   N     0.50000   0.25001   0.62935   0.00000  Uiso   1.00
N648   N     0.50000   0.24999   0.87065   0.00000  Uiso   1.00
O649   O     0.50000   0.18572   0.79071   0.00000  Uiso   1.00
O650   O     0.50000   0.31427   0.70928   0.00000  Uiso   1.00
O651   O     0.50000   0.18573   0.70928   0.00000  Uiso   1.00
O652   O     0.50000   0.31427   0.79072   0.00000  Uiso   1.00
O653   O     0.42495   0.25000   0.78132   0.00000  Uiso   1.00
O654   O     0.57505   0.25000   0.71868   0.00000  Uiso   1.00
O655   O     0.42495   0.25000   0.69988   0.00000  Uiso   1.00
O656   O     0.57505   0.25000   0.80011   0.00000  Uiso   1.00
C657   C     0.83562   0.16510   0.75052   0.00000  Uiso   1.00
C658   C     0.85076   0.28569   0.94807   0.00000  Uiso   1.00
C659   C     0.83584   0.24828   0.52756   0.00000  Uiso   1.00
C660   C     0.83500   0.24768   0.97293   0.00000  Uiso   1.00
C661   C     0.73479   0.24920   0.73814   0.00000  Uiso   1.00
C662   C     0.93182   0.24970   0.76209   0.00000  Uiso   1.00
C663   C     0.68043   0.24193   0.73318   0.00000  Uiso   1.00
C664   C     0.98634   0.25488   0.76838   0.00000  Uiso   1.00
C665   C     0.87361   0.04722   0.78550   0.00000  Uiso   1.00
C666   C     0.79269   0.45340   0.76509   0.00000  Uiso   1.00
C667   C     0.87453   0.09416   0.78547   0.00000  Uiso   1.00
C668   C     0.83256   0.33497   0.74966   0.00000  Uiso   1.00
C669   C     0.78978   0.40660   0.76362   0.00000  Uiso   1.00
C670   C     0.83944   0.11685   0.75130   0.00000  Uiso   1.00
C671   C     0.83148   0.38333   0.74907   0.00000  Uiso   1.00
C672   C     0.80733   0.09327   0.71630   0.00000  Uiso   1.00
C673   C     0.87360   0.40641   0.73425   0.00000  Uiso   1.00
C674   C     0.80778   0.04746   0.71571   0.00000  Uiso   1.00
C675   C     0.87553   0.45233   0.73434   0.00000  Uiso   1.00
C676   C     0.83961   0.02433   0.75069   0.00000  Uiso   1.00
C677   C     0.83588   0.47587   0.75043   0.00000  Uiso   1.00
C678   C     0.91533   0.11942   0.81858   0.00000  Uiso   1.00
C679   C     0.87960   0.26240   0.55917   0.00000  Uiso   1.00
C680   C     0.90051   0.12442   0.86958   0.00000  Uiso   1.00
C681   C     0.74161   0.38210   0.77495   0.00000  Uiso   1.00
C682   C     0.70081   0.38125   0.73094   0.00000  Uiso   1.00
C683   C     0.93199   0.27014   0.54147   0.00000  Uiso   1.00
C684   C     0.95225   0.22872   0.51985   0.00000  Uiso   1.00
C685   C     0.80809   0.16486   0.96786   0.00000  Uiso   1.00
C686   C     0.85572   0.14664   0.99789   0.00000  Uiso   1.00
C687   C     0.81783   0.21009   0.94467   0.00000  Uiso   1.00
C688   C     0.87417   0.26881   0.60888   0.00000  Uiso   1.00
C689   C     0.81073   0.21489   0.89330   0.00000  Uiso   1.00
C690   C     0.79253   0.23343   0.59952   0.00000  Uiso   1.00
C691   C     0.85308   0.28502   0.89784   0.00000  Uiso   1.00
C692   C     0.79172   0.23537   0.54888   0.00000  Uiso   1.00
Cu693  Cu    0.83333   0.24999   0.79821   0.00000  Uiso   1.00
Cu694  Cu    0.83333   0.25000   0.70178   0.00000  Uiso   1.00
H695   H     0.78109   0.11044   0.68970   0.00000  Uiso   1.00
H696   H     0.86305   0.14050   0.86829   0.00000  Uiso   1.00
H697   H     0.89788   0.09178   0.88793   0.00000  Uiso   1.00
H698   H     0.95256   0.10252   0.82050   0.00000  Uiso   1.00
H699   H     0.92298   0.15286   0.80361   0.00000  Uiso   1.00
H700   H     0.69011   0.41542   0.71915   0.00000  Uiso   1.00
H701   H     0.71522   0.36383   0.70054   0.00000  Uiso   1.00
H702   H     0.99939   0.36320   0.74034   0.00000  Uiso   1.00
H703   H     0.74962   0.34751   0.78598   0.00000  Uiso   1.00
H704   H     0.72625   0.39698   0.80628   0.00000  Uiso   1.00
H705   H     0.95117   0.20018   0.54531   0.00000  Uiso   1.00
H706   H     0.90553   0.38878   0.72328   0.00000  Uiso   1.00
H707   H     0.93017   0.22043   0.98454   0.00000  Uiso   1.00
H708   H     0.99264   0.23491   0.51341   0.00000  Uiso   1.00
H709   H     0.93144   0.29806   0.51532   0.00000  Uiso   1.00
H710   H     0.96161   0.27935   0.57161   0.00000  Uiso   1.00
H711   H     0.88863   0.14739   0.97644   0.00000  Uiso   1.00
H712   H     0.86568   0.16548   0.53176   0.00000  Uiso   1.00
H713   H     0.84813   0.11165   0.50828   0.00000  Uiso   1.00
H714   H     0.77603   0.16583   0.99001   0.00000  Uiso   1.00
H715   H     0.79678   0.13930   0.94024   0.00000  Uiso   1.00
H716   H     0.78212   0.02978   0.68865   0.00000  Uiso   1.00
H717   H     0.90850   0.46969   0.72270   0.00000  Uiso   1.00
H718   H     0.75920   0.22054   0.61465   0.00000  Uiso   1.00
H719   H     0.86858   0.31367   0.88045   0.00000  Uiso   1.00
H720   H     0.75656   0.22634   0.52649   0.00000  Uiso   1.00
H721   H     0.86180   0.31596   0.96744   0.00000  Uiso   1.00
H722   H     0.92986   0.14532   0.89144   0.00000  Uiso   1.00
I723   I     0.98537   0.19987   0.67351   0.00000  Uiso   1.00
I724   I     0.68103   0.28958   0.83403   0.00000  Uiso   1.00
I725   I     0.92234   0.01000   0.83794   0.00000  Uiso   1.00
I726   I     0.73350   0.49084   0.79123   0.00000  Uiso   1.00
I727   I     0.92132   0.32021   0.64517   0.00000  Uiso   1.00
I728   I     0.75219   0.17330   0.85457   0.00000  Uiso   1.00
N729   N     0.83333   0.25001   0.62935   0.00000  Uiso   1.00
N730   N     0.83333   0.24999   0.87065   0.00000  Uiso   1.00
O731   O     0.83334   0.18572   0.79071   0.00000  Uiso   1.00
O732   O     0.83333   0.31427   0.70928   0.00000  Uiso   1.00
O733   O     0.83334   0.18573   0.70928   0.00000  Uiso   1.00
O734   O     0.83333   0.31427   0.79072   0.00000  Uiso   1.00
O735   O     0.75828   0.25000   0.78132   0.00000  Uiso   1.00
O736   O     0.90839   0.25000   0.71868   0.00000  Uiso   1.00
O737   O     0.75828   0.25000   0.69988   0.00000  Uiso   1.00
O738   O     0.90839   0.25000   0.80011   0.00000  Uiso   1.00
C739   C     0.16895   0.66510   0.75052   0.00000  Uiso   1.00
C740   C     0.18409   0.78569   0.94807   0.00000  Uiso   1.00
C741   C     0.16918   0.74828   0.52756   0.00000  Uiso   1.00
C742   C     0.16833   0.74768   0.97293   0.00000  Uiso   1.00
C743   C     0.06813   0.74920   0.73814   0.00000  Uiso   1.00
C744   C     0.26516   0.74970   0.76209   0.00000  Uiso   1.00
C745   C     0.01377   0.74193   0.73318   0.00000  Uiso   1.00
C746   C     0.31967   0.75488   0.76838   0.00000  Uiso   1.00
C747   C     0.20695   0.54722   0.78550   0.00000  Uiso   1.00
C748   C     0.12602   0.95340   0.76509   0.00000  Uiso   1.00
C749   C     0.20786   0.59416   0.78547   0.00000  Uiso   1.00
C750   C     0.16589   0.83497   0.74966   0.00000  Uiso   1.00
C751   C     0.12312   0.90660   0.76362   0.00000  Uiso   1.00
C752   C     0.17278   0.61685   0.75130   0.00000  Uiso   1.00
C753   C     0.16481   0.88333   0.74907   0.00000  Uiso   1.00
C754   C     0.14066   0.59327   0.71630   0.00000  Uiso   1.00
C755   C     0.20693   0.90641   0.73425   0.00000  Uiso   1.00
C756   C     0.14111   0.54746   0.71571   0.00000  Uiso   1.00
C757   C     0.20886   0.95233   0.73434   0.00000  Uiso   1.00
C758   C     0.17294   0.52433   0.75069   0.00000  Uiso   1.00
C759   C     0.16921   0.97587   0.75043   0.00000  Uiso   1.00
C760   C     0.24866   0.61942   0.81858   0.00000  Uiso   1.00
C761   C     0.21293   0.76240   0.55917   0.00000  Uiso   1.00
C762   C     0.23384   0.62442   0.86958   0.00000  Uiso   1.00
C763   C     0.07494   0.88210   0.77495   0.00000  Uiso   1.00
C764   C     0.03414   0.88125   0.73094   0.00000  Uiso   1.00
C765   C     0.26532   0.77014   0.54147   0.00000  Uiso   1.00
C766   C     0.28558   0.72872   0.51985   0.00000  Uiso   1.00
C767   C     0.14142   0.66486   0.96786   0.00000  Uiso   1.00
C768   C     0.18906   0.64664   0.99789   0.00000  Uiso   1.00
C769   C     0.15116   0.71009   0.94467   0.00000  Uiso   1.00
C770   C     0.20750   0.76881   0.60888   0.00000  Uiso   1.00
C771   C     0.14407   0.71489   0.89330   0.00000  Uiso   1.00
C772   C     0.12586   0.73343   0.59952   0.00000  Uiso   1.00
C773   C     0.18642   0.78502   0.89784   0.00000  Uiso   1.00
C774   C     0.12505   0.73537   0.54888   0.00000  Uiso   1.00
Cu775  Cu    0.16667   0.74999   0.79821   0.00000  Uiso   1.00
Cu776  Cu    0.16667   0.75000   0.70178   0.00000  Uiso   1.00
H777   H     0.11442   0.61044   0.68970   0.00000  Uiso   1.00
H778   H     0.19639   0.64050   0.86829   0.00000  Uiso   1.00
H779   H     0.23121   0.59178   0.88793   0.00000  Uiso   1.00
H780   H     0.28589   0.60252   0.82050   0.00000  Uiso   1.00
H781   H     0.25631   0.65286   0.80361   0.00000  Uiso   1.00
H782   H     0.02344   0.91542   0.71915   0.00000  Uiso   1.00
H783   H     0.04855   0.86383   0.70054   0.00000  Uiso   1.00
H784   H     0.33272   0.86320   0.74034   0.00000  Uiso   1.00
H785   H     0.08295   0.84751   0.78598   0.00000  Uiso   1.00
H786   H     0.05959   0.89698   0.80628   0.00000  Uiso   1.00
H787   H     0.28450   0.70018   0.54531   0.00000  Uiso   1.00
H788   H     0.23886   0.88878   0.72328   0.00000  Uiso   1.00
H789   H     0.26350   0.72043   0.98454   0.00000  Uiso   1.00
H790   H     0.32598   0.73491   0.51341   0.00000  Uiso   1.00
H791   H     0.26477   0.79806   0.51532   0.00000  Uiso   1.00
H792   H     0.29495   0.77935   0.57161   0.00000  Uiso   1.00
H793   H     0.22196   0.64739   0.97644   0.00000  Uiso   1.00
H794   H     0.19902   0.66548   0.53176   0.00000  Uiso   1.00
H795   H     0.18147   0.61165   0.50828   0.00000  Uiso   1.00
H796   H     0.10936   0.66583   0.99001   0.00000  Uiso   1.00
H797   H     0.13012   0.63930   0.94024   0.00000  Uiso   1.00
H798   H     0.11545   0.52978   0.68865   0.00000  Uiso   1.00
H799   H     0.24183   0.96969   0.72270   0.00000  Uiso   1.00
H800   H     0.09253   0.72054   0.61465   0.00000  Uiso   1.00
H801   H     0.20191   0.81367   0.88045   0.00000  Uiso   1.00
H802   H     0.08990   0.72634   0.52649   0.00000  Uiso   1.00
H803   H     0.19514   0.81596   0.96744   0.00000  Uiso   1.00
H804   H     0.26319   0.64532   0.89144   0.00000  Uiso   1.00
I805   I     0.31870   0.69987   0.67351   0.00000  Uiso   1.00
I806   I     0.01436   0.78958   0.83403   0.00000  Uiso   1.00
I807   I     0.25567   0.51000   0.83794   0.00000  Uiso   1.00
I808   I     0.06683   0.99084   0.79123   0.00000  Uiso   1.00
I809   I     0.25465   0.82021   0.64517   0.00000  Uiso   1.00
I810   I     0.08553   0.67330   0.85457   0.00000  Uiso   1.00
N811   N     0.16667   0.75001   0.62935   0.00000  Uiso   1.00
N812   N     0.16667   0.74999   0.87065   0.00000  Uiso   1.00
O813   O     0.16667   0.68572   0.79071   0.00000  Uiso   1.00
O814   O     0.16666   0.81427   0.70928   0.00000  Uiso   1.00
O815   O     0.16667   0.68573   0.70928   0.00000  Uiso   1.00
O816   O     0.16666   0.81427   0.79072   0.00000  Uiso   1.00
O817   O     0.09161   0.75000   0.78132   0.00000  Uiso   1.00
O818   O     0.24172   0.75000   0.71868   0.00000  Uiso   1.00
O819   O     0.09161   0.75000   0.69988   0.00000  Uiso   1.00
O820   O     0.24172   0.75000   0.80011   0.00000  Uiso   1.00
C821   C     0.50228   0.66510   0.75052   0.00000  Uiso   1.00
C822   C     0.51743   0.78569   0.94807   0.00000  Uiso   1.00
C823   C     0.50251   0.74828   0.52756   0.00000  Uiso   1.00
C824   C     0.50166   0.74768   0.97293   0.00000  Uiso   1.00
C825   C     0.40146   0.74920   0.73814   0.00000  Uiso   1.00
C826   C     0.59849   0.74970   0.76209   0.00000  Uiso   1.00
C827   C     0.34710   0.74193   0.73318   0.00000  Uiso   1.00
C828   C     0.65300   0.75488   0.76838   0.00000  Uiso   1.00
C829   C     0.54028   0.54722   0.78550   0.00000  Uiso   1.00
C830   C     0.45936   0.95340   0.76509   0.00000  Uiso   1.00
C831   C     0.54119   0.59416   0.78547   0.00000  Uiso   1.00
C832   C     0.49922   0.83497   0.74966   0.00000  Uiso   1.00
C833   C     0.45645   0.90660   0.76362   0.00000  Uiso   1.00
C834   C     0.50611   0.61685   0.75130   0.00000  Uiso   1.00
C835   C     0.49814   0.88333   0.74907   0.00000  Uiso   1.00
C836   C     0.47400   0.59327   0.71630   0.00000  Uiso   1.00
C837   C     0.54027   0.90641   0.73425   0.00000  Uiso   1.00
C838   C     0.47444   0.54746   0.71571   0.00000  Uiso   1.00
C839   C     0.54219   0.95233   0.73434   0.00000  Uiso   1.00
C840   C     0.50627   0.52433   0.75069   0.00000  Uiso   1.00
C841   C     0.50254   0.97587   0.75043   0.00000  Uiso   1.00
C842   C     0.58199   0.61942   0.81858   0.00000  Uiso   1.00
C843   C     0.54627   0.76240   0.55917   0.00000  Uiso   1.00
C844   C     0.56717   0.62442   0.86958   0.00000  Uiso   1.00
C845   C     0.40828   0.88210   0.77495   0.00000  Uiso   1.00
C846   C     0.36748   0.88125   0.73094   0.00000  Uiso   1.00
C847   C     0.59865   0.77014   0.54147   0.00000  Uiso   1.00
C848   C     0.61891   0.72872   0.51985   0.00000  Uiso   1.00
C849   C     0.47476   0.66486   0.96786   0.00000  Uiso   1.00
C850   C     0.52239   0.64664   0.99789   0.00000  Uiso   1.00
C851   C     0.48450   0.71009   0.94467   0.00000  Uiso   1.00
C852   C     0.54084   0.76881   0.60888   0.00000  Uiso   1.00
C853   C     0.47740   0.71489   0.89330   0.00000  Uiso   1.00
C854   C     0.45919   0.73343   0.59952   0.00000  Uiso   1.00
C855   C     0.51975   0.78502   0.89784   0.00000  Uiso   1.00
C856   C     0.45839   0.73537   0.54888   0.00000  Uiso   1.00
Cu857  Cu    0.50000   0.74999   0.79821   0.00000  Uiso   1.00
Cu858  Cu    0.50000   0.75000   0.70178   0.00000  Uiso   1.00
H859   H     0.44775   0.61044   0.68970   0.00000  Uiso   1.00
H860   H     0.52972   0.64050   0.86829   0.00000  Uiso   1.00
H861   H     0.56454   0.59178   0.88793   0.00000  Uiso   1.00
H862   H     0.61923   0.60252   0.82050   0.00000  Uiso   1.00
H863   H     0.58964   0.65286   0.80361   0.00000  Uiso   1.00
H864   H     0.35677   0.91542   0.71915   0.00000  Uiso   1.00
H865   H     0.38188   0.86383   0.70054   0.00000  Uiso   1.00
H866   H     0.66606   0.86320   0.74034   0.00000  Uiso   1.00
H867   H     0.41629   0.84751   0.78598   0.00000  Uiso   1.00
H868   H     0.39292   0.89698   0.80628   0.00000  Uiso   1.00
H869   H     0.61783   0.70018   0.54531   0.00000  Uiso   1.00
H870   H     0.57220   0.88878   0.72328   0.00000  Uiso   1.00
H871   H     0.59683   0.72043   0.98454   0.00000  Uiso   1.00
H872   H     0.65931   0.73491   0.51341   0.00000  Uiso   1.00
H873   H     0.59811   0.79806   0.51532   0.00000  Uiso   1.00
H874   H     0.62828   0.77935   0.57161   0.00000  Uiso   1.00
H875   H     0.55529   0.64739   0.97644   0.00000  Uiso   1.00
H876   H     0.53235   0.66548   0.53176   0.00000  Uiso   1.00
H877   H     0.51480   0.61165   0.50828   0.00000  Uiso   1.00
H878   H     0.44270   0.66583   0.99001   0.00000  Uiso   1.00
H879   H     0.46345   0.63930   0.94024   0.00000  Uiso   1.00
H880   H     0.44878   0.52978   0.68865   0.00000  Uiso   1.00
H881   H     0.57517   0.96969   0.72270   0.00000  Uiso   1.00
H882   H     0.42586   0.72054   0.61465   0.00000  Uiso   1.00
H883   H     0.53525   0.81367   0.88045   0.00000  Uiso   1.00
H884   H     0.42323   0.72634   0.52649   0.00000  Uiso   1.00
H885   H     0.52847   0.81596   0.96744   0.00000  Uiso   1.00
H886   H     0.59652   0.64532   0.89144   0.00000  Uiso   1.00
I887   I     0.65204   0.69987   0.67351   0.00000  Uiso   1.00
I888   I     0.34769   0.78958   0.83403   0.00000  Uiso   1.00
I889   I     0.58901   0.51000   0.83794   0.00000  Uiso   1.00
I890   I     0.40017   0.99084   0.79123   0.00000  Uiso   1.00
I891   I     0.58799   0.82021   0.64517   0.00000  Uiso   1.00
I892   I     0.41886   0.67330   0.85457   0.00000  Uiso   1.00
N893   N     0.50000   0.75001   0.62935   0.00000  Uiso   1.00
N894   N     0.50000   0.74999   0.87065   0.00000  Uiso   1.00
O895   O     0.50000   0.68572   0.79071   0.00000  Uiso   1.00
O896   O     0.50000   0.81427   0.70928   0.00000  Uiso   1.00
O897   O     0.50000   0.68573   0.70928   0.00000  Uiso   1.00
O898   O     0.50000   0.81427   0.79072   0.00000  Uiso   1.00
O899   O     0.42495   0.75000   0.78132   0.00000  Uiso   1.00
O900   O     0.57505   0.75000   0.71868   0.00000  Uiso   1.00
O901   O     0.42495   0.75000   0.69988   0.00000  Uiso   1.00
O902   O     0.57505   0.75000   0.80011   0.00000  Uiso   1.00
C903   C     0.83562   0.66510   0.75052   0.00000  Uiso   1.00
C904   C     0.85076   0.78569   0.94807   0.00000  Uiso   1.00
C905   C     0.83584   0.74828   0.52756   0.00000  Uiso   1.00
C906   C     0.83500   0.74768   0.97293   0.00000  Uiso   1.00
C907   C     0.73479   0.74920   0.73814   0.00000  Uiso   1.00
C908   C     0.93182   0.74970   0.76209   0.00000  Uiso   1.00
C909   C     0.68043   0.74193   0.73318   0.00000  Uiso   1.00
C910   C     0.98634   0.75488   0.76838   0.00000  Uiso   1.00
C911   C     0.87361   0.54722   0.78550   0.00000  Uiso   1.00
C912   C     0.79269   0.95340   0.76509   0.00000  Uiso   1.00
C913   C     0.87453   0.59416   0.78547   0.00000  Uiso   1.00
C914   C     0.83256   0.83497   0.74966   0.00000  Uiso   1.00
C915   C     0.78978   0.90660   0.76362   0.00000  Uiso   1.00
C916   C     0.83944   0.61685   0.75130   0.00000  Uiso   1.00
C917   C     0.83148   0.88333   0.74907   0.00000  Uiso   1.00
C918   C     0.80733   0.59327   0.71630   0.00000  Uiso   1.00
C919   C     0.87360   0.90641   0.73425   0.00000  Uiso   1.00
C920   C     0.80778   0.54746   0.71571   0.00000  Uiso   1.00
C921   C     0.87553   0.95233   0.73434   0.00000  Uiso   1.00
C922   C     0.83961   0.52433   0.75069   0.00000  Uiso   1.00
C923   C     0.83588   0.97587   0.75043   0.00000  Uiso   1.00
C924   C     0.91533   0.61942   0.81858   0.00000  Uiso   1.00
C925   C     0.87960   0.76240   0.55917   0.00000  Uiso   1.00
C926   C     0.90051   0.62442   0.86958   0.00000  Uiso   1.00
C927   C     0.74161   0.88210   0.77495   0.00000  Uiso   1.00
C928   C     0.70081   0.88125   0.73094   0.00000  Uiso   1.00
C929   C     0.93199   0.77014   0.54147   0.00000  Uiso   1.00
C930   C     0.95225   0.72872   0.51985   0.00000  Uiso   1.00
C931   C     0.80809   0.66486   0.96786   0.00000  Uiso   1.00
C932   C     0.85572   0.64664   0.99789   0.00000  Uiso   1.00
C933   C     0.81783   0.71009   0.94467   0.00000  Uiso   1.00
C934   C     0.87417   0.76881   0.60888   0.00000  Uiso   1.00
C935   C     0.81073   0.71489   0.89330   0.00000  Uiso   1.00
C936   C     0.79253   0.73343   0.59952   0.00000  Uiso   1.00
C937   C     0.85308   0.78502   0.89784   0.00000  Uiso   1.00
C938   C     0.79172   0.73537   0.54888   0.00000  Uiso   1.00
Cu939  Cu    0.83333   0.74999   0.79821   0.00000  Uiso   1.00
Cu940  Cu    0.83333   0.75000   0.70178   0.00000  Uiso   1.00
H941   H     0.78109   0.61044   0.68970   0.00000  Uiso   1.00
H942   H     0.86305   0.64050   0.86829   0.00000  Uiso   1.00
H943   H     0.89788   0.59178   0.88793   0.00000  Uiso   1.00
H944   H     0.95256   0.60252   0.82050   0.00000  Uiso   1.00
H945   H     0.92298   0.65286   0.80361   0.00000  Uiso   1.00
H946   H     0.69011   0.91542   0.71915   0.00000  Uiso   1.00
H947   H     0.71522   0.86383   0.70054   0.00000  Uiso   1.00
H948   H     0.99939   0.86320   0.74034   0.00000  Uiso   1.00
H949   H     0.74962   0.84751   0.78598   0.00000  Uiso   1.00
H950   H     0.72625   0.89698   0.80628   0.00000  Uiso   1.00
H951   H     0.95117   0.70018   0.54531   0.00000  Uiso   1.00
H952   H     0.90553   0.88878   0.72328   0.00000  Uiso   1.00
H953   H     0.93017   0.72043   0.98454   0.00000  Uiso   1.00
H954   H     0.99264   0.73491   0.51341   0.00000  Uiso   1.00
H955   H     0.93144   0.79806   0.51532   0.00000  Uiso   1.00
H956   H     0.96161   0.77935   0.57161   0.00000  Uiso   1.00
H957   H     0.88863   0.64739   0.97644   0.00000  Uiso   1.00
H958   H     0.86568   0.66548   0.53176   0.00000  Uiso   1.00
H959   H     0.84813   0.61165   0.50828   0.00000  Uiso   1.00
H960   H     0.77603   0.66583   0.99001   0.00000  Uiso   1.00
H961   H     0.79678   0.63930   0.94024   0.00000  Uiso   1.00
H962   H     0.78212   0.52978   0.68865   0.00000  Uiso   1.00
H963   H     0.90850   0.96969   0.72270   0.00000  Uiso   1.00
H964   H     0.75920   0.72054   0.61465   0.00000  Uiso   1.00
H965   H     0.86858   0.81367   0.88045   0.00000  Uiso   1.00
H966   H     0.75656   0.72634   0.52649   0.00000  Uiso   1.00
H967   H     0.86180   0.81596   0.96744   0.00000  Uiso   1.00
H968   H     0.92986   0.64532   0.89144   0.00000  Uiso   1.00
I969   I     0.98537   0.69987   0.67351   0.00000  Uiso   1.00
I970   I     0.68103   0.78958   0.83403   0.00000  Uiso   1.00
I971   I     0.92234   0.51000   0.83794   0.00000  Uiso   1.00
I972   I     0.73350   0.99084   0.79123   0.00000  Uiso   1.00
I973   I     0.92132   0.82021   0.64517   0.00000  Uiso   1.00
I974   I     0.75219   0.67330   0.85457   0.00000  Uiso   1.00
N975   N     0.83333   0.75001   0.62935   0.00000  Uiso   1.00
N976   N     0.83333   0.74999   0.87065   0.00000  Uiso   1.00
O977   O     0.83334   0.68572   0.79071   0.00000  Uiso   1.00
O978   O     0.83333   0.81427   0.70928   0.00000  Uiso   1.00
O979   O     0.83334   0.68573   0.70928   0.00000  Uiso   1.00
O980   O     0.83333   0.81427   0.79072   0.00000  Uiso   1.00
O981   O     0.75828   0.75000   0.78132   0.00000  Uiso   1.00
O982   O     0.90839   0.75000   0.71868   0.00000  Uiso   1.00
O983   O     0.75828   0.75000   0.69988   0.00000  Uiso   1.00
O984   O     0.90839   0.75000   0.80011   0.00000  Uiso   1.00
loop_
_geom_bond_atom_site_label_1
_geom_bond_atom_site_label_2
_geom_bond_distance
_geom_bond_site_symmetry_2
_ccdc_geom_bond_type
C1     O77     1.294   .     A
C1     O75     1.295   .     A
C1     C14     1.461   .     S
C2     C35     1.407   .     A
C2     H65     1.081   .     S
C2     C4      1.412   .     A
C3     C23     1.420   .     A
C3     C36     1.412   .     A
C3     C496    1.518   1_554 S
C4     C31     1.420   .     A
C4     C495    1.518   .     S
C5     O79     1.282   .     A
C5     C7      1.432   .     S
C5     O81     1.295   .     A
C6     O82     1.289   .     A
C6     C8      1.428   .     S
C6     O80     1.287   .     A
C7     C172    1.353   1_455 S
C7     I231    2.150   1_455 S
C8     C89     1.353   .     S
C8     I150    2.157   .     S
C9     I69     2.145   .     S
C9     C20     1.410   .     A
C9     C11     1.415   .     A
C10    C21     1.409   .     A
C10    I70     2.147   .     S
C10    C13     1.413   .     A
C11    C14     1.422   .     A
C11    C22     1.522   .     S
C12    O78     1.294   .     A
C12    C15     1.459   .     S
C12    O76     1.294   .     A
C13    C25     1.516   .     S
C13    C15     1.419   .     A
C14    C16     1.398   .     A
C15    C17     1.397   .     A
C16    H39     1.084   .     S
C16    C18     1.382   .     A
C17    C19     1.385   .     A
C17    H50     1.082   .     S
C18    C20     1.395   .     A
C18    H60     1.084   .     S
C19    C21     1.397   .     A
C19    H61     1.084   .     S
C20    C267    1.462   1_545 S
C21    C266    1.462   .     S
C22    H43     1.110   .     S
C22    C24     1.528   .     S
C22    H42     1.110   .     S
C23    C27     1.531   .     S
C23    C32     1.424   .     A
C24    H66     1.111   .     S
C24    H41     1.108   .     S
C24    H40     1.105   .     S
C25    H47     1.102   .     S
C25    C26     1.526   .     S
C25    H48     1.109   .     S
C26    H44     1.110   .     S
C26    H45     1.111   .     S
C26    H210    1.110   1_455 S
C27    H54     1.106   .     S
C27    H53     1.105   .     S
C27    C28     1.528   .     S
C28    H49     1.110   .     S
C28    H52     1.110   .     S
C28    H543    1.107   1_554 S
C29    C30     1.528   .     S
C29    H59     1.105   .     S
C29    C31     1.531   .     S
C29    H58     1.105   .     S
C30    H55     1.110   .     S
C30    H548    1.107   .     S
C30    H549    1.111   .     S
C31    C33     1.425   .     A
C32    I71     2.144   .     S
C32    N73     1.383   .     A
C33    I72     2.154   .     S
C33    N74     1.385   .     A
C34    H62     1.081   .     S
C34    N73     1.362   .     A
C34    C36     1.408   .     A
C35    N74     1.362   .     A
C35    H63     1.081   .     S
C36    H64     1.081   .     S
Cu37   N74     2.016   .     S
Cu37   O79     1.973   .     S
Cu37   O75     1.952   .     S
Cu37   Cu38    2.684   .     S
Cu37   O82     1.969   .     S
Cu37   O78     1.947   .     S
Cu38   O76     1.952   .     S
Cu38   O81     1.969   .     S
Cu38   O77     1.947   .     S
Cu38   O80     1.973   .     S
Cu38   N73     2.016   .     S
H46    C108    1.110   .     S
H51    C520    1.107   .     S
H56    C522    1.107   1_554 S
H57    C522    1.111   1_554 S
I67    C89     2.150   .     S
I68    C172    2.157   1_455 S
C83    O159    1.294   .     A
C83    O157    1.295   .     A
C83    C96     1.461   .     S
C84    C117    1.407   .     A
C84    H147    1.081   .     S
C84    C86     1.412   .     A
C85    C105    1.420   .     A
C85    C118    1.412   .     A
C85    C578    1.518   1_554 S
C86    C113    1.420   .     A
C86    C577    1.518   .     S
C87    O161    1.282   .     A
C87    C89     1.432   .     S
C87    O163    1.295   .     A
C88    O164    1.289   .     A
C88    C90     1.428   .     S
C88    O162    1.287   .     A
C90    C171    1.353   .     S
C90    I232    2.157   .     S
C91    I151    2.145   .     S
C91    C102    1.410   .     A
C91    C93     1.415   .     A
C92    C103    1.409   .     A
C92    I152    2.147   .     S
C92    C95     1.413   .     A
C93    C96     1.422   .     A
C93    C104    1.522   .     S
C94    O160    1.294   .     A
C94    C97     1.459   .     S
C94    O158    1.294   .     A
C95    C107    1.516   .     S
C95    C97     1.419   .     A
C96    C98     1.398   .     A
C97    C99     1.397   .     A
C98    H121    1.084   .     S
C98    C100    1.382   .     A
C99    C101    1.385   .     A
C99    H132    1.082   .     S
C100   C102    1.395   .     A
C100   H142    1.084   .     S
C101   C103    1.397   .     A
C101   H143    1.084   .     S
C102   C349    1.462   1_545 S
C103   C348    1.462   .     S
C104   H125    1.110   .     S
C104   C106    1.528   .     S
C104   H124    1.110   .     S
C105   C109    1.531   .     S
C105   C114    1.424   .     A
C106   H148    1.111   .     S
C106   H123    1.108   .     S
C106   H122    1.105   .     S
C107   H129    1.102   .     S
C107   C108    1.526   .     S
C107   H130    1.109   .     S
C108   H126    1.110   .     S
C108   H127    1.111   .     S
C109   H136    1.106   .     S
C109   H135    1.105   .     S
C109   C110    1.528   .     S
C110   H131    1.110   .     S
C110   H134    1.110   .     S
C110   H625    1.107   1_554 S
C111   C112    1.528   .     S
C111   H141    1.105   .     S
C111   C113    1.531   .     S
C111   H140    1.105   .     S
C112   H137    1.110   .     S
C112   H630    1.107   .     S
C112   H631    1.111   .     S
C113   C115    1.425   .     A
C114   I153    2.144   .     S
C114   N155    1.383   .     A
C115   I154    2.154   .     S
C115   N156    1.385   .     A
C116   H144    1.081   .     S
C116   N155    1.362   .     A
C116   C118    1.408   .     A
C117   N156    1.362   .     A
C117   H145    1.081   .     S
C118   H146    1.081   .     S
Cu119  N156    2.016   .     S
Cu119  O161    1.973   .     S
Cu119  O157    1.952   .     S
Cu119  Cu120   2.684   .     S
Cu119  O164    1.969   .     S
Cu119  O160    1.947   .     S
Cu120  O158    1.952   .     S
Cu120  O163    1.969   .     S
Cu120  O159    1.947   .     S
Cu120  O162    1.973   .     S
Cu120  N155    2.016   .     S
H128   C190    1.110   .     S
H133   C602    1.107   .     S
H138   C604    1.107   1_554 S
H139   C604    1.111   1_554 S
I149   C171    2.150   .     S
C165   O241    1.294   .     A
C165   O239    1.295   .     A
C165   C178    1.461   .     S
C166   C199    1.407   .     A
C166   H229    1.081   .     S
C166   C168    1.412   .     A
C167   C187    1.420   .     A
C167   C200    1.412   .     A
C167   C660    1.518   1_554 S
C168   C195    1.420   .     A
C168   C659    1.518   .     S
C169   O243    1.282   .     A
C169   C171    1.432   .     S
C169   O245    1.295   .     A
C170   O246    1.289   .     A
C170   C172    1.428   .     S
C170   O244    1.287   .     A
C172   C7      1.353   1_655 S
C172   I68     2.157   1_655 S
C173   I233    2.145   .     S
C173   C184    1.410   .     A
C173   C175    1.415   .     A
C174   C185    1.409   .     A
C174   I234    2.147   .     S
C174   C177    1.413   .     A
C175   C178    1.422   .     A
C175   C186    1.522   .     S
C176   O242    1.294   .     A
C176   C179    1.459   .     S
C176   O240    1.294   .     A
C177   C189    1.516   .     S
C177   C179    1.419   .     A
C178   C180    1.398   .     A
C179   C181    1.397   .     A
C180   H203    1.084   .     S
C180   C182    1.382   .     A
C181   C183    1.385   .     A
C181   H214    1.082   .     S
C182   C184    1.395   .     A
C182   H224    1.084   .     S
C183   C185    1.397   .     A
C183   H225    1.084   .     S
C184   C431    1.462   1_545 S
C185   C430    1.462   .     S
C186   H207    1.110   .     S
C186   C188    1.528   .     S
C186   H206    1.110   .     S
C187   C191    1.531   .     S
C187   C196    1.424   .     A
C188   H230    1.111   .     S
C188   H205    1.108   .     S
C188   H204    1.105   .     S
C189   H211    1.102   .     S
C189   C190    1.526   .     S
C189   H212    1.109   .     S
C190   H208    1.110   .     S
C190   H209    1.111   .     S
C191   H218    1.106   .     S
C191   H217    1.105   .     S
C191   C192    1.528   .     S
C192   H213    1.110   .     S
C192   H216    1.110   .     S
C192   H707    1.107   1_554 S
C193   C194    1.528   .     S
C193   H223    1.105   .     S
C193   C195    1.531   .     S
C193   H222    1.105   .     S
C194   H219    1.110   .     S
C194   H712    1.107   .     S
C194   H713    1.111   .     S
C195   C197    1.425   .     A
C196   I235    2.144   .     S
C196   N237    1.383   .     A
C197   I236    2.154   .     S
C197   N238    1.385   .     A
C198   H226    1.081   .     S
C198   N237    1.362   .     A
C198   C200    1.408   .     A
C199   N238    1.362   .     A
C199   H227    1.081   .     S
C200   H228    1.081   .     S
Cu201  N238    2.016   .     S
Cu201  O243    1.973   .     S
Cu201  O239    1.952   .     S
Cu201  Cu202   2.684   .     S
Cu201  O246    1.969   .     S
Cu201  O242    1.947   .     S
Cu202  O240    1.952   .     S
Cu202  O245    1.969   .     S
Cu202  O241    1.947   .     S
Cu202  O244    1.973   .     S
Cu202  N237    2.016   .     S
H210   C26     1.110   1_655 S
H215   C684    1.107   .     S
H220   C686    1.107   1_554 S
H221   C686    1.111   1_554 S
I231   C7      2.150   1_655 S
C247   O323    1.294   .     A
C247   O321    1.295   .     A
C247   C260    1.461   .     S
C248   C281    1.407   .     A
C248   H311    1.081   .     S
C248   C250    1.412   .     A
C249   C269    1.420   .     A
C249   C282    1.412   .     A
C249   C742    1.518   1_554 S
C250   C277    1.420   .     A
C250   C741    1.518   .     S
C251   O325    1.282   .     A
C251   C253    1.432   .     S
C251   O327    1.295   .     A
C252   O328    1.289   .     A
C252   C254    1.428   .     S
C252   O326    1.287   .     A
C253   C418    1.353   1_455 S
C253   I477    2.150   1_455 S
C254   C335    1.353   .     S
C254   I396    2.157   .     S
C255   I315    2.145   .     S
C255   C266    1.410   .     A
C255   C257    1.415   .     A
C256   C267    1.409   .     A
C256   I316    2.147   .     S
C256   C259    1.413   .     A
C257   C260    1.422   .     A
C257   C268    1.522   .     S
C258   O324    1.294   .     A
C258   C261    1.459   .     S
C258   O322    1.294   .     A
C259   C271    1.516   .     S
C259   C261    1.419   .     A
C260   C262    1.398   .     A
C261   C263    1.397   .     A
C262   H285    1.084   .     S
C262   C264    1.382   .     A
C263   C265    1.385   .     A
C263   H296    1.082   .     S
C264   C266    1.395   .     A
C264   H306    1.084   .     S
C265   C267    1.397   .     A
C265   H307    1.084   .     S
C267   C20     1.462   1_565 S
C268   H289    1.110   .     S
C268   C270    1.528   .     S
C268   H288    1.110   .     S
C269   C273    1.531   .     S
C269   C278    1.424   .     A
C270   H312    1.111   .     S
C270   H287    1.108   .     S
C270   H286    1.105   .     S
C271   H293    1.102   .     S
C271   C272    1.526   .     S
C271   H294    1.109   .     S
C272   H290    1.110   .     S
C272   H291    1.111   .     S
C272   H456    1.110   1_455 S
C273   H300    1.106   .     S
C273   H299    1.105   .     S
C273   C274    1.528   .     S
C274   H295    1.110   .     S
C274   H298    1.110   .     S
C274   H789    1.107   1_554 S
C275   C276    1.528   .     S
C275   H305    1.105   .     S
C275   C277    1.531   .     S
C275   H304    1.105   .     S
C276   H301    1.110   .     S
C276   H794    1.107   .     S
C276   H795    1.111   .     S
C277   C279    1.425   .     A
C278   I317    2.144   .     S
C278   N319    1.383   .     A
C279   I318    2.154   .     S
C279   N320    1.385   .     A
C280   H308    1.081   .     S
C280   N319    1.362   .     A
C280   C282    1.408   .     A
C281   N320    1.362   .     A
C281   H309    1.081   .     S
C282   H310    1.081   .     S
Cu283  N320    2.016   .     S
Cu283  O325    1.973   .     S
Cu283  O321    1.952   .     S
Cu283  Cu284   2.684   .     S
Cu283  O328    1.969   .     S
Cu283  O324    1.947   .     S
Cu284  O322    1.952   .     S
Cu284  O327    1.969   .     S
Cu284  O323    1.947   .     S
Cu284  O326    1.973   .     S
Cu284  N319    2.016   .     S
H292   C354    1.110   .     S
H297   C766    1.107   .     S
H302   C768    1.107   1_554 S
H303   C768    1.111   1_554 S
I313   C335    2.150   .     S
I314   C418    2.157   1_455 S
C329   O405    1.294   .     A
C329   O403    1.295   .     A
C329   C342    1.461   .     S
C330   C363    1.407   .     A
C330   H393    1.081   .     S
C330   C332    1.412   .     A
C331   C351    1.420   .     A
C331   C364    1.412   .     A
C331   C824    1.518   1_554 S
C332   C359    1.420   .     A
C332   C823    1.518   .     S
C333   O407    1.282   .     A
C333   C335    1.432   .     S
C333   O409    1.295   .     A
C334   O410    1.289   .     A
C334   C336    1.428   .     S
C334   O408    1.287   .     A
C336   C417    1.353   .     S
C336   I478    2.157   .     S
C337   I397    2.145   .     S
C337   C348    1.410   .     A
C337   C339    1.415   .     A
C338   C349    1.409   .     A
C338   I398    2.147   .     S
C338   C341    1.413   .     A
C339   C342    1.422   .     A
C339   C350    1.522   .     S
C340   O406    1.294   .     A
C340   C343    1.459   .     S
C340   O404    1.294   .     A
C341   C353    1.516   .     S
C341   C343    1.419   .     A
C342   C344    1.398   .     A
C343   C345    1.397   .     A
C344   H367    1.084   .     S
C344   C346    1.382   .     A
C345   C347    1.385   .     A
C345   H378    1.082   .     S
C346   C348    1.395   .     A
C346   H388    1.084   .     S
C347   C349    1.397   .     A
C347   H389    1.084   .     S
C349   C102    1.462   1_565 S
C350   H371    1.110   .     S
C350   C352    1.528   .     S
C350   H370    1.110   .     S
C351   C355    1.531   .     S
C351   C360    1.424   .     A
C352   H394    1.111   .     S
C352   H369    1.108   .     S
C352   H368    1.105   .     S
C353   H375    1.102   .     S
C353   C354    1.526   .     S
C353   H376    1.109   .     S
C354   H372    1.110   .     S
C354   H373    1.111   .     S
C355   H382    1.106   .     S
C355   H381    1.105   .     S
C355   C356    1.528   .     S
C356   H377    1.110   .     S
C356   H380    1.110   .     S
C356   H871    1.107   1_554 S
C357   C358    1.528   .     S
C357   H387    1.105   .     S
C357   C359    1.531   .     S
C357   H386    1.105   .     S
C358   H383    1.110   .     S
C358   H876    1.107   .     S
C358   H877    1.111   .     S
C359   C361    1.425   .     A
C360   I399    2.144   .     S
C360   N401    1.383   .     A
C361   I400    2.154   .     S
C361   N402    1.385   .     A
C362   H390    1.081   .     S
C362   N401    1.362   .     A
C362   C364    1.408   .     A
C363   N402    1.362   .     A
C363   H391    1.081   .     S
C364   H392    1.081   .     S
Cu365  N402    2.016   .     S
Cu365  O407    1.973   .     S
Cu365  O403    1.952   .     S
Cu365  Cu366   2.684   .     S
Cu365  O410    1.969   .     S
Cu365  O406    1.947   .     S
Cu366  O404    1.952   .     S
Cu366  O409    1.969   .     S
Cu366  O405    1.947   .     S
Cu366  O408    1.973   .     S
Cu366  N401    2.016   .     S
H374   C436    1.110   .     S
H379   C848    1.107   .     S
H384   C850    1.107   1_554 S
H385   C850    1.111   1_554 S
I395   C417    2.150   .     S
C411   O487    1.294   .     A
C411   O485    1.295   .     A
C411   C424    1.461   .     S
C412   C445    1.407   .     A
C412   H475    1.081   .     S
C412   C414    1.412   .     A
C413   C433    1.420   .     A
C413   C446    1.412   .     A
C413   C906    1.518   1_554 S
C414   C441    1.420   .     A
C414   C905    1.518   .     S
C415   O489    1.282   .     A
C415   C417    1.432   .     S
C415   O491    1.295   .     A
C416   O492    1.289   .     A
C416   C418    1.428   .     S
C416   O490    1.287   .     A
C418   C253    1.353   1_655 S
C418   I314    2.157   1_655 S
C419   I479    2.145   .     S
C419   C430    1.410   .     A
C419   C421    1.415   .     A
C420   C431    1.409   .     A
C420   I480    2.147   .     S
C420   C423    1.413   .     A
C421   C424    1.422   .     A
C421   C432    1.522   .     S
C422   O488    1.294   .     A
C422   C425    1.459   .     S
C422   O486    1.294   .     A
C423   C435    1.516   .     S
C423   C425    1.419   .     A
C424   C426    1.398   .     A
C425   C427    1.397   .     A
C426   H449    1.084   .     S
C426   C428    1.382   .     A
C427   C429    1.385   .     A
C427   H460    1.082   .     S
C428   C430    1.395   .     A
C428   H470    1.084   .     S
C429   C431    1.397   .     A
C429   H471    1.084   .     S
C431   C184    1.462   1_565 S
C432   H453    1.110   .     S
C432   C434    1.528   .     S
C432   H452    1.110   .     S
C433   C437    1.531   .     S
C433   C442    1.424   .     A
C434   H476    1.111   .     S
C434   H451    1.108   .     S
C434   H450    1.105   .     S
C435   H457    1.102   .     S
C435   C436    1.526   .     S
C435   H458    1.109   .     S
C436   H454    1.110   .     S
C436   H455    1.111   .     S
C437   H464    1.106   .     S
C437   H463    1.105   .     S
C437   C438    1.528   .     S
C438   H459    1.110   .     S
C438   H462    1.110   .     S
C438   H953    1.107   1_554 S
C439   C440    1.528   .     S
C439   H469    1.105   .     S
C439   C441    1.531   .     S
C439   H468    1.105   .     S
C440   H465    1.110   .     S
C440   H958    1.107   .     S
C440   H959    1.111   .     S
C441   C443    1.425   .     A
C442   I481    2.144   .     S
C442   N483    1.383   .     A
C443   I482    2.154   .     S
C443   N484    1.385   .     A
C444   H472    1.081   .     S
C444   N483    1.362   .     A
C444   C446    1.408   .     A
C445   N484    1.362   .     A
C445   H473    1.081   .     S
C446   H474    1.081   .     S
Cu447  N484    2.016   .     S
Cu447  O489    1.973   .     S
Cu447  O485    1.952   .     S
Cu447  Cu448   2.684   .     S
Cu447  O492    1.969   .     S
Cu447  O488    1.947   .     S
Cu448  O486    1.952   .     S
Cu448  O491    1.969   .     S
Cu448  O487    1.947   .     S
Cu448  O490    1.973   .     S
Cu448  N483    2.016   .     S
H456   C272    1.110   1_655 S
H461   C930    1.107   .     S
H466   C932    1.107   1_554 S
H467   C932    1.111   1_554 S
I477   C253    2.150   1_655 S
C493   O569    1.294   .     A
C493   O567    1.295   .     A
C493   C506    1.461   .     S
C494   C527    1.407   .     A
C494   H557    1.081   .     S
C494   C496    1.412   .     A
C495   C515    1.420   .     A
C495   C528    1.412   .     A
C496   C523    1.420   .     A
C496   C3      1.518   1_556 S
C497   O571    1.282   .     A
C497   C499    1.432   .     S
C497   O573    1.295   .     A
C498   O574    1.289   .     A
C498   C500    1.428   .     S
C498   O572    1.287   .     A
C499   C664    1.353   1_455 S
C499   I723    2.150   1_455 S
C500   C581    1.353   .     S
C500   I642    2.157   .     S
C501   I561    2.145   .     S
C501   C512    1.410   .     A
C501   C503    1.415   .     A
C502   C513    1.409   .     A
C502   I562    2.147   .     S
C502   C505    1.413   .     A
C503   C506    1.422   .     A
C503   C514    1.522   .     S
C504   O570    1.294   .     A
C504   C507    1.459   .     S
C504   O568    1.294   .     A
C505   C517    1.516   .     S
C505   C507    1.419   .     A
C506   C508    1.398   .     A
C507   C509    1.397   .     A
C508   H531    1.084   .     S
C508   C510    1.382   .     A
C509   C511    1.385   .     A
C509   H542    1.082   .     S
C510   C512    1.395   .     A
C510   H552    1.084   .     S
C511   C513    1.397   .     A
C511   H553    1.084   .     S
C512   C759    1.462   1_545 S
C513   C758    1.462   .     S
C514   H535    1.110   .     S
C514   C516    1.528   .     S
C514   H534    1.110   .     S
C515   C519    1.531   .     S
C515   C524    1.424   .     A
C516   H558    1.111   .     S
C516   H533    1.108   .     S
C516   H532    1.105   .     S
C517   H539    1.102   .     S
C517   C518    1.526   .     S
C517   H540    1.109   .     S
C518   H536    1.110   .     S
C518   H537    1.111   .     S
C518   H702    1.110   1_455 S
C519   H546    1.106   .     S
C519   H545    1.105   .     S
C519   C520    1.528   .     S
C520   H541    1.110   .     S
C520   H544    1.110   .     S
C521   C522    1.528   .     S
C521   H551    1.105   .     S
C521   C523    1.531   .     S
C521   H550    1.105   .     S
C522   H547    1.110   .     S
C522   H56     1.107   1_556 S
C522   H57     1.111   1_556 S
C523   C525    1.425   .     A
C524   I563    2.144   .     S
C524   N565    1.383   .     A
C525   I564    2.154   .     S
C525   N566    1.385   .     A
C526   H554    1.081   .     S
C526   N565    1.362   .     A
C526   C528    1.408   .     A
C527   N566    1.362   .     A
C527   H555    1.081   .     S
C528   H556    1.081   .     S
Cu529  N566    2.016   .     S
Cu529  O571    1.973   .     S
Cu529  O567    1.952   .     S
Cu529  Cu530   2.684   .     S
Cu529  O574    1.969   .     S
Cu529  O570    1.947   .     S
Cu530  O568    1.952   .     S
Cu530  O573    1.969   .     S
Cu530  O569    1.947   .     S
Cu530  O572    1.973   .     S
Cu530  N565    2.016   .     S
H538   C600    1.110   .     S
H543   C28     1.107   1_556 S
I559   C581    2.150   .     S
I560   C664    2.157   1_455 S
C575   O651    1.294   .     A
C575   O649    1.295   .     A
C575   C588    1.461   .     S
C576   C609    1.407   .     A
C576   H639    1.081   .     S
C576   C578    1.412   .     A
C577   C597    1.420   .     A
C577   C610    1.412   .     A
C578   C605    1.420   .     A
C578   C85     1.518   1_556 S
C579   O653    1.282   .     A
C579   C581    1.432   .     S
C579   O655    1.295   .     A
C580   O656    1.289   .     A
C580   C582    1.428   .     S
C580   O654    1.287   .     A
C582   C663    1.353   .     S
C582   I724    2.157   .     S
C583   I643    2.145   .     S
C583   C594    1.410   .     A
C583   C585    1.415   .     A
C584   C595    1.409   .     A
C584   I644    2.147   .     S
C584   C587    1.413   .     A
C585   C588    1.422   .     A
C585   C596    1.522   .     S
C586   O652    1.294   .     A
C586   C589    1.459   .     S
C586   O650    1.294   .     A
C587   C599    1.516   .     S
C587   C589    1.419   .     A
C588   C590    1.398   .     A
C589   C591    1.397   .     A
C590   H613    1.084   .     S
C590   C592    1.382   .     A
C591   C593    1.385   .     A
C591   H624    1.082   .     S
C592   C594    1.395   .     A
C592   H634    1.084   .     S
C593   C595    1.397   .     A
C593   H635    1.084   .     S
C594   C841    1.462   1_545 S
C595   C840    1.462   .     S
C596   H617    1.110   .     S
C596   C598    1.528   .     S
C596   H616    1.110   .     S
C597   C601    1.531   .     S
C597   C606    1.424   .     A
C598   H640    1.111   .     S
C598   H615    1.108   .     S
C598   H614    1.105   .     S
C599   H621    1.102   .     S
C599   C600    1.526   .     S
C599   H622    1.109   .     S
C600   H618    1.110   .     S
C600   H619    1.111   .     S
C601   H628    1.106   .     S
C601   H627    1.105   .     S
C601   C602    1.528   .     S
C602   H623    1.110   .     S
C602   H626    1.110   .     S
C603   C604    1.528   .     S
C603   H633    1.105   .     S
C603   C605    1.531   .     S
C603   H632    1.105   .     S
C604   H629    1.110   .     S
C604   H138    1.107   1_556 S
C604   H139    1.111   1_556 S
C605   C607    1.425   .     A
C606   I645    2.144   .     S
C606   N647    1.383   .     A
C607   I646    2.154   .     S
C607   N648    1.385   .     A
C608   H636    1.081   .     S
C608   N647    1.362   .     A
C608   C610    1.408   .     A
C609   N648    1.362   .     A
C609   H637    1.081   .     S
C610   H638    1.081   .     S
Cu611  N648    2.016   .     S
Cu611  O653    1.973   .     S
Cu611  O649    1.952   .     S
Cu611  Cu612   2.684   .     S
Cu611  O656    1.969   .     S
Cu611  O652    1.947   .     S
Cu612  O650    1.952   .     S
Cu612  O655    1.969   .     S
Cu612  O651    1.947   .     S
Cu612  O654    1.973   .     S
Cu612  N647    2.016   .     S
H620   C682    1.110   .     S
H625   C110    1.107   1_556 S
I641   C663    2.150   .     S
C657   O733    1.294   .     A
C657   O731    1.295   .     A
C657   C670    1.461   .     S
C658   C691    1.407   .     A
C658   H721    1.081   .     S
C658   C660    1.412   .     A
C659   C679    1.420   .     A
C659   C692    1.412   .     A
C660   C687    1.420   .     A
C660   C167    1.518   1_556 S
C661   O735    1.282   .     A
C661   C663    1.432   .     S
C661   O737    1.295   .     A
C662   O738    1.289   .     A
C662   C664    1.428   .     S
C662   O736    1.287   .     A
C664   C499    1.353   1_655 S
C664   I560    2.157   1_655 S
C665   I725    2.145   .     S
C665   C676    1.410   .     A
C665   C667    1.415   .     A
C666   C677    1.409   .     A
C666   I726    2.147   .     S
C666   C669    1.413   .     A
C667   C670    1.422   .     A
C667   C678    1.522   .     S
C668   O734    1.294   .     A
C668   C671    1.459   .     S
C668   O732    1.294   .     A
C669   C681    1.516   .     S
C669   C671    1.419   .     A
C670   C672    1.398   .     A
C671   C673    1.397   .     A
C672   H695    1.084   .     S
C672   C674    1.382   .     A
C673   C675    1.385   .     A
C673   H706    1.082   .     S
C674   C676    1.395   .     A
C674   H716    1.084   .     S
C675   C677    1.397   .     A
C675   H717    1.084   .     S
C676   C923    1.462   1_545 S
C677   C922    1.462   .     S
C678   H699    1.110   .     S
C678   C680    1.528   .     S
C678   H698    1.110   .     S
C679   C683    1.531   .     S
C679   C688    1.424   .     A
C680   H722    1.111   .     S
C680   H697    1.108   .     S
C680   H696    1.105   .     S
C681   H703    1.102   .     S
C681   C682    1.526   .     S
C681   H704    1.109   .     S
C682   H700    1.110   .     S
C682   H701    1.111   .     S
C683   H710    1.106   .     S
C683   H709    1.105   .     S
C683   C684    1.528   .     S
C684   H705    1.110   .     S
C684   H708    1.110   .     S
C685   C686    1.528   .     S
C685   H715    1.105   .     S
C685   C687    1.531   .     S
C685   H714    1.105   .     S
C686   H711    1.110   .     S
C686   H220    1.107   1_556 S
C686   H221    1.111   1_556 S
C687   C689    1.425   .     A
C688   I727    2.144   .     S
C688   N729    1.383   .     A
C689   I728    2.154   .     S
C689   N730    1.385   .     A
C690   H718    1.081   .     S
C690   N729    1.362   .     A
C690   C692    1.408   .     A
C691   N730    1.362   .     A
C691   H719    1.081   .     S
C692   H720    1.081   .     S
Cu693  N730    2.016   .     S
Cu693  O735    1.973   .     S
Cu693  O731    1.952   .     S
Cu693  Cu694   2.684   .     S
Cu693  O738    1.969   .     S
Cu693  O734    1.947   .     S
Cu694  O732    1.952   .     S
Cu694  O737    1.969   .     S
Cu694  O733    1.947   .     S
Cu694  O736    1.973   .     S
Cu694  N729    2.016   .     S
H702   C518    1.110   1_655 S
H707   C192    1.107   1_556 S
I723   C499    2.150   1_655 S
C739   O815    1.294   .     A
C739   O813    1.295   .     A
C739   C752    1.461   .     S
C740   C773    1.407   .     A
C740   H803    1.081   .     S
C740   C742    1.412   .     A
C741   C761    1.420   .     A
C741   C774    1.412   .     A
C742   C769    1.420   .     A
C742   C249    1.518   1_556 S
C743   O817    1.282   .     A
C743   C745    1.432   .     S
C743   O819    1.295   .     A
C744   O820    1.289   .     A
C744   C746    1.428   .     S
C744   O818    1.287   .     A
C745   C910    1.353   1_455 S
C745   I969    2.150   1_455 S
C746   C827    1.353   .     S
C746   I888    2.157   .     S
C747   I807    2.145   .     S
C747   C758    1.410   .     A
C747   C749    1.415   .     A
C748   C759    1.409   .     A
C748   I808    2.147   .     S
C748   C751    1.413   .     A
C749   C752    1.422   .     A
C749   C760    1.522   .     S
C750   O816    1.294   .     A
C750   C753    1.459   .     S
C750   O814    1.294   .     A
C751   C763    1.516   .     S
C751   C753    1.419   .     A
C752   C754    1.398   .     A
C753   C755    1.397   .     A
C754   H777    1.084   .     S
C754   C756    1.382   .     A
C755   C757    1.385   .     A
C755   H788    1.082   .     S
C756   C758    1.395   .     A
C756   H798    1.084   .     S
C757   C759    1.397   .     A
C757   H799    1.084   .     S
C759   C512    1.462   1_565 S
C760   H781    1.110   .     S
C760   C762    1.528   .     S
C760   H780    1.110   .     S
C761   C765    1.531   .     S
C761   C770    1.424   .     A
C762   H804    1.111   .     S
C762   H779    1.108   .     S
C762   H778    1.105   .     S
C763   H785    1.102   .     S
C763   C764    1.526   .     S
C763   H786    1.109   .     S
C764   H782    1.110   .     S
C764   H783    1.111   .     S
C764   H948    1.110   1_455 S
C765   H792    1.106   .     S
C765   H791    1.105   .     S
C765   C766    1.528   .     S
C766   H787    1.110   .     S
C766   H790    1.110   .     S
C767   C768    1.528   .     S
C767   H797    1.105   .     S
C767   C769    1.531   .     S
C767   H796    1.105   .     S
C768   H793    1.110   .     S
C768   H302    1.107   1_556 S
C768   H303    1.111   1_556 S
C769   C771    1.425   .     A
C770   I809    2.144   .     S
C770   N811    1.383   .     A
C771   I810    2.154   .     S
C771   N812    1.385   .     A
C772   H800    1.081   .     S
C772   N811    1.362   .     A
C772   C774    1.408   .     A
C773   N812    1.362   .     A
C773   H801    1.081   .     S
C774   H802    1.081   .     S
Cu775  N812    2.016   .     S
Cu775  O817    1.973   .     S
Cu775  O813    1.952   .     S
Cu775  Cu776   2.684   .     S
Cu775  O820    1.969   .     S
Cu775  O816    1.947   .     S
Cu776  O814    1.952   .     S
Cu776  O819    1.969   .     S
Cu776  O815    1.947   .     S
Cu776  O818    1.973   .     S
Cu776  N811    2.016   .     S
H784   C846    1.110   .     S
H789   C274    1.107   1_556 S
I805   C827    2.150   .     S
I806   C910    2.157   1_455 S
C821   O897    1.294   .     A
C821   O895    1.295   .     A
C821   C834    1.461   .     S
C822   C855    1.407   .     A
C822   H885    1.081   .     S
C822   C824    1.412   .     A
C823   C843    1.420   .     A
C823   C856    1.412   .     A
C824   C851    1.420   .     A
C824   C331    1.518   1_556 S
C825   O899    1.282   .     A
C825   C827    1.432   .     S
C825   O901    1.295   .     A
C826   O902    1.289   .     A
C826   C828    1.428   .     S
C826   O900    1.287   .     A
C828   C909    1.353   .     S
C828   I970    2.157   .     S
C829   I889    2.145   .     S
C829   C840    1.410   .     A
C829   C831    1.415   .     A
C830   C841    1.409   .     A
C830   I890    2.147   .     S
C830   C833    1.413   .     A
C831   C834    1.422   .     A
C831   C842    1.522   .     S
C832   O898    1.294   .     A
C832   C835    1.459   .     S
C832   O896    1.294   .     A
C833   C845    1.516   .     S
C833   C835    1.419   .     A
C834   C836    1.398   .     A
C835   C837    1.397   .     A
C836   H859    1.084   .     S
C836   C838    1.382   .     A
C837   C839    1.385   .     A
C837   H870    1.082   .     S
C838   C840    1.395   .     A
C838   H880    1.084   .     S
C839   C841    1.397   .     A
C839   H881    1.084   .     S
C841   C594    1.462   1_565 S
C842   H863    1.110   .     S
C842   C844    1.528   .     S
C842   H862    1.110   .     S
C843   C847    1.531   .     S
C843   C852    1.424   .     A
C844   H886    1.111   .     S
C844   H861    1.108   .     S
C844   H860    1.105   .     S
C845   H867    1.102   .     S
C845   C846    1.526   .     S
C845   H868    1.109   .     S
C846   H864    1.110   .     S
C846   H865    1.111   .     S
C847   H874    1.106   .     S
C847   H873    1.105   .     S
C847   C848    1.528   .     S
C848   H869    1.110   .     S
C848   H872    1.110   .     S
C849   C850    1.528   .     S
C849   H879    1.105   .     S
C849   C851    1.531   .     S
C849   H878    1.105   .     S
C850   H875    1.110   .     S
C850   H384    1.107   1_556 S
C850   H385    1.111   1_556 S
C851   C853    1.425   .     A
C852   I891    2.144   .     S
C852   N893    1.383   .     A
C853   I892    2.154   .     S
C853   N894    1.385   .     A
C854   H882    1.081   .     S
C854   N893    1.362   .     A
C854   C856    1.408   .     A
C855   N894    1.362   .     A
C855   H883    1.081   .     S
C856   H884    1.081   .     S
Cu857  N894    2.016   .     S
Cu857  O899    1.973   .     S
Cu857  O895    1.952   .     S
Cu857  Cu858   2.684   .     S
Cu857  O902    1.969   .     S
Cu857  O898    1.947   .     S
Cu858  O896    1.952   .     S
Cu858  O901    1.969   .     S
Cu858  O897    1.947   .     S
Cu858  O900    1.973   .     S
Cu858  N893    2.016   .     S
H866   C928    1.110   .     S
H871   C356    1.107   1_556 S
I887   C909    2.150   .     S
C903   O979    1.294   .     A
C903   O977    1.295   .     A
C903   C916    1.461   .     S
C904   C937    1.407   .     A
C904   H967    1.081   .     S
C904   C906    1.412   .     A
C905   C925    1.420   .     A
C905   C938    1.412   .     A
C906   C933    1.420   .     A
C906   C413    1.518   1_556 S
C907   O981    1.282   .     A
C907   C909    1.432   .     S
C907   O983    1.295   .     A
C908   O984    1.289   .     A
C908   C910    1.428   .     S
C908   O982    1.287   .     A
C910   C745    1.353   1_655 S
C910   I806    2.157   1_655 S
C911   I971    2.145   .     S
C911   C922    1.410   .     A
C911   C913    1.415   .     A
C912   C923    1.409   .     A
C912   I972    2.147   .     S
C912   C915    1.413   .     A
C913   C916    1.422   .     A
C913   C924    1.522   .     S
C914   O980    1.294   .     A
C914   C917    1.459   .     S
C914   O978    1.294   .     A
C915   C927    1.516   .     S
C915   C917    1.419   .     A
C916   C918    1.398   .     A
C917   C919    1.397   .     A
C918   H941    1.084   .     S
C918   C920    1.382   .     A
C919   C921    1.385   .     A
C919   H952    1.082   .     S
C920   C922    1.395   .     A
C920   H962    1.084   .     S
C921   C923    1.397   .     A
C921   H963    1.084   .     S
C923   C676    1.462   1_565 S
C924   H945    1.110   .     S
C924   C926    1.528   .     S
C924   H944    1.110   .     S
C925   C929    1.531   .     S
C925   C934    1.424   .     A
C926   H968    1.111   .     S
C926   H943    1.108   .     S
C926   H942    1.105   .     S
C927   H949    1.102   .     S
C927   C928    1.526   .     S
C927   H950    1.109   .     S
C928   H946    1.110   .     S
C928   H947    1.111   .     S
C929   H956    1.106   .     S
C929   H955    1.105   .     S
C929   C930    1.528   .     S
C930   H951    1.110   .     S
C930   H954    1.110   .     S
C931   C932    1.528   .     S
C931   H961    1.105   .     S
C931   C933    1.531   .     S
C931   H960    1.105   .     S
C932   H957    1.110   .     S
C932   H466    1.107   1_556 S
C932   H467    1.111   1_556 S
C933   C935    1.425   .     A
C934   I973    2.144   .     S
C934   N975    1.383   .     A
C935   I974    2.154   .     S
C935   N976    1.385   .     A
C936   H964    1.081   .     S
C936   N975    1.362   .     A
C936   C938    1.408   .     A
C937   N976    1.362   .     A
C937   H965    1.081   .     S
C938   H966    1.081   .     S
Cu939  N976    2.016   .     S
Cu939  O981    1.973   .     S
Cu939  O977    1.952   .     S
Cu939  Cu940   2.684   .     S
Cu939  O984    1.969   .     S
Cu939  O980    1.947   .     S
Cu940  O978    1.952   .     S
Cu940  O983    1.969   .     S
Cu940  O979    1.947   .     S
Cu940  O982    1.973   .     S
Cu940  N975    2.016   .     S
H948   C764    1.110   1_655 S
H953   C438    1.107   1_556 S
I969   C745    2.150   1_655 S
