data_str_m2_o1_o2_pcu_sym.151
_audit_creation_date              2020-01-03
_audit_creation_method            'Materials Studio'
_symmetry_space_group_name_H-M    'P1'
_symmetry_Int_Tables_number       1
_symmetry_cell_setting            triclinic
loop_
_symmetry_equiv_pos_as_xyz
  x,y,z
_cell_length_a                    32.5029
_cell_length_b                    28.5501
_cell_length_c                    30.1846
_cell_angle_alpha                 90.0000
_cell_angle_beta                  90.1668
_cell_angle_gamma                 89.9999
loop_
_atom_site_label
_atom_site_type_symbol
_atom_site_fract_x
_atom_site_fract_y
_atom_site_fract_z
_atom_site_U_iso_or_equiv
_atom_site_adp_type
_atom_site_occupancy
C1     C     0.08735   0.16667   0.24997   0.00000  Uiso   1.00
C2     C     0.24598   0.16667   0.25004   0.00000  Uiso   1.00
C3     C     0.16664   0.16667   0.16498   0.00000  Uiso   1.00
C4     C     0.16670   0.16667   0.33502   0.00000  Uiso   1.00
C5     C     0.14076   0.02481   0.22280   0.00000  Uiso   1.00
C6     C     0.19257   0.30852   0.27721   0.00000  Uiso   1.00
C7     C     0.19258   0.02481   0.27720   0.00000  Uiso   1.00
C8     C     0.14076   0.30852   0.22279   0.00000  Uiso   1.00
C9     C     0.02128   0.12410   0.24998   0.00000  Uiso   1.00
C10    C     0.31205   0.20923   0.25003   0.00000  Uiso   1.00
C11    C     0.31205   0.12410   0.25002   0.00000  Uiso   1.00
C12    C     0.02128   0.20923   0.24997   0.00000  Uiso   1.00
C13    C     0.14416   0.20094   0.04750   0.00000  Uiso   1.00
C14    C     0.14414   0.13256   0.45237   0.00000  Uiso   1.00
C15    C     0.18921   0.20091   0.45250   0.00000  Uiso   1.00
C16    C     0.18916   0.13253   0.04762   0.00000  Uiso   1.00
C17    C     0.14478   0.20114   0.09361   0.00000  Uiso   1.00
C18    C     0.14480   0.13229   0.40628   0.00000  Uiso   1.00
C19    C     0.18859   0.20111   0.40639   0.00000  Uiso   1.00
C20    C     0.18850   0.13226   0.09372   0.00000  Uiso   1.00
C21    C     0.16663   0.16668   0.11676   0.00000  Uiso   1.00
C22    C     0.16670   0.16668   0.38324   0.00000  Uiso   1.00
C23    C     0.16667   0.16675   0.02427   0.00000  Uiso   1.00
C24    C     0.16666   0.16675   0.47573   0.00000  Uiso   1.00
C25    C     0.29060   0.16667   0.25004   0.00000  Uiso   1.00
C26    C     0.04274   0.16667   0.24996   0.00000  Uiso   1.00
Cu27   Cu    0.16667   0.21355   0.25000   0.00000  Uiso   1.00
Cu28   Cu    0.16667   0.11978   0.25000   0.00000  Uiso   1.00
H29    H     0.12000   0.04351   0.20101   0.00000  Uiso   1.00
H30    H     0.21332   0.28982   0.29901   0.00000  Uiso   1.00
H31    H     0.21333   0.04351   0.29899   0.00000  Uiso   1.00
H32    H     0.12002   0.28982   0.20099   0.00000  Uiso   1.00
H33    H     0.12750   0.22757   0.11138   0.00000  Uiso   1.00
H34    H     0.12750   0.10586   0.38841   0.00000  Uiso   1.00
H35    H     0.20590   0.22752   0.38861   0.00000  Uiso   1.00
H36    H     0.20578   0.10581   0.11158   0.00000  Uiso   1.00
H37    H     0.03729   0.09082   0.24995   0.00000  Uiso   1.00
H38    H     0.29604   0.24251   0.25005   0.00000  Uiso   1.00
H39    H     0.29604   0.09082   0.25005   0.00000  Uiso   1.00
H40    H     0.03729   0.24251   0.24995   0.00000  Uiso   1.00
N41    N     0.16667   0.28402   0.25000   0.00000  Uiso   1.00
N42    N     0.16667   0.04931   0.25000   0.00000  Uiso   1.00
O43    O     0.10655   0.20625   0.25000   0.00000  Uiso   1.00
O44    O     0.22679   0.12709   0.25001   0.00000  Uiso   1.00
O45    O     0.22679   0.20625   0.25001   0.00000  Uiso   1.00
O46    O     0.10655   0.12709   0.25000   0.00000  Uiso   1.00
O47    O     0.16666   0.20626   0.18573   0.00000  Uiso   1.00
O48    O     0.16667   0.12707   0.31427   0.00000  Uiso   1.00
O49    O     0.16667   0.20626   0.31427   0.00000  Uiso   1.00
O50    O     0.16666   0.12707   0.18573   0.00000  Uiso   1.00
Cl51   Cl    0.11429   0.24343   0.01986   0.00000  Uiso   1.00
Cl52   Cl    0.11420   0.09014   0.47985   0.00000  Uiso   1.00
Cl53   Cl    0.21912   0.24336   0.48014   0.00000  Uiso   1.00
Cl54   Cl    0.21905   0.09007   0.02014   0.00000  Uiso   1.00
C55    C     0.42068   0.16667   0.24997   0.00000  Uiso   1.00
C56    C     0.57932   0.16667   0.25004   0.00000  Uiso   1.00
C57    C     0.49997   0.16667   0.16498   0.00000  Uiso   1.00
C58    C     0.50003   0.16667   0.33502   0.00000  Uiso   1.00
C59    C     0.47409   0.02481   0.22280   0.00000  Uiso   1.00
C60    C     0.52591   0.30852   0.27721   0.00000  Uiso   1.00
C61    C     0.52591   0.02481   0.27720   0.00000  Uiso   1.00
C62    C     0.47410   0.30852   0.22279   0.00000  Uiso   1.00
C63    C     0.35462   0.12410   0.24998   0.00000  Uiso   1.00
C64    C     0.64538   0.20923   0.25003   0.00000  Uiso   1.00
C65    C     0.64538   0.12410   0.25002   0.00000  Uiso   1.00
C66    C     0.35462   0.20923   0.24997   0.00000  Uiso   1.00
C67    C     0.47749   0.20094   0.04750   0.00000  Uiso   1.00
C68    C     0.47747   0.13256   0.45237   0.00000  Uiso   1.00
C69    C     0.52254   0.20091   0.45250   0.00000  Uiso   1.00
C70    C     0.52249   0.13253   0.04762   0.00000  Uiso   1.00
C71    C     0.47811   0.20114   0.09361   0.00000  Uiso   1.00
C72    C     0.47813   0.13229   0.40628   0.00000  Uiso   1.00
C73    C     0.52192   0.20111   0.40639   0.00000  Uiso   1.00
C74    C     0.52183   0.13226   0.09372   0.00000  Uiso   1.00
C75    C     0.49996   0.16668   0.11676   0.00000  Uiso   1.00
C76    C     0.50004   0.16668   0.38324   0.00000  Uiso   1.00
C77    C     0.50000   0.16675   0.02427   0.00000  Uiso   1.00
C78    C     0.50000   0.16675   0.47573   0.00000  Uiso   1.00
C79    C     0.62393   0.16667   0.25004   0.00000  Uiso   1.00
C80    C     0.37607   0.16667   0.24996   0.00000  Uiso   1.00
Cu81   Cu    0.50000   0.21355   0.25000   0.00000  Uiso   1.00
Cu82   Cu    0.50000   0.11978   0.25000   0.00000  Uiso   1.00
H83    H     0.45334   0.04351   0.20101   0.00000  Uiso   1.00
H84    H     0.54665   0.28982   0.29901   0.00000  Uiso   1.00
H85    H     0.54666   0.04351   0.29899   0.00000  Uiso   1.00
H86    H     0.45335   0.28982   0.20099   0.00000  Uiso   1.00
H87    H     0.46083   0.22757   0.11138   0.00000  Uiso   1.00
H88    H     0.46083   0.10586   0.38841   0.00000  Uiso   1.00
H89    H     0.53923   0.22752   0.38861   0.00000  Uiso   1.00
H90    H     0.53911   0.10581   0.11158   0.00000  Uiso   1.00
H91    H     0.37063   0.09082   0.24995   0.00000  Uiso   1.00
H92    H     0.62938   0.24251   0.25005   0.00000  Uiso   1.00
H93    H     0.62938   0.09082   0.25005   0.00000  Uiso   1.00
H94    H     0.37062   0.24251   0.24995   0.00000  Uiso   1.00
N95    N     0.50000   0.28402   0.25000   0.00000  Uiso   1.00
N96    N     0.50000   0.04931   0.25000   0.00000  Uiso   1.00
O97    O     0.43988   0.20625   0.25000   0.00000  Uiso   1.00
O98    O     0.56012   0.12709   0.25001   0.00000  Uiso   1.00
O99    O     0.56012   0.20625   0.25001   0.00000  Uiso   1.00
O100   O     0.43988   0.12709   0.25000   0.00000  Uiso   1.00
O101   O     0.50000   0.20626   0.18573   0.00000  Uiso   1.00
O102   O     0.50000   0.12707   0.31427   0.00000  Uiso   1.00
O103   O     0.50000   0.20626   0.31427   0.00000  Uiso   1.00
O104   O     0.50000   0.12707   0.18573   0.00000  Uiso   1.00
Cl105  Cl    0.44763   0.24343   0.01986   0.00000  Uiso   1.00
Cl106  Cl    0.44754   0.09014   0.47985   0.00000  Uiso   1.00
Cl107  Cl    0.55246   0.24336   0.48014   0.00000  Uiso   1.00
Cl108  Cl    0.55239   0.09007   0.02014   0.00000  Uiso   1.00
C109   C     0.75402   0.16667   0.24997   0.00000  Uiso   1.00
C110   C     0.91265   0.16667   0.25004   0.00000  Uiso   1.00
C111   C     0.83330   0.16667   0.16498   0.00000  Uiso   1.00
C112   C     0.83336   0.16667   0.33502   0.00000  Uiso   1.00
C113   C     0.80742   0.02481   0.22280   0.00000  Uiso   1.00
C114   C     0.85924   0.30852   0.27721   0.00000  Uiso   1.00
C115   C     0.85924   0.02481   0.27720   0.00000  Uiso   1.00
C116   C     0.80743   0.30852   0.22279   0.00000  Uiso   1.00
C117   C     0.68795   0.12410   0.24998   0.00000  Uiso   1.00
C118   C     0.97872   0.20923   0.25003   0.00000  Uiso   1.00
C119   C     0.97872   0.12410   0.25002   0.00000  Uiso   1.00
C120   C     0.68795   0.20923   0.24997   0.00000  Uiso   1.00
C121   C     0.81082   0.20094   0.04750   0.00000  Uiso   1.00
C122   C     0.81081   0.13256   0.45237   0.00000  Uiso   1.00
C123   C     0.85588   0.20091   0.45250   0.00000  Uiso   1.00
C124   C     0.85583   0.13253   0.04762   0.00000  Uiso   1.00
C125   C     0.81145   0.20114   0.09361   0.00000  Uiso   1.00
C126   C     0.81147   0.13229   0.40628   0.00000  Uiso   1.00
C127   C     0.85526   0.20111   0.40639   0.00000  Uiso   1.00
C128   C     0.85517   0.13226   0.09372   0.00000  Uiso   1.00
C129   C     0.83330   0.16668   0.11676   0.00000  Uiso   1.00
C130   C     0.83337   0.16668   0.38324   0.00000  Uiso   1.00
C131   C     0.83333   0.16675   0.02427   0.00000  Uiso   1.00
C132   C     0.83333   0.16675   0.47573   0.00000  Uiso   1.00
C133   C     0.95726   0.16667   0.25004   0.00000  Uiso   1.00
C134   C     0.70940   0.16667   0.24996   0.00000  Uiso   1.00
Cu135  Cu    0.83333   0.21355   0.25000   0.00000  Uiso   1.00
Cu136  Cu    0.83333   0.11978   0.25000   0.00000  Uiso   1.00
H137   H     0.78667   0.04351   0.20101   0.00000  Uiso   1.00
H138   H     0.87998   0.28982   0.29901   0.00000  Uiso   1.00
H139   H     0.88000   0.04351   0.29899   0.00000  Uiso   1.00
H140   H     0.78668   0.28982   0.20099   0.00000  Uiso   1.00
H141   H     0.79416   0.22757   0.11138   0.00000  Uiso   1.00
H142   H     0.79416   0.10586   0.38841   0.00000  Uiso   1.00
H143   H     0.87256   0.22752   0.38861   0.00000  Uiso   1.00
H144   H     0.87244   0.10581   0.11158   0.00000  Uiso   1.00
H145   H     0.70396   0.09082   0.24995   0.00000  Uiso   1.00
H146   H     0.96271   0.24251   0.25005   0.00000  Uiso   1.00
H147   H     0.96271   0.09082   0.25005   0.00000  Uiso   1.00
H148   H     0.70396   0.24251   0.24995   0.00000  Uiso   1.00
N149   N     0.83333   0.28402   0.25000   0.00000  Uiso   1.00
N150   N     0.83333   0.04931   0.25000   0.00000  Uiso   1.00
O151   O     0.77321   0.20625   0.25000   0.00000  Uiso   1.00
O152   O     0.89345   0.12709   0.25001   0.00000  Uiso   1.00
O153   O     0.89345   0.20625   0.25001   0.00000  Uiso   1.00
O154   O     0.77321   0.12709   0.25000   0.00000  Uiso   1.00
O155   O     0.83333   0.20626   0.18573   0.00000  Uiso   1.00
O156   O     0.83334   0.12707   0.31427   0.00000  Uiso   1.00
O157   O     0.83334   0.20626   0.31427   0.00000  Uiso   1.00
O158   O     0.83333   0.12707   0.18573   0.00000  Uiso   1.00
Cl159  Cl    0.78096   0.24343   0.01986   0.00000  Uiso   1.00
Cl160  Cl    0.78087   0.09014   0.47985   0.00000  Uiso   1.00
Cl161  Cl    0.88579   0.24336   0.48014   0.00000  Uiso   1.00
Cl162  Cl    0.88572   0.09007   0.02014   0.00000  Uiso   1.00
C163   C     0.08735   0.50000   0.24997   0.00000  Uiso   1.00
C164   C     0.24598   0.50000   0.25004   0.00000  Uiso   1.00
C165   C     0.16664   0.50000   0.16498   0.00000  Uiso   1.00
C166   C     0.16670   0.50000   0.33502   0.00000  Uiso   1.00
C167   C     0.14076   0.35814   0.22280   0.00000  Uiso   1.00
C168   C     0.19257   0.64186   0.27721   0.00000  Uiso   1.00
C169   C     0.19258   0.35814   0.27720   0.00000  Uiso   1.00
C170   C     0.14076   0.64186   0.22279   0.00000  Uiso   1.00
C171   C     0.02128   0.45743   0.24998   0.00000  Uiso   1.00
C172   C     0.31205   0.54257   0.25003   0.00000  Uiso   1.00
C173   C     0.31205   0.45743   0.25002   0.00000  Uiso   1.00
C174   C     0.02128   0.54257   0.24997   0.00000  Uiso   1.00
C175   C     0.14416   0.53427   0.04750   0.00000  Uiso   1.00
C176   C     0.14414   0.46589   0.45237   0.00000  Uiso   1.00
C177   C     0.18921   0.53424   0.45250   0.00000  Uiso   1.00
C178   C     0.18916   0.46586   0.04762   0.00000  Uiso   1.00
C179   C     0.14478   0.53447   0.09361   0.00000  Uiso   1.00
C180   C     0.14480   0.46562   0.40628   0.00000  Uiso   1.00
C181   C     0.18859   0.53445   0.40639   0.00000  Uiso   1.00
C182   C     0.18850   0.46559   0.09372   0.00000  Uiso   1.00
C183   C     0.16663   0.50001   0.11676   0.00000  Uiso   1.00
C184   C     0.16670   0.50001   0.38324   0.00000  Uiso   1.00
C185   C     0.16667   0.50008   0.02427   0.00000  Uiso   1.00
C186   C     0.16666   0.50008   0.47573   0.00000  Uiso   1.00
C187   C     0.29060   0.50000   0.25004   0.00000  Uiso   1.00
C188   C     0.04274   0.50000   0.24996   0.00000  Uiso   1.00
Cu189  Cu    0.16667   0.54689   0.25000   0.00000  Uiso   1.00
Cu190  Cu    0.16667   0.45311   0.25000   0.00000  Uiso   1.00
H191   H     0.12000   0.37685   0.20101   0.00000  Uiso   1.00
H192   H     0.21332   0.62315   0.29901   0.00000  Uiso   1.00
H193   H     0.21333   0.37685   0.29899   0.00000  Uiso   1.00
H194   H     0.12002   0.62315   0.20099   0.00000  Uiso   1.00
H195   H     0.12750   0.56091   0.11138   0.00000  Uiso   1.00
H196   H     0.12750   0.43919   0.38841   0.00000  Uiso   1.00
H197   H     0.20590   0.56085   0.38861   0.00000  Uiso   1.00
H198   H     0.20578   0.43914   0.11158   0.00000  Uiso   1.00
H199   H     0.03729   0.42416   0.24995   0.00000  Uiso   1.00
H200   H     0.29604   0.57584   0.25005   0.00000  Uiso   1.00
H201   H     0.29604   0.42416   0.25005   0.00000  Uiso   1.00
H202   H     0.03729   0.57584   0.24995   0.00000  Uiso   1.00
N203   N     0.16667   0.61736   0.25000   0.00000  Uiso   1.00
N204   N     0.16667   0.38264   0.25000   0.00000  Uiso   1.00
O205   O     0.10655   0.53958   0.25000   0.00000  Uiso   1.00
O206   O     0.22679   0.46042   0.25001   0.00000  Uiso   1.00
O207   O     0.22679   0.53958   0.25001   0.00000  Uiso   1.00
O208   O     0.10655   0.46042   0.25000   0.00000  Uiso   1.00
O209   O     0.16666   0.53959   0.18573   0.00000  Uiso   1.00
O210   O     0.16667   0.46041   0.31427   0.00000  Uiso   1.00
O211   O     0.16667   0.53959   0.31427   0.00000  Uiso   1.00
O212   O     0.16666   0.46041   0.18573   0.00000  Uiso   1.00
Cl213  Cl    0.11429   0.57677   0.01986   0.00000  Uiso   1.00
Cl214  Cl    0.11420   0.42347   0.47985   0.00000  Uiso   1.00
Cl215  Cl    0.21912   0.57669   0.48014   0.00000  Uiso   1.00
Cl216  Cl    0.21905   0.42341   0.02014   0.00000  Uiso   1.00
C217   C     0.42068   0.50000   0.24997   0.00000  Uiso   1.00
C218   C     0.57932   0.50000   0.25004   0.00000  Uiso   1.00
C219   C     0.49997   0.50000   0.16498   0.00000  Uiso   1.00
C220   C     0.50003   0.50000   0.33502   0.00000  Uiso   1.00
C221   C     0.47409   0.35814   0.22280   0.00000  Uiso   1.00
C222   C     0.52591   0.64186   0.27721   0.00000  Uiso   1.00
C223   C     0.52591   0.35814   0.27720   0.00000  Uiso   1.00
C224   C     0.47410   0.64186   0.22279   0.00000  Uiso   1.00
C225   C     0.35462   0.45743   0.24998   0.00000  Uiso   1.00
C226   C     0.64538   0.54257   0.25003   0.00000  Uiso   1.00
C227   C     0.64538   0.45743   0.25002   0.00000  Uiso   1.00
C228   C     0.35462   0.54257   0.24997   0.00000  Uiso   1.00
C229   C     0.47749   0.53427   0.04750   0.00000  Uiso   1.00
C230   C     0.47747   0.46589   0.45237   0.00000  Uiso   1.00
C231   C     0.52254   0.53424   0.45250   0.00000  Uiso   1.00
C232   C     0.52249   0.46586   0.04762   0.00000  Uiso   1.00
C233   C     0.47811   0.53447   0.09361   0.00000  Uiso   1.00
C234   C     0.47813   0.46562   0.40628   0.00000  Uiso   1.00
C235   C     0.52192   0.53445   0.40639   0.00000  Uiso   1.00
C236   C     0.52183   0.46559   0.09372   0.00000  Uiso   1.00
C237   C     0.49996   0.50001   0.11676   0.00000  Uiso   1.00
C238   C     0.50004   0.50001   0.38324   0.00000  Uiso   1.00
C239   C     0.50000   0.50008   0.02427   0.00000  Uiso   1.00
C240   C     0.50000   0.50008   0.47573   0.00000  Uiso   1.00
C241   C     0.62393   0.50000   0.25004   0.00000  Uiso   1.00
C242   C     0.37607   0.50000   0.24996   0.00000  Uiso   1.00
Cu243  Cu    0.50000   0.54689   0.25000   0.00000  Uiso   1.00
Cu244  Cu    0.50000   0.45311   0.25000   0.00000  Uiso   1.00
H245   H     0.45334   0.37685   0.20101   0.00000  Uiso   1.00
H246   H     0.54665   0.62315   0.29901   0.00000  Uiso   1.00
H247   H     0.54666   0.37685   0.29899   0.00000  Uiso   1.00
H248   H     0.45335   0.62315   0.20099   0.00000  Uiso   1.00
H249   H     0.46083   0.56091   0.11138   0.00000  Uiso   1.00
H250   H     0.46083   0.43919   0.38841   0.00000  Uiso   1.00
H251   H     0.53923   0.56085   0.38861   0.00000  Uiso   1.00
H252   H     0.53911   0.43914   0.11158   0.00000  Uiso   1.00
H253   H     0.37063   0.42416   0.24995   0.00000  Uiso   1.00
H254   H     0.62938   0.57584   0.25005   0.00000  Uiso   1.00
H255   H     0.62938   0.42416   0.25005   0.00000  Uiso   1.00
H256   H     0.37062   0.57584   0.24995   0.00000  Uiso   1.00
N257   N     0.50000   0.61736   0.25000   0.00000  Uiso   1.00
N258   N     0.50000   0.38264   0.25000   0.00000  Uiso   1.00
O259   O     0.43988   0.53958   0.25000   0.00000  Uiso   1.00
O260   O     0.56012   0.46042   0.25001   0.00000  Uiso   1.00
O261   O     0.56012   0.53958   0.25001   0.00000  Uiso   1.00
O262   O     0.43988   0.46042   0.25000   0.00000  Uiso   1.00
O263   O     0.50000   0.53959   0.18573   0.00000  Uiso   1.00
O264   O     0.50000   0.46041   0.31427   0.00000  Uiso   1.00
O265   O     0.50000   0.53959   0.31427   0.00000  Uiso   1.00
O266   O     0.50000   0.46041   0.18573   0.00000  Uiso   1.00
Cl267  Cl    0.44763   0.57677   0.01986   0.00000  Uiso   1.00
Cl268  Cl    0.44754   0.42347   0.47985   0.00000  Uiso   1.00
Cl269  Cl    0.55246   0.57669   0.48014   0.00000  Uiso   1.00
Cl270  Cl    0.55239   0.42341   0.02014   0.00000  Uiso   1.00
C271   C     0.75402   0.50000   0.24997   0.00000  Uiso   1.00
C272   C     0.91265   0.50000   0.25004   0.00000  Uiso   1.00
C273   C     0.83330   0.50000   0.16498   0.00000  Uiso   1.00
C274   C     0.83336   0.50000   0.33502   0.00000  Uiso   1.00
C275   C     0.80742   0.35814   0.22280   0.00000  Uiso   1.00
C276   C     0.85924   0.64186   0.27721   0.00000  Uiso   1.00
C277   C     0.85924   0.35814   0.27720   0.00000  Uiso   1.00
C278   C     0.80743   0.64186   0.22279   0.00000  Uiso   1.00
C279   C     0.68795   0.45743   0.24998   0.00000  Uiso   1.00
C280   C     0.97872   0.54257   0.25003   0.00000  Uiso   1.00
C281   C     0.97872   0.45743   0.25002   0.00000  Uiso   1.00
C282   C     0.68795   0.54257   0.24997   0.00000  Uiso   1.00
C283   C     0.81082   0.53427   0.04750   0.00000  Uiso   1.00
C284   C     0.81081   0.46589   0.45237   0.00000  Uiso   1.00
C285   C     0.85588   0.53424   0.45250   0.00000  Uiso   1.00
C286   C     0.85583   0.46586   0.04762   0.00000  Uiso   1.00
C287   C     0.81145   0.53447   0.09361   0.00000  Uiso   1.00
C288   C     0.81147   0.46562   0.40628   0.00000  Uiso   1.00
C289   C     0.85526   0.53445   0.40639   0.00000  Uiso   1.00
C290   C     0.85517   0.46559   0.09372   0.00000  Uiso   1.00
C291   C     0.83330   0.50001   0.11676   0.00000  Uiso   1.00
C292   C     0.83337   0.50001   0.38324   0.00000  Uiso   1.00
C293   C     0.83333   0.50008   0.02427   0.00000  Uiso   1.00
C294   C     0.83333   0.50008   0.47573   0.00000  Uiso   1.00
C295   C     0.95726   0.50000   0.25004   0.00000  Uiso   1.00
C296   C     0.70940   0.50000   0.24996   0.00000  Uiso   1.00
Cu297  Cu    0.83333   0.54689   0.25000   0.00000  Uiso   1.00
Cu298  Cu    0.83333   0.45311   0.25000   0.00000  Uiso   1.00
H299   H     0.78667   0.37685   0.20101   0.00000  Uiso   1.00
H300   H     0.87998   0.62315   0.29901   0.00000  Uiso   1.00
H301   H     0.88000   0.37685   0.29899   0.00000  Uiso   1.00
H302   H     0.78668   0.62315   0.20099   0.00000  Uiso   1.00
H303   H     0.79416   0.56091   0.11138   0.00000  Uiso   1.00
H304   H     0.79416   0.43919   0.38841   0.00000  Uiso   1.00
H305   H     0.87256   0.56085   0.38861   0.00000  Uiso   1.00
H306   H     0.87244   0.43914   0.11158   0.00000  Uiso   1.00
H307   H     0.70396   0.42416   0.24995   0.00000  Uiso   1.00
H308   H     0.96271   0.57584   0.25005   0.00000  Uiso   1.00
H309   H     0.96271   0.42416   0.25005   0.00000  Uiso   1.00
H310   H     0.70396   0.57584   0.24995   0.00000  Uiso   1.00
N311   N     0.83333   0.61736   0.25000   0.00000  Uiso   1.00
N312   N     0.83333   0.38264   0.25000   0.00000  Uiso   1.00
O313   O     0.77321   0.53958   0.25000   0.00000  Uiso   1.00
O314   O     0.89345   0.46042   0.25001   0.00000  Uiso   1.00
O315   O     0.89345   0.53958   0.25001   0.00000  Uiso   1.00
O316   O     0.77321   0.46042   0.25000   0.00000  Uiso   1.00
O317   O     0.83333   0.53959   0.18573   0.00000  Uiso   1.00
O318   O     0.83334   0.46041   0.31427   0.00000  Uiso   1.00
O319   O     0.83334   0.53959   0.31427   0.00000  Uiso   1.00
O320   O     0.83333   0.46041   0.18573   0.00000  Uiso   1.00
Cl321  Cl    0.78096   0.57677   0.01986   0.00000  Uiso   1.00
Cl322  Cl    0.78087   0.42347   0.47985   0.00000  Uiso   1.00
Cl323  Cl    0.88579   0.57669   0.48014   0.00000  Uiso   1.00
Cl324  Cl    0.88572   0.42341   0.02014   0.00000  Uiso   1.00
C325   C     0.08735   0.83333   0.24997   0.00000  Uiso   1.00
C326   C     0.24598   0.83333   0.25004   0.00000  Uiso   1.00
C327   C     0.16664   0.83334   0.16498   0.00000  Uiso   1.00
C328   C     0.16670   0.83334   0.33502   0.00000  Uiso   1.00
C329   C     0.14076   0.69147   0.22280   0.00000  Uiso   1.00
C330   C     0.19257   0.97519   0.27721   0.00000  Uiso   1.00
C331   C     0.19258   0.69147   0.27720   0.00000  Uiso   1.00
C332   C     0.14076   0.97519   0.22279   0.00000  Uiso   1.00
C333   C     0.02128   0.79077   0.24998   0.00000  Uiso   1.00
C334   C     0.31205   0.87590   0.25003   0.00000  Uiso   1.00
C335   C     0.31205   0.79077   0.25002   0.00000  Uiso   1.00
C336   C     0.02128   0.87590   0.24997   0.00000  Uiso   1.00
C337   C     0.14416   0.86760   0.04750   0.00000  Uiso   1.00
C338   C     0.14414   0.79923   0.45237   0.00000  Uiso   1.00
C339   C     0.18921   0.86757   0.45250   0.00000  Uiso   1.00
C340   C     0.18916   0.79920   0.04762   0.00000  Uiso   1.00
C341   C     0.14478   0.86781   0.09361   0.00000  Uiso   1.00
C342   C     0.14480   0.79895   0.40628   0.00000  Uiso   1.00
C343   C     0.18859   0.86778   0.40639   0.00000  Uiso   1.00
C344   C     0.18850   0.79892   0.09372   0.00000  Uiso   1.00
C345   C     0.16663   0.83335   0.11676   0.00000  Uiso   1.00
C346   C     0.16670   0.83335   0.38324   0.00000  Uiso   1.00
C347   C     0.16667   0.83341   0.02427   0.00000  Uiso   1.00
C348   C     0.16666   0.83341   0.47573   0.00000  Uiso   1.00
C349   C     0.29060   0.83333   0.25004   0.00000  Uiso   1.00
C350   C     0.04274   0.83333   0.24996   0.00000  Uiso   1.00
Cu351  Cu    0.16667   0.88022   0.25000   0.00000  Uiso   1.00
Cu352  Cu    0.16667   0.78645   0.25000   0.00000  Uiso   1.00
H353   H     0.12000   0.71018   0.20101   0.00000  Uiso   1.00
H354   H     0.21332   0.95648   0.29901   0.00000  Uiso   1.00
H355   H     0.21333   0.71018   0.29899   0.00000  Uiso   1.00
H356   H     0.12002   0.95648   0.20099   0.00000  Uiso   1.00
H357   H     0.12750   0.89424   0.11138   0.00000  Uiso   1.00
H358   H     0.12750   0.77253   0.38841   0.00000  Uiso   1.00
H359   H     0.20590   0.89419   0.38861   0.00000  Uiso   1.00
H360   H     0.20578   0.77248   0.11158   0.00000  Uiso   1.00
H361   H     0.03729   0.75749   0.24995   0.00000  Uiso   1.00
H362   H     0.29604   0.90918   0.25005   0.00000  Uiso   1.00
H363   H     0.29604   0.75749   0.25005   0.00000  Uiso   1.00
H364   H     0.03729   0.90918   0.24995   0.00000  Uiso   1.00
N365   N     0.16667   0.95069   0.25000   0.00000  Uiso   1.00
N366   N     0.16667   0.71598   0.25000   0.00000  Uiso   1.00
O367   O     0.10655   0.87291   0.25000   0.00000  Uiso   1.00
O368   O     0.22679   0.79375   0.25001   0.00000  Uiso   1.00
O369   O     0.22679   0.87291   0.25001   0.00000  Uiso   1.00
O370   O     0.10655   0.79375   0.25000   0.00000  Uiso   1.00
O371   O     0.16666   0.87293   0.18573   0.00000  Uiso   1.00
O372   O     0.16667   0.79374   0.31427   0.00000  Uiso   1.00
O373   O     0.16667   0.87293   0.31427   0.00000  Uiso   1.00
O374   O     0.16666   0.79374   0.18573   0.00000  Uiso   1.00
Cl375  Cl    0.11429   0.91010   0.01986   0.00000  Uiso   1.00
Cl376  Cl    0.11420   0.75681   0.47985   0.00000  Uiso   1.00
Cl377  Cl    0.21912   0.91002   0.48014   0.00000  Uiso   1.00
Cl378  Cl    0.21905   0.75674   0.02014   0.00000  Uiso   1.00
C379   C     0.42068   0.83333   0.24997   0.00000  Uiso   1.00
C380   C     0.57932   0.83333   0.25004   0.00000  Uiso   1.00
C381   C     0.49997   0.83334   0.16498   0.00000  Uiso   1.00
C382   C     0.50003   0.83334   0.33502   0.00000  Uiso   1.00
C383   C     0.47409   0.69147   0.22280   0.00000  Uiso   1.00
C384   C     0.52591   0.97519   0.27721   0.00000  Uiso   1.00
C385   C     0.52591   0.69147   0.27720   0.00000  Uiso   1.00
C386   C     0.47410   0.97519   0.22279   0.00000  Uiso   1.00
C387   C     0.35462   0.79077   0.24998   0.00000  Uiso   1.00
C388   C     0.64538   0.87590   0.25003   0.00000  Uiso   1.00
C389   C     0.64538   0.79077   0.25002   0.00000  Uiso   1.00
C390   C     0.35462   0.87590   0.24997   0.00000  Uiso   1.00
C391   C     0.47749   0.86760   0.04750   0.00000  Uiso   1.00
C392   C     0.47747   0.79923   0.45237   0.00000  Uiso   1.00
C393   C     0.52254   0.86757   0.45250   0.00000  Uiso   1.00
C394   C     0.52249   0.79920   0.04762   0.00000  Uiso   1.00
C395   C     0.47811   0.86781   0.09361   0.00000  Uiso   1.00
C396   C     0.47813   0.79895   0.40628   0.00000  Uiso   1.00
C397   C     0.52192   0.86778   0.40639   0.00000  Uiso   1.00
C398   C     0.52183   0.79892   0.09372   0.00000  Uiso   1.00
C399   C     0.49996   0.83335   0.11676   0.00000  Uiso   1.00
C400   C     0.50004   0.83335   0.38324   0.00000  Uiso   1.00
C401   C     0.50000   0.83341   0.02427   0.00000  Uiso   1.00
C402   C     0.50000   0.83341   0.47573   0.00000  Uiso   1.00
C403   C     0.62393   0.83333   0.25004   0.00000  Uiso   1.00
C404   C     0.37607   0.83333   0.24996   0.00000  Uiso   1.00
Cu405  Cu    0.50000   0.88022   0.25000   0.00000  Uiso   1.00
Cu406  Cu    0.50000   0.78645   0.25000   0.00000  Uiso   1.00
H407   H     0.45334   0.71018   0.20101   0.00000  Uiso   1.00
H408   H     0.54665   0.95648   0.29901   0.00000  Uiso   1.00
H409   H     0.54666   0.71018   0.29899   0.00000  Uiso   1.00
H410   H     0.45335   0.95648   0.20099   0.00000  Uiso   1.00
H411   H     0.46083   0.89424   0.11138   0.00000  Uiso   1.00
H412   H     0.46083   0.77253   0.38841   0.00000  Uiso   1.00
H413   H     0.53923   0.89419   0.38861   0.00000  Uiso   1.00
H414   H     0.53911   0.77248   0.11158   0.00000  Uiso   1.00
H415   H     0.37063   0.75749   0.24995   0.00000  Uiso   1.00
H416   H     0.62938   0.90918   0.25005   0.00000  Uiso   1.00
H417   H     0.62938   0.75749   0.25005   0.00000  Uiso   1.00
H418   H     0.37062   0.90918   0.24995   0.00000  Uiso   1.00
N419   N     0.50000   0.95069   0.25000   0.00000  Uiso   1.00
N420   N     0.50000   0.71598   0.25000   0.00000  Uiso   1.00
O421   O     0.43988   0.87291   0.25000   0.00000  Uiso   1.00
O422   O     0.56012   0.79375   0.25001   0.00000  Uiso   1.00
O423   O     0.56012   0.87291   0.25001   0.00000  Uiso   1.00
O424   O     0.43988   0.79375   0.25000   0.00000  Uiso   1.00
O425   O     0.50000   0.87293   0.18573   0.00000  Uiso   1.00
O426   O     0.50000   0.79374   0.31427   0.00000  Uiso   1.00
O427   O     0.50000   0.87293   0.31427   0.00000  Uiso   1.00
O428   O     0.50000   0.79374   0.18573   0.00000  Uiso   1.00
Cl429  Cl    0.44763   0.91010   0.01986   0.00000  Uiso   1.00
Cl430  Cl    0.44754   0.75681   0.47985   0.00000  Uiso   1.00
Cl431  Cl    0.55246   0.91002   0.48014   0.00000  Uiso   1.00
Cl432  Cl    0.55239   0.75674   0.02014   0.00000  Uiso   1.00
C433   C     0.75402   0.83333   0.24997   0.00000  Uiso   1.00
C434   C     0.91265   0.83333   0.25004   0.00000  Uiso   1.00
C435   C     0.83330   0.83334   0.16498   0.00000  Uiso   1.00
C436   C     0.83336   0.83334   0.33502   0.00000  Uiso   1.00
C437   C     0.80742   0.69147   0.22280   0.00000  Uiso   1.00
C438   C     0.85924   0.97519   0.27721   0.00000  Uiso   1.00
C439   C     0.85924   0.69147   0.27720   0.00000  Uiso   1.00
C440   C     0.80743   0.97519   0.22279   0.00000  Uiso   1.00
C441   C     0.68795   0.79077   0.24998   0.00000  Uiso   1.00
C442   C     0.97872   0.87590   0.25003   0.00000  Uiso   1.00
C443   C     0.97872   0.79077   0.25002   0.00000  Uiso   1.00
C444   C     0.68795   0.87590   0.24997   0.00000  Uiso   1.00
C445   C     0.81082   0.86760   0.04750   0.00000  Uiso   1.00
C446   C     0.81081   0.79923   0.45237   0.00000  Uiso   1.00
C447   C     0.85588   0.86757   0.45250   0.00000  Uiso   1.00
C448   C     0.85583   0.79920   0.04762   0.00000  Uiso   1.00
C449   C     0.81145   0.86781   0.09361   0.00000  Uiso   1.00
C450   C     0.81147   0.79895   0.40628   0.00000  Uiso   1.00
C451   C     0.85526   0.86778   0.40639   0.00000  Uiso   1.00
C452   C     0.85517   0.79892   0.09372   0.00000  Uiso   1.00
C453   C     0.83330   0.83335   0.11676   0.00000  Uiso   1.00
C454   C     0.83337   0.83335   0.38324   0.00000  Uiso   1.00
C455   C     0.83333   0.83341   0.02427   0.00000  Uiso   1.00
C456   C     0.83333   0.83341   0.47573   0.00000  Uiso   1.00
C457   C     0.95726   0.83333   0.25004   0.00000  Uiso   1.00
C458   C     0.70940   0.83333   0.24996   0.00000  Uiso   1.00
Cu459  Cu    0.83333   0.88022   0.25000   0.00000  Uiso   1.00
Cu460  Cu    0.83333   0.78645   0.25000   0.00000  Uiso   1.00
H461   H     0.78667   0.71018   0.20101   0.00000  Uiso   1.00
H462   H     0.87998   0.95648   0.29901   0.00000  Uiso   1.00
H463   H     0.88000   0.71018   0.29899   0.00000  Uiso   1.00
H464   H     0.78668   0.95648   0.20099   0.00000  Uiso   1.00
H465   H     0.79416   0.89424   0.11138   0.00000  Uiso   1.00
H466   H     0.79416   0.77253   0.38841   0.00000  Uiso   1.00
H467   H     0.87256   0.89419   0.38861   0.00000  Uiso   1.00
H468   H     0.87244   0.77248   0.11158   0.00000  Uiso   1.00
H469   H     0.70396   0.75749   0.24995   0.00000  Uiso   1.00
H470   H     0.96271   0.90918   0.25005   0.00000  Uiso   1.00
H471   H     0.96271   0.75749   0.25005   0.00000  Uiso   1.00
H472   H     0.70396   0.90918   0.24995   0.00000  Uiso   1.00
N473   N     0.83333   0.95069   0.25000   0.00000  Uiso   1.00
N474   N     0.83333   0.71598   0.25000   0.00000  Uiso   1.00
O475   O     0.77321   0.87291   0.25000   0.00000  Uiso   1.00
O476   O     0.89345   0.79375   0.25001   0.00000  Uiso   1.00
O477   O     0.89345   0.87291   0.25001   0.00000  Uiso   1.00
O478   O     0.77321   0.79375   0.25000   0.00000  Uiso   1.00
O479   O     0.83333   0.87293   0.18573   0.00000  Uiso   1.00
O480   O     0.83334   0.79374   0.31427   0.00000  Uiso   1.00
O481   O     0.83334   0.87293   0.31427   0.00000  Uiso   1.00
O482   O     0.83333   0.79374   0.18573   0.00000  Uiso   1.00
Cl483  Cl    0.78096   0.91010   0.01986   0.00000  Uiso   1.00
Cl484  Cl    0.78087   0.75681   0.47985   0.00000  Uiso   1.00
Cl485  Cl    0.88579   0.91002   0.48014   0.00000  Uiso   1.00
Cl486  Cl    0.88572   0.75674   0.02014   0.00000  Uiso   1.00
C487   C     0.08735   0.16667   0.74997   0.00000  Uiso   1.00
C488   C     0.24598   0.16667   0.75004   0.00000  Uiso   1.00
C489   C     0.16664   0.16667   0.66498   0.00000  Uiso   1.00
C490   C     0.16670   0.16667   0.83502   0.00000  Uiso   1.00
C491   C     0.14076   0.02481   0.72280   0.00000  Uiso   1.00
C492   C     0.19257   0.30852   0.77721   0.00000  Uiso   1.00
C493   C     0.19258   0.02481   0.77720   0.00000  Uiso   1.00
C494   C     0.14076   0.30852   0.72279   0.00000  Uiso   1.00
C495   C     0.02128   0.12410   0.74998   0.00000  Uiso   1.00
C496   C     0.31205   0.20923   0.75003   0.00000  Uiso   1.00
C497   C     0.31205   0.12410   0.75002   0.00000  Uiso   1.00
C498   C     0.02128   0.20923   0.74997   0.00000  Uiso   1.00
C499   C     0.14416   0.20094   0.54750   0.00000  Uiso   1.00
C500   C     0.14414   0.13256   0.95237   0.00000  Uiso   1.00
C501   C     0.18921   0.20091   0.95250   0.00000  Uiso   1.00
C502   C     0.18916   0.13253   0.54762   0.00000  Uiso   1.00
C503   C     0.14478   0.20114   0.59361   0.00000  Uiso   1.00
C504   C     0.14480   0.13229   0.90628   0.00000  Uiso   1.00
C505   C     0.18859   0.20111   0.90639   0.00000  Uiso   1.00
C506   C     0.18850   0.13226   0.59372   0.00000  Uiso   1.00
C507   C     0.16663   0.16668   0.61676   0.00000  Uiso   1.00
C508   C     0.16670   0.16668   0.88324   0.00000  Uiso   1.00
C509   C     0.16667   0.16675   0.52427   0.00000  Uiso   1.00
C510   C     0.16666   0.16675   0.97573   0.00000  Uiso   1.00
C511   C     0.29060   0.16667   0.75004   0.00000  Uiso   1.00
C512   C     0.04274   0.16667   0.74996   0.00000  Uiso   1.00
Cu513  Cu    0.16667   0.21355   0.75000   0.00000  Uiso   1.00
Cu514  Cu    0.16667   0.11978   0.75000   0.00000  Uiso   1.00
H515   H     0.12000   0.04351   0.70101   0.00000  Uiso   1.00
H516   H     0.21332   0.28982   0.79901   0.00000  Uiso   1.00
H517   H     0.21333   0.04351   0.79899   0.00000  Uiso   1.00
H518   H     0.12002   0.28982   0.70099   0.00000  Uiso   1.00
H519   H     0.12750   0.22757   0.61138   0.00000  Uiso   1.00
H520   H     0.12750   0.10586   0.88841   0.00000  Uiso   1.00
H521   H     0.20590   0.22752   0.88861   0.00000  Uiso   1.00
H522   H     0.20578   0.10581   0.61158   0.00000  Uiso   1.00
H523   H     0.03729   0.09082   0.74995   0.00000  Uiso   1.00
H524   H     0.29604   0.24251   0.75005   0.00000  Uiso   1.00
H525   H     0.29604   0.09082   0.75005   0.00000  Uiso   1.00
H526   H     0.03729   0.24251   0.74995   0.00000  Uiso   1.00
N527   N     0.16667   0.28402   0.75000   0.00000  Uiso   1.00
N528   N     0.16667   0.04931   0.75000   0.00000  Uiso   1.00
O529   O     0.10655   0.20625   0.75000   0.00000  Uiso   1.00
O530   O     0.22679   0.12709   0.75001   0.00000  Uiso   1.00
O531   O     0.22679   0.20625   0.75001   0.00000  Uiso   1.00
O532   O     0.10655   0.12709   0.75000   0.00000  Uiso   1.00
O533   O     0.16666   0.20626   0.68573   0.00000  Uiso   1.00
O534   O     0.16667   0.12707   0.81427   0.00000  Uiso   1.00
O535   O     0.16667   0.20626   0.81427   0.00000  Uiso   1.00
O536   O     0.16666   0.12707   0.68573   0.00000  Uiso   1.00
Cl537  Cl    0.11429   0.24343   0.51986   0.00000  Uiso   1.00
Cl538  Cl    0.11420   0.09014   0.97985   0.00000  Uiso   1.00
Cl539  Cl    0.21912   0.24336   0.98014   0.00000  Uiso   1.00
Cl540  Cl    0.21905   0.09007   0.52014   0.00000  Uiso   1.00
C541   C     0.42068   0.16667   0.74997   0.00000  Uiso   1.00
C542   C     0.57932   0.16667   0.75004   0.00000  Uiso   1.00
C543   C     0.49997   0.16667   0.66498   0.00000  Uiso   1.00
C544   C     0.50003   0.16667   0.83502   0.00000  Uiso   1.00
C545   C     0.47409   0.02481   0.72280   0.00000  Uiso   1.00
C546   C     0.52591   0.30852   0.77721   0.00000  Uiso   1.00
C547   C     0.52591   0.02481   0.77720   0.00000  Uiso   1.00
C548   C     0.47410   0.30852   0.72279   0.00000  Uiso   1.00
C549   C     0.35462   0.12410   0.74998   0.00000  Uiso   1.00
C550   C     0.64538   0.20923   0.75003   0.00000  Uiso   1.00
C551   C     0.64538   0.12410   0.75002   0.00000  Uiso   1.00
C552   C     0.35462   0.20923   0.74997   0.00000  Uiso   1.00
C553   C     0.47749   0.20094   0.54750   0.00000  Uiso   1.00
C554   C     0.47747   0.13256   0.95237   0.00000  Uiso   1.00
C555   C     0.52254   0.20091   0.95250   0.00000  Uiso   1.00
C556   C     0.52249   0.13253   0.54762   0.00000  Uiso   1.00
C557   C     0.47811   0.20114   0.59361   0.00000  Uiso   1.00
C558   C     0.47813   0.13229   0.90628   0.00000  Uiso   1.00
C559   C     0.52192   0.20111   0.90639   0.00000  Uiso   1.00
C560   C     0.52183   0.13226   0.59372   0.00000  Uiso   1.00
C561   C     0.49996   0.16668   0.61676   0.00000  Uiso   1.00
C562   C     0.50004   0.16668   0.88324   0.00000  Uiso   1.00
C563   C     0.50000   0.16675   0.52427   0.00000  Uiso   1.00
C564   C     0.50000   0.16675   0.97573   0.00000  Uiso   1.00
C565   C     0.62393   0.16667   0.75004   0.00000  Uiso   1.00
C566   C     0.37607   0.16667   0.74996   0.00000  Uiso   1.00
Cu567  Cu    0.50000   0.21355   0.75000   0.00000  Uiso   1.00
Cu568  Cu    0.50000   0.11978   0.75000   0.00000  Uiso   1.00
H569   H     0.45334   0.04351   0.70101   0.00000  Uiso   1.00
H570   H     0.54665   0.28982   0.79901   0.00000  Uiso   1.00
H571   H     0.54666   0.04351   0.79899   0.00000  Uiso   1.00
H572   H     0.45335   0.28982   0.70099   0.00000  Uiso   1.00
H573   H     0.46083   0.22757   0.61138   0.00000  Uiso   1.00
H574   H     0.46083   0.10586   0.88841   0.00000  Uiso   1.00
H575   H     0.53923   0.22752   0.88861   0.00000  Uiso   1.00
H576   H     0.53911   0.10581   0.61158   0.00000  Uiso   1.00
H577   H     0.37063   0.09082   0.74995   0.00000  Uiso   1.00
H578   H     0.62938   0.24251   0.75005   0.00000  Uiso   1.00
H579   H     0.62938   0.09082   0.75005   0.00000  Uiso   1.00
H580   H     0.37062   0.24251   0.74995   0.00000  Uiso   1.00
N581   N     0.50000   0.28402   0.75000   0.00000  Uiso   1.00
N582   N     0.50000   0.04931   0.75000   0.00000  Uiso   1.00
O583   O     0.43988   0.20625   0.75000   0.00000  Uiso   1.00
O584   O     0.56012   0.12709   0.75001   0.00000  Uiso   1.00
O585   O     0.56012   0.20625   0.75001   0.00000  Uiso   1.00
O586   O     0.43988   0.12709   0.75000   0.00000  Uiso   1.00
O587   O     0.50000   0.20626   0.68573   0.00000  Uiso   1.00
O588   O     0.50000   0.12707   0.81427   0.00000  Uiso   1.00
O589   O     0.50000   0.20626   0.81427   0.00000  Uiso   1.00
O590   O     0.50000   0.12707   0.68573   0.00000  Uiso   1.00
Cl591  Cl    0.44763   0.24343   0.51986   0.00000  Uiso   1.00
Cl592  Cl    0.44754   0.09014   0.97985   0.00000  Uiso   1.00
Cl593  Cl    0.55246   0.24336   0.98014   0.00000  Uiso   1.00
Cl594  Cl    0.55239   0.09007   0.52014   0.00000  Uiso   1.00
C595   C     0.75402   0.16667   0.74997   0.00000  Uiso   1.00
C596   C     0.91265   0.16667   0.75004   0.00000  Uiso   1.00
C597   C     0.83330   0.16667   0.66498   0.00000  Uiso   1.00
C598   C     0.83336   0.16667   0.83502   0.00000  Uiso   1.00
C599   C     0.80742   0.02481   0.72280   0.00000  Uiso   1.00
C600   C     0.85924   0.30852   0.77721   0.00000  Uiso   1.00
C601   C     0.85924   0.02481   0.77720   0.00000  Uiso   1.00
C602   C     0.80743   0.30852   0.72279   0.00000  Uiso   1.00
C603   C     0.68795   0.12410   0.74998   0.00000  Uiso   1.00
C604   C     0.97872   0.20923   0.75003   0.00000  Uiso   1.00
C605   C     0.97872   0.12410   0.75002   0.00000  Uiso   1.00
C606   C     0.68795   0.20923   0.74997   0.00000  Uiso   1.00
C607   C     0.81082   0.20094   0.54750   0.00000  Uiso   1.00
C608   C     0.81081   0.13256   0.95237   0.00000  Uiso   1.00
C609   C     0.85588   0.20091   0.95250   0.00000  Uiso   1.00
C610   C     0.85583   0.13253   0.54762   0.00000  Uiso   1.00
C611   C     0.81145   0.20114   0.59361   0.00000  Uiso   1.00
C612   C     0.81147   0.13229   0.90628   0.00000  Uiso   1.00
C613   C     0.85526   0.20111   0.90639   0.00000  Uiso   1.00
C614   C     0.85517   0.13226   0.59372   0.00000  Uiso   1.00
C615   C     0.83330   0.16668   0.61676   0.00000  Uiso   1.00
C616   C     0.83337   0.16668   0.88324   0.00000  Uiso   1.00
C617   C     0.83333   0.16675   0.52427   0.00000  Uiso   1.00
C618   C     0.83333   0.16675   0.97573   0.00000  Uiso   1.00
C619   C     0.95726   0.16667   0.75004   0.00000  Uiso   1.00
C620   C     0.70940   0.16667   0.74996   0.00000  Uiso   1.00
Cu621  Cu    0.83333   0.21355   0.75000   0.00000  Uiso   1.00
Cu622  Cu    0.83333   0.11978   0.75000   0.00000  Uiso   1.00
H623   H     0.78667   0.04351   0.70101   0.00000  Uiso   1.00
H624   H     0.87998   0.28982   0.79901   0.00000  Uiso   1.00
H625   H     0.88000   0.04351   0.79899   0.00000  Uiso   1.00
H626   H     0.78668   0.28982   0.70099   0.00000  Uiso   1.00
H627   H     0.79416   0.22757   0.61138   0.00000  Uiso   1.00
H628   H     0.79416   0.10586   0.88841   0.00000  Uiso   1.00
H629   H     0.87256   0.22752   0.88861   0.00000  Uiso   1.00
H630   H     0.87244   0.10581   0.61158   0.00000  Uiso   1.00
H631   H     0.70396   0.09082   0.74995   0.00000  Uiso   1.00
H632   H     0.96271   0.24251   0.75005   0.00000  Uiso   1.00
H633   H     0.96271   0.09082   0.75005   0.00000  Uiso   1.00
H634   H     0.70396   0.24251   0.74995   0.00000  Uiso   1.00
N635   N     0.83333   0.28402   0.75000   0.00000  Uiso   1.00
N636   N     0.83333   0.04931   0.75000   0.00000  Uiso   1.00
O637   O     0.77321   0.20625   0.75000   0.00000  Uiso   1.00
O638   O     0.89345   0.12709   0.75001   0.00000  Uiso   1.00
O639   O     0.89345   0.20625   0.75001   0.00000  Uiso   1.00
O640   O     0.77321   0.12709   0.75000   0.00000  Uiso   1.00
O641   O     0.83333   0.20626   0.68573   0.00000  Uiso   1.00
O642   O     0.83334   0.12707   0.81427   0.00000  Uiso   1.00
O643   O     0.83334   0.20626   0.81427   0.00000  Uiso   1.00
O644   O     0.83333   0.12707   0.68573   0.00000  Uiso   1.00
Cl645  Cl    0.78096   0.24343   0.51986   0.00000  Uiso   1.00
Cl646  Cl    0.78087   0.09014   0.97985   0.00000  Uiso   1.00
Cl647  Cl    0.88579   0.24336   0.98014   0.00000  Uiso   1.00
Cl648  Cl    0.88572   0.09007   0.52014   0.00000  Uiso   1.00
C649   C     0.08735   0.50000   0.74997   0.00000  Uiso   1.00
C650   C     0.24598   0.50000   0.75004   0.00000  Uiso   1.00
C651   C     0.16664   0.50000   0.66498   0.00000  Uiso   1.00
C652   C     0.16670   0.50000   0.83502   0.00000  Uiso   1.00
C653   C     0.14076   0.35814   0.72280   0.00000  Uiso   1.00
C654   C     0.19257   0.64186   0.77721   0.00000  Uiso   1.00
C655   C     0.19258   0.35814   0.77720   0.00000  Uiso   1.00
C656   C     0.14076   0.64186   0.72279   0.00000  Uiso   1.00
C657   C     0.02128   0.45743   0.74998   0.00000  Uiso   1.00
C658   C     0.31205   0.54257   0.75003   0.00000  Uiso   1.00
C659   C     0.31205   0.45743   0.75002   0.00000  Uiso   1.00
C660   C     0.02128   0.54257   0.74997   0.00000  Uiso   1.00
C661   C     0.14416   0.53427   0.54750   0.00000  Uiso   1.00
C662   C     0.14414   0.46589   0.95237   0.00000  Uiso   1.00
C663   C     0.18921   0.53424   0.95250   0.00000  Uiso   1.00
C664   C     0.18916   0.46586   0.54762   0.00000  Uiso   1.00
C665   C     0.14478   0.53447   0.59361   0.00000  Uiso   1.00
C666   C     0.14480   0.46562   0.90628   0.00000  Uiso   1.00
C667   C     0.18859   0.53445   0.90639   0.00000  Uiso   1.00
C668   C     0.18850   0.46559   0.59372   0.00000  Uiso   1.00
C669   C     0.16663   0.50001   0.61676   0.00000  Uiso   1.00
C670   C     0.16670   0.50001   0.88324   0.00000  Uiso   1.00
C671   C     0.16667   0.50008   0.52427   0.00000  Uiso   1.00
C672   C     0.16666   0.50008   0.97573   0.00000  Uiso   1.00
C673   C     0.29060   0.50000   0.75004   0.00000  Uiso   1.00
C674   C     0.04274   0.50000   0.74996   0.00000  Uiso   1.00
Cu675  Cu    0.16667   0.54689   0.75000   0.00000  Uiso   1.00
Cu676  Cu    0.16667   0.45311   0.75000   0.00000  Uiso   1.00
H677   H     0.12000   0.37685   0.70101   0.00000  Uiso   1.00
H678   H     0.21332   0.62315   0.79901   0.00000  Uiso   1.00
H679   H     0.21333   0.37685   0.79899   0.00000  Uiso   1.00
H680   H     0.12002   0.62315   0.70099   0.00000  Uiso   1.00
H681   H     0.12750   0.56091   0.61138   0.00000  Uiso   1.00
H682   H     0.12750   0.43919   0.88841   0.00000  Uiso   1.00
H683   H     0.20590   0.56085   0.88861   0.00000  Uiso   1.00
H684   H     0.20578   0.43914   0.61158   0.00000  Uiso   1.00
H685   H     0.03729   0.42416   0.74995   0.00000  Uiso   1.00
H686   H     0.29604   0.57584   0.75005   0.00000  Uiso   1.00
H687   H     0.29604   0.42416   0.75005   0.00000  Uiso   1.00
H688   H     0.03729   0.57584   0.74995   0.00000  Uiso   1.00
N689   N     0.16667   0.61736   0.75000   0.00000  Uiso   1.00
N690   N     0.16667   0.38264   0.75000   0.00000  Uiso   1.00
O691   O     0.10655   0.53958   0.75000   0.00000  Uiso   1.00
O692   O     0.22679   0.46042   0.75001   0.00000  Uiso   1.00
O693   O     0.22679   0.53958   0.75001   0.00000  Uiso   1.00
O694   O     0.10655   0.46042   0.75000   0.00000  Uiso   1.00
O695   O     0.16666   0.53959   0.68573   0.00000  Uiso   1.00
O696   O     0.16667   0.46041   0.81427   0.00000  Uiso   1.00
O697   O     0.16667   0.53959   0.81427   0.00000  Uiso   1.00
O698   O     0.16666   0.46041   0.68573   0.00000  Uiso   1.00
Cl699  Cl    0.11429   0.57677   0.51986   0.00000  Uiso   1.00
Cl700  Cl    0.11420   0.42347   0.97985   0.00000  Uiso   1.00
Cl701  Cl    0.21912   0.57669   0.98014   0.00000  Uiso   1.00
Cl702  Cl    0.21905   0.42341   0.52014   0.00000  Uiso   1.00
C703   C     0.42068   0.50000   0.74997   0.00000  Uiso   1.00
C704   C     0.57932   0.50000   0.75004   0.00000  Uiso   1.00
C705   C     0.49997   0.50000   0.66498   0.00000  Uiso   1.00
C706   C     0.50003   0.50000   0.83502   0.00000  Uiso   1.00
C707   C     0.47409   0.35814   0.72280   0.00000  Uiso   1.00
C708   C     0.52591   0.64186   0.77721   0.00000  Uiso   1.00
C709   C     0.52591   0.35814   0.77720   0.00000  Uiso   1.00
C710   C     0.47410   0.64186   0.72279   0.00000  Uiso   1.00
C711   C     0.35462   0.45743   0.74998   0.00000  Uiso   1.00
C712   C     0.64538   0.54257   0.75003   0.00000  Uiso   1.00
C713   C     0.64538   0.45743   0.75002   0.00000  Uiso   1.00
C714   C     0.35462   0.54257   0.74997   0.00000  Uiso   1.00
C715   C     0.47749   0.53427   0.54750   0.00000  Uiso   1.00
C716   C     0.47747   0.46589   0.95237   0.00000  Uiso   1.00
C717   C     0.52254   0.53424   0.95250   0.00000  Uiso   1.00
C718   C     0.52249   0.46586   0.54762   0.00000  Uiso   1.00
C719   C     0.47811   0.53447   0.59361   0.00000  Uiso   1.00
C720   C     0.47813   0.46562   0.90628   0.00000  Uiso   1.00
C721   C     0.52192   0.53445   0.90639   0.00000  Uiso   1.00
C722   C     0.52183   0.46559   0.59372   0.00000  Uiso   1.00
C723   C     0.49996   0.50001   0.61676   0.00000  Uiso   1.00
C724   C     0.50004   0.50001   0.88324   0.00000  Uiso   1.00
C725   C     0.50000   0.50008   0.52427   0.00000  Uiso   1.00
C726   C     0.50000   0.50008   0.97573   0.00000  Uiso   1.00
C727   C     0.62393   0.50000   0.75004   0.00000  Uiso   1.00
C728   C     0.37607   0.50000   0.74996   0.00000  Uiso   1.00
Cu729  Cu    0.50000   0.54689   0.75000   0.00000  Uiso   1.00
Cu730  Cu    0.50000   0.45311   0.75000   0.00000  Uiso   1.00
H731   H     0.45334   0.37685   0.70101   0.00000  Uiso   1.00
H732   H     0.54665   0.62315   0.79901   0.00000  Uiso   1.00
H733   H     0.54666   0.37685   0.79899   0.00000  Uiso   1.00
H734   H     0.45335   0.62315   0.70099   0.00000  Uiso   1.00
H735   H     0.46083   0.56091   0.61138   0.00000  Uiso   1.00
H736   H     0.46083   0.43919   0.88841   0.00000  Uiso   1.00
H737   H     0.53923   0.56085   0.88861   0.00000  Uiso   1.00
H738   H     0.53911   0.43914   0.61158   0.00000  Uiso   1.00
H739   H     0.37063   0.42416   0.74995   0.00000  Uiso   1.00
H740   H     0.62938   0.57584   0.75005   0.00000  Uiso   1.00
H741   H     0.62938   0.42416   0.75005   0.00000  Uiso   1.00
H742   H     0.37062   0.57584   0.74995   0.00000  Uiso   1.00
N743   N     0.50000   0.61736   0.75000   0.00000  Uiso   1.00
N744   N     0.50000   0.38264   0.75000   0.00000  Uiso   1.00
O745   O     0.43988   0.53958   0.75000   0.00000  Uiso   1.00
O746   O     0.56012   0.46042   0.75001   0.00000  Uiso   1.00
O747   O     0.56012   0.53958   0.75001   0.00000  Uiso   1.00
O748   O     0.43988   0.46042   0.75000   0.00000  Uiso   1.00
O749   O     0.50000   0.53959   0.68573   0.00000  Uiso   1.00
O750   O     0.50000   0.46041   0.81427   0.00000  Uiso   1.00
O751   O     0.50000   0.53959   0.81427   0.00000  Uiso   1.00
O752   O     0.50000   0.46041   0.68573   0.00000  Uiso   1.00
Cl753  Cl    0.44763   0.57677   0.51986   0.00000  Uiso   1.00
Cl754  Cl    0.44754   0.42347   0.97985   0.00000  Uiso   1.00
Cl755  Cl    0.55246   0.57669   0.98014   0.00000  Uiso   1.00
Cl756  Cl    0.55239   0.42341   0.52014   0.00000  Uiso   1.00
C757   C     0.75402   0.50000   0.74997   0.00000  Uiso   1.00
C758   C     0.91265   0.50000   0.75004   0.00000  Uiso   1.00
C759   C     0.83330   0.50000   0.66498   0.00000  Uiso   1.00
C760   C     0.83336   0.50000   0.83502   0.00000  Uiso   1.00
C761   C     0.80742   0.35814   0.72280   0.00000  Uiso   1.00
C762   C     0.85924   0.64186   0.77721   0.00000  Uiso   1.00
C763   C     0.85924   0.35814   0.77720   0.00000  Uiso   1.00
C764   C     0.80743   0.64186   0.72279   0.00000  Uiso   1.00
C765   C     0.68795   0.45743   0.74998   0.00000  Uiso   1.00
C766   C     0.97872   0.54257   0.75003   0.00000  Uiso   1.00
C767   C     0.97872   0.45743   0.75002   0.00000  Uiso   1.00
C768   C     0.68795   0.54257   0.74997   0.00000  Uiso   1.00
C769   C     0.81082   0.53427   0.54750   0.00000  Uiso   1.00
C770   C     0.81081   0.46589   0.95237   0.00000  Uiso   1.00
C771   C     0.85588   0.53424   0.95250   0.00000  Uiso   1.00
C772   C     0.85583   0.46586   0.54762   0.00000  Uiso   1.00
C773   C     0.81145   0.53447   0.59361   0.00000  Uiso   1.00
C774   C     0.81147   0.46562   0.90628   0.00000  Uiso   1.00
C775   C     0.85526   0.53445   0.90639   0.00000  Uiso   1.00
C776   C     0.85517   0.46559   0.59372   0.00000  Uiso   1.00
C777   C     0.83330   0.50001   0.61676   0.00000  Uiso   1.00
C778   C     0.83337   0.50001   0.88324   0.00000  Uiso   1.00
C779   C     0.83333   0.50008   0.52427   0.00000  Uiso   1.00
C780   C     0.83333   0.50008   0.97573   0.00000  Uiso   1.00
C781   C     0.95726   0.50000   0.75004   0.00000  Uiso   1.00
C782   C     0.70940   0.50000   0.74996   0.00000  Uiso   1.00
Cu783  Cu    0.83333   0.54689   0.75000   0.00000  Uiso   1.00
Cu784  Cu    0.83333   0.45311   0.75000   0.00000  Uiso   1.00
H785   H     0.78667   0.37685   0.70101   0.00000  Uiso   1.00
H786   H     0.87998   0.62315   0.79901   0.00000  Uiso   1.00
H787   H     0.88000   0.37685   0.79899   0.00000  Uiso   1.00
H788   H     0.78668   0.62315   0.70099   0.00000  Uiso   1.00
H789   H     0.79416   0.56091   0.61138   0.00000  Uiso   1.00
H790   H     0.79416   0.43919   0.88841   0.00000  Uiso   1.00
H791   H     0.87256   0.56085   0.88861   0.00000  Uiso   1.00
H792   H     0.87244   0.43914   0.61158   0.00000  Uiso   1.00
H793   H     0.70396   0.42416   0.74995   0.00000  Uiso   1.00
H794   H     0.96271   0.57584   0.75005   0.00000  Uiso   1.00
H795   H     0.96271   0.42416   0.75005   0.00000  Uiso   1.00
H796   H     0.70396   0.57584   0.74995   0.00000  Uiso   1.00
N797   N     0.83333   0.61736   0.75000   0.00000  Uiso   1.00
N798   N     0.83333   0.38264   0.75000   0.00000  Uiso   1.00
O799   O     0.77321   0.53958   0.75000   0.00000  Uiso   1.00
O800   O     0.89345   0.46042   0.75001   0.00000  Uiso   1.00
O801   O     0.89345   0.53958   0.75001   0.00000  Uiso   1.00
O802   O     0.77321   0.46042   0.75000   0.00000  Uiso   1.00
O803   O     0.83333   0.53959   0.68573   0.00000  Uiso   1.00
O804   O     0.83334   0.46041   0.81427   0.00000  Uiso   1.00
O805   O     0.83334   0.53959   0.81427   0.00000  Uiso   1.00
O806   O     0.83333   0.46041   0.68573   0.00000  Uiso   1.00
Cl807  Cl    0.78096   0.57677   0.51986   0.00000  Uiso   1.00
Cl808  Cl    0.78087   0.42347   0.97985   0.00000  Uiso   1.00
Cl809  Cl    0.88579   0.57669   0.98014   0.00000  Uiso   1.00
Cl810  Cl    0.88572   0.42341   0.52014   0.00000  Uiso   1.00
C811   C     0.08735   0.83333   0.74997   0.00000  Uiso   1.00
C812   C     0.24598   0.83333   0.75004   0.00000  Uiso   1.00
C813   C     0.16664   0.83334   0.66498   0.00000  Uiso   1.00
C814   C     0.16670   0.83334   0.83502   0.00000  Uiso   1.00
C815   C     0.14076   0.69147   0.72280   0.00000  Uiso   1.00
C816   C     0.19257   0.97519   0.77721   0.00000  Uiso   1.00
C817   C     0.19258   0.69147   0.77720   0.00000  Uiso   1.00
C818   C     0.14076   0.97519   0.72279   0.00000  Uiso   1.00
C819   C     0.02128   0.79077   0.74998   0.00000  Uiso   1.00
C820   C     0.31205   0.87590   0.75003   0.00000  Uiso   1.00
C821   C     0.31205   0.79077   0.75002   0.00000  Uiso   1.00
C822   C     0.02128   0.87590   0.74997   0.00000  Uiso   1.00
C823   C     0.14416   0.86760   0.54750   0.00000  Uiso   1.00
C824   C     0.14414   0.79923   0.95237   0.00000  Uiso   1.00
C825   C     0.18921   0.86757   0.95250   0.00000  Uiso   1.00
C826   C     0.18916   0.79920   0.54762   0.00000  Uiso   1.00
C827   C     0.14478   0.86781   0.59361   0.00000  Uiso   1.00
C828   C     0.14480   0.79895   0.90628   0.00000  Uiso   1.00
C829   C     0.18859   0.86778   0.90639   0.00000  Uiso   1.00
C830   C     0.18850   0.79892   0.59372   0.00000  Uiso   1.00
C831   C     0.16663   0.83335   0.61676   0.00000  Uiso   1.00
C832   C     0.16670   0.83335   0.88324   0.00000  Uiso   1.00
C833   C     0.16667   0.83341   0.52427   0.00000  Uiso   1.00
C834   C     0.16666   0.83341   0.97573   0.00000  Uiso   1.00
C835   C     0.29060   0.83333   0.75004   0.00000  Uiso   1.00
C836   C     0.04274   0.83333   0.74996   0.00000  Uiso   1.00
Cu837  Cu    0.16667   0.88022   0.75000   0.00000  Uiso   1.00
Cu838  Cu    0.16667   0.78645   0.75000   0.00000  Uiso   1.00
H839   H     0.12000   0.71018   0.70101   0.00000  Uiso   1.00
H840   H     0.21332   0.95648   0.79901   0.00000  Uiso   1.00
H841   H     0.21333   0.71018   0.79899   0.00000  Uiso   1.00
H842   H     0.12002   0.95648   0.70099   0.00000  Uiso   1.00
H843   H     0.12750   0.89424   0.61138   0.00000  Uiso   1.00
H844   H     0.12750   0.77253   0.88841   0.00000  Uiso   1.00
H845   H     0.20590   0.89419   0.88861   0.00000  Uiso   1.00
H846   H     0.20578   0.77248   0.61158   0.00000  Uiso   1.00
H847   H     0.03729   0.75749   0.74995   0.00000  Uiso   1.00
H848   H     0.29604   0.90918   0.75005   0.00000  Uiso   1.00
H849   H     0.29604   0.75749   0.75005   0.00000  Uiso   1.00
H850   H     0.03729   0.90918   0.74995   0.00000  Uiso   1.00
N851   N     0.16667   0.95069   0.75000   0.00000  Uiso   1.00
N852   N     0.16667   0.71598   0.75000   0.00000  Uiso   1.00
O853   O     0.10655   0.87291   0.75000   0.00000  Uiso   1.00
O854   O     0.22679   0.79375   0.75001   0.00000  Uiso   1.00
O855   O     0.22679   0.87291   0.75001   0.00000  Uiso   1.00
O856   O     0.10655   0.79375   0.75000   0.00000  Uiso   1.00
O857   O     0.16666   0.87293   0.68573   0.00000  Uiso   1.00
O858   O     0.16667   0.79374   0.81427   0.00000  Uiso   1.00
O859   O     0.16667   0.87293   0.81427   0.00000  Uiso   1.00
O860   O     0.16666   0.79374   0.68573   0.00000  Uiso   1.00
Cl861  Cl    0.11429   0.91010   0.51986   0.00000  Uiso   1.00
Cl862  Cl    0.11420   0.75681   0.97985   0.00000  Uiso   1.00
Cl863  Cl    0.21912   0.91002   0.98014   0.00000  Uiso   1.00
Cl864  Cl    0.21905   0.75674   0.52014   0.00000  Uiso   1.00
C865   C     0.42068   0.83333   0.74997   0.00000  Uiso   1.00
C866   C     0.57932   0.83333   0.75004   0.00000  Uiso   1.00
C867   C     0.49997   0.83334   0.66498   0.00000  Uiso   1.00
C868   C     0.50003   0.83334   0.83502   0.00000  Uiso   1.00
C869   C     0.47409   0.69147   0.72280   0.00000  Uiso   1.00
C870   C     0.52591   0.97519   0.77721   0.00000  Uiso   1.00
C871   C     0.52591   0.69147   0.77720   0.00000  Uiso   1.00
C872   C     0.47410   0.97519   0.72279   0.00000  Uiso   1.00
C873   C     0.35462   0.79077   0.74998   0.00000  Uiso   1.00
C874   C     0.64538   0.87590   0.75003   0.00000  Uiso   1.00
C875   C     0.64538   0.79077   0.75002   0.00000  Uiso   1.00
C876   C     0.35462   0.87590   0.74997   0.00000  Uiso   1.00
C877   C     0.47749   0.86760   0.54750   0.00000  Uiso   1.00
C878   C     0.47747   0.79923   0.95237   0.00000  Uiso   1.00
C879   C     0.52254   0.86757   0.95250   0.00000  Uiso   1.00
C880   C     0.52249   0.79920   0.54762   0.00000  Uiso   1.00
C881   C     0.47811   0.86781   0.59361   0.00000  Uiso   1.00
C882   C     0.47813   0.79895   0.90628   0.00000  Uiso   1.00
C883   C     0.52192   0.86778   0.90639   0.00000  Uiso   1.00
C884   C     0.52183   0.79892   0.59372   0.00000  Uiso   1.00
C885   C     0.49996   0.83335   0.61676   0.00000  Uiso   1.00
C886   C     0.50004   0.83335   0.88324   0.00000  Uiso   1.00
C887   C     0.50000   0.83341   0.52427   0.00000  Uiso   1.00
C888   C     0.50000   0.83341   0.97573   0.00000  Uiso   1.00
C889   C     0.62393   0.83333   0.75004   0.00000  Uiso   1.00
C890   C     0.37607   0.83333   0.74996   0.00000  Uiso   1.00
Cu891  Cu    0.50000   0.88022   0.75000   0.00000  Uiso   1.00
Cu892  Cu    0.50000   0.78645   0.75000   0.00000  Uiso   1.00
H893   H     0.45334   0.71018   0.70101   0.00000  Uiso   1.00
H894   H     0.54665   0.95648   0.79901   0.00000  Uiso   1.00
H895   H     0.54666   0.71018   0.79899   0.00000  Uiso   1.00
H896   H     0.45335   0.95648   0.70099   0.00000  Uiso   1.00
H897   H     0.46083   0.89424   0.61138   0.00000  Uiso   1.00
H898   H     0.46083   0.77253   0.88841   0.00000  Uiso   1.00
H899   H     0.53923   0.89419   0.88861   0.00000  Uiso   1.00
H900   H     0.53911   0.77248   0.61158   0.00000  Uiso   1.00
H901   H     0.37063   0.75749   0.74995   0.00000  Uiso   1.00
H902   H     0.62938   0.90918   0.75005   0.00000  Uiso   1.00
H903   H     0.62938   0.75749   0.75005   0.00000  Uiso   1.00
H904   H     0.37062   0.90918   0.74995   0.00000  Uiso   1.00
N905   N     0.50000   0.95069   0.75000   0.00000  Uiso   1.00
N906   N     0.50000   0.71598   0.75000   0.00000  Uiso   1.00
O907   O     0.43988   0.87291   0.75000   0.00000  Uiso   1.00
O908   O     0.56012   0.79375   0.75001   0.00000  Uiso   1.00
O909   O     0.56012   0.87291   0.75001   0.00000  Uiso   1.00
O910   O     0.43988   0.79375   0.75000   0.00000  Uiso   1.00
O911   O     0.50000   0.87293   0.68573   0.00000  Uiso   1.00
O912   O     0.50000   0.79374   0.81427   0.00000  Uiso   1.00
O913   O     0.50000   0.87293   0.81427   0.00000  Uiso   1.00
O914   O     0.50000   0.79374   0.68573   0.00000  Uiso   1.00
Cl915  Cl    0.44763   0.91010   0.51986   0.00000  Uiso   1.00
Cl916  Cl    0.44754   0.75681   0.97985   0.00000  Uiso   1.00
Cl917  Cl    0.55246   0.91002   0.98014   0.00000  Uiso   1.00
Cl918  Cl    0.55239   0.75674   0.52014   0.00000  Uiso   1.00
C919   C     0.75402   0.83333   0.74997   0.00000  Uiso   1.00
C920   C     0.91265   0.83333   0.75004   0.00000  Uiso   1.00
C921   C     0.83330   0.83334   0.66498   0.00000  Uiso   1.00
C922   C     0.83336   0.83334   0.83502   0.00000  Uiso   1.00
C923   C     0.80742   0.69147   0.72280   0.00000  Uiso   1.00
C924   C     0.85924   0.97519   0.77721   0.00000  Uiso   1.00
C925   C     0.85924   0.69147   0.77720   0.00000  Uiso   1.00
C926   C     0.80743   0.97519   0.72279   0.00000  Uiso   1.00
C927   C     0.68795   0.79077   0.74998   0.00000  Uiso   1.00
C928   C     0.97872   0.87590   0.75003   0.00000  Uiso   1.00
C929   C     0.97872   0.79077   0.75002   0.00000  Uiso   1.00
C930   C     0.68795   0.87590   0.74997   0.00000  Uiso   1.00
C931   C     0.81082   0.86760   0.54750   0.00000  Uiso   1.00
C932   C     0.81081   0.79923   0.95237   0.00000  Uiso   1.00
C933   C     0.85588   0.86757   0.95250   0.00000  Uiso   1.00
C934   C     0.85583   0.79920   0.54762   0.00000  Uiso   1.00
C935   C     0.81145   0.86781   0.59361   0.00000  Uiso   1.00
C936   C     0.81147   0.79895   0.90628   0.00000  Uiso   1.00
C937   C     0.85526   0.86778   0.90639   0.00000  Uiso   1.00
C938   C     0.85517   0.79892   0.59372   0.00000  Uiso   1.00
C939   C     0.83330   0.83335   0.61676   0.00000  Uiso   1.00
C940   C     0.83337   0.83335   0.88324   0.00000  Uiso   1.00
C941   C     0.83333   0.83341   0.52427   0.00000  Uiso   1.00
C942   C     0.83333   0.83341   0.97573   0.00000  Uiso   1.00
C943   C     0.95726   0.83333   0.75004   0.00000  Uiso   1.00
C944   C     0.70940   0.83333   0.74996   0.00000  Uiso   1.00
Cu945  Cu    0.83333   0.88022   0.75000   0.00000  Uiso   1.00
Cu946  Cu    0.83333   0.78645   0.75000   0.00000  Uiso   1.00
H947   H     0.78667   0.71018   0.70101   0.00000  Uiso   1.00
H948   H     0.87998   0.95648   0.79901   0.00000  Uiso   1.00
H949   H     0.88000   0.71018   0.79899   0.00000  Uiso   1.00
H950   H     0.78668   0.95648   0.70099   0.00000  Uiso   1.00
H951   H     0.79416   0.89424   0.61138   0.00000  Uiso   1.00
H952   H     0.79416   0.77253   0.88841   0.00000  Uiso   1.00
H953   H     0.87256   0.89419   0.88861   0.00000  Uiso   1.00
H954   H     0.87244   0.77248   0.61158   0.00000  Uiso   1.00
H955   H     0.70396   0.75749   0.74995   0.00000  Uiso   1.00
H956   H     0.96271   0.90918   0.75005   0.00000  Uiso   1.00
H957   H     0.96271   0.75749   0.75005   0.00000  Uiso   1.00
H958   H     0.70396   0.90918   0.74995   0.00000  Uiso   1.00
N959   N     0.83333   0.95069   0.75000   0.00000  Uiso   1.00
N960   N     0.83333   0.71598   0.75000   0.00000  Uiso   1.00
O961   O     0.77321   0.87291   0.75000   0.00000  Uiso   1.00
O962   O     0.89345   0.79375   0.75001   0.00000  Uiso   1.00
O963   O     0.89345   0.87291   0.75001   0.00000  Uiso   1.00
O964   O     0.77321   0.79375   0.75000   0.00000  Uiso   1.00
O965   O     0.83333   0.87293   0.68573   0.00000  Uiso   1.00
O966   O     0.83334   0.79374   0.81427   0.00000  Uiso   1.00
O967   O     0.83334   0.87293   0.81427   0.00000  Uiso   1.00
O968   O     0.83333   0.79374   0.68573   0.00000  Uiso   1.00
Cl969  Cl    0.78096   0.91010   0.51986   0.00000  Uiso   1.00
Cl970  Cl    0.78087   0.75681   0.97985   0.00000  Uiso   1.00
Cl971  Cl    0.88579   0.91002   0.98014   0.00000  Uiso   1.00
Cl972  Cl    0.88572   0.75674   0.52014   0.00000  Uiso   1.00
loop_
_geom_bond_atom_site_label_1
_geom_bond_atom_site_label_2
_geom_bond_distance
_geom_bond_site_symmetry_2
_ccdc_geom_bond_type
C1     O43     1.291   .     A
C1     C26     1.450   .     S
C1     O46     1.291   .     A
C2     C25     1.450   .     S
C2     O44     1.291   .     A
C2     O45     1.291   .     A
C3     O47     1.292   .     A
C3     O50     1.292   .     A
C3     C21     1.456   .     S
C4     C22     1.456   .     S
C4     O49     1.292   .     A
C4     O48     1.292   .     A
C5     H29     1.082   .     S
C5     N42     1.367   .     A
C5     C332    1.417   1_545 S
C6     H30     1.082   .     S
C6     N41     1.367   .     A
C6     C169    1.417   .     S
C7     H31     1.082   .     S
C7     N42     1.367   .     A
C7     C330    1.417   1_545 S
C8     N41     1.367   .     A
C8     H32     1.082   .     S
C8     C167    1.417   .     S
C9     H37     1.083   .     S
C9     C26     1.401   .     A
C9     C119    1.384   1_455 S
C10    H38     1.083   .     S
C10    C25     1.401   .     A
C10    C66     1.384   .     S
C11    H39     1.083   .     S
C11    C25     1.401   .     A
C11    C63     1.384   .     S
C12    H40     1.083   .     S
C12    C26     1.401   .     A
C12    C118    1.384   1_455 S
C13    C17     1.392   .     A
C13    Cl51    1.762   .     S
C13    C23     1.408   .     A
C14    Cl52    1.762   .     S
C14    C18     1.392   .     A
C14    C24     1.408   .     A
C15    C19     1.392   .     A
C15    Cl53    1.762   .     S
C15    C24     1.408   .     A
C16    C20     1.392   .     A
C16    C23     1.408   .     A
C16    Cl54    1.762   .     S
C17    H33     1.084   .     S
C17    C21     1.399   .     A
C18    H34     1.084   .     S
C18    C22     1.399   .     A
C19    H35     1.084   .     S
C19    C22     1.399   .     A
C20    H36     1.084   .     S
C20    C21     1.399   .     A
C23    C510    1.465   1_554 S
C24    C509    1.465   .     S
Cu27   O45     1.965   .     S
Cu27   O47     1.951   .     S
Cu27   O43     1.965   .     S
Cu27   Cu28    2.677   .     S
Cu27   N41     2.012   .     S
Cu27   O49     1.951   .     S
Cu28   O48     1.951   .     S
Cu28   O46     1.965   .     S
Cu28   N42     2.012   .     S
Cu28   O50     1.951   .     S
Cu28   O44     1.965   .     S
C55    O97     1.291   .     A
C55    C80     1.450   .     S
C55    O100    1.291   .     A
C56    C79     1.450   .     S
C56    O98     1.291   .     A
C56    O99     1.291   .     A
C57    O101    1.292   .     A
C57    O104    1.292   .     A
C57    C75     1.456   .     S
C58    C76     1.456   .     S
C58    O103    1.292   .     A
C58    O102    1.292   .     A
C59    H83     1.082   .     S
C59    N96     1.367   .     A
C59    C386    1.417   1_545 S
C60    H84     1.082   .     S
C60    N95     1.367   .     A
C60    C223    1.417   .     S
C61    H85     1.082   .     S
C61    N96     1.367   .     A
C61    C384    1.417   1_545 S
C62    N95     1.367   .     A
C62    H86     1.082   .     S
C62    C221    1.417   .     S
C63    H91     1.083   .     S
C63    C80     1.401   .     A
C64    H92     1.083   .     S
C64    C79     1.401   .     A
C64    C120    1.384   .     S
C65    H93     1.083   .     S
C65    C79     1.401   .     A
C65    C117    1.384   .     S
C66    H94     1.083   .     S
C66    C80     1.401   .     A
C67    C71     1.392   .     A
C67    Cl105   1.762   .     S
C67    C77     1.408   .     A
C68    Cl106   1.762   .     S
C68    C72     1.392   .     A
C68    C78     1.408   .     A
C69    C73     1.392   .     A
C69    Cl107   1.762   .     S
C69    C78     1.408   .     A
C70    C74     1.392   .     A
C70    C77     1.408   .     A
C70    Cl108   1.762   .     S
C71    H87     1.084   .     S
C71    C75     1.399   .     A
C72    H88     1.084   .     S
C72    C76     1.399   .     A
C73    H89     1.084   .     S
C73    C76     1.399   .     A
C74    H90     1.084   .     S
C74    C75     1.399   .     A
C77    C564    1.465   1_554 S
C78    C563    1.465   .     S
Cu81   O99     1.965   .     S
Cu81   O101    1.951   .     S
Cu81   O97     1.965   .     S
Cu81   Cu82    2.677   .     S
Cu81   N95     2.012   .     S
Cu81   O103    1.951   .     S
Cu82   O102    1.951   .     S
Cu82   O100    1.965   .     S
Cu82   N96     2.012   .     S
Cu82   O104    1.951   .     S
Cu82   O98     1.965   .     S
C109   O151    1.291   .     A
C109   C134    1.450   .     S
C109   O154    1.291   .     A
C110   C133    1.450   .     S
C110   O152    1.291   .     A
C110   O153    1.291   .     A
C111   O155    1.292   .     A
C111   O158    1.292   .     A
C111   C129    1.456   .     S
C112   C130    1.456   .     S
C112   O157    1.292   .     A
C112   O156    1.292   .     A
C113   H137    1.082   .     S
C113   N150    1.367   .     A
C113   C440    1.417   1_545 S
C114   H138    1.082   .     S
C114   N149    1.367   .     A
C114   C277    1.417   .     S
C115   H139    1.082   .     S
C115   N150    1.367   .     A
C115   C438    1.417   1_545 S
C116   N149    1.367   .     A
C116   H140    1.082   .     S
C116   C275    1.417   .     S
C117   H145    1.083   .     S
C117   C134    1.401   .     A
C118   H146    1.083   .     S
C118   C133    1.401   .     A
C118   C12     1.384   1_655 S
C119   H147    1.083   .     S
C119   C133    1.401   .     A
C119   C9      1.384   1_655 S
C120   H148    1.083   .     S
C120   C134    1.401   .     A
C121   C125    1.392   .     A
C121   Cl159   1.762   .     S
C121   C131    1.408   .     A
C122   Cl160   1.762   .     S
C122   C126    1.392   .     A
C122   C132    1.408   .     A
C123   C127    1.392   .     A
C123   Cl161   1.762   .     S
C123   C132    1.408   .     A
C124   C128    1.392   .     A
C124   C131    1.408   .     A
C124   Cl162   1.762   .     S
C125   H141    1.084   .     S
C125   C129    1.399   .     A
C126   H142    1.084   .     S
C126   C130    1.399   .     A
C127   H143    1.084   .     S
C127   C130    1.399   .     A
C128   H144    1.084   .     S
C128   C129    1.399   .     A
C131   C618    1.465   1_554 S
C132   C617    1.465   .     S
Cu135  O153    1.965   .     S
Cu135  O155    1.951   .     S
Cu135  O151    1.965   .     S
Cu135  Cu136   2.677   .     S
Cu135  N149    2.012   .     S
Cu135  O157    1.951   .     S
Cu136  O156    1.951   .     S
Cu136  O154    1.965   .     S
Cu136  N150    2.012   .     S
Cu136  O158    1.951   .     S
Cu136  O152    1.965   .     S
C163   O205    1.291   .     A
C163   C188    1.450   .     S
C163   O208    1.291   .     A
C164   C187    1.450   .     S
C164   O206    1.291   .     A
C164   O207    1.291   .     A
C165   O209    1.292   .     A
C165   O212    1.292   .     A
C165   C183    1.456   .     S
C166   C184    1.456   .     S
C166   O211    1.292   .     A
C166   O210    1.292   .     A
C167   H191    1.082   .     S
C167   N204    1.367   .     A
C168   H192    1.082   .     S
C168   N203    1.367   .     A
C168   C331    1.417   .     S
C169   H193    1.082   .     S
C169   N204    1.367   .     A
C170   N203    1.367   .     A
C170   H194    1.082   .     S
C170   C329    1.417   .     S
C171   H199    1.083   .     S
C171   C188    1.401   .     A
C171   C281    1.384   1_455 S
C172   H200    1.083   .     S
C172   C187    1.401   .     A
C172   C228    1.384   .     S
C173   H201    1.083   .     S
C173   C187    1.401   .     A
C173   C225    1.384   .     S
C174   H202    1.083   .     S
C174   C188    1.401   .     A
C174   C280    1.384   1_455 S
C175   C179    1.392   .     A
C175   Cl213   1.762   .     S
C175   C185    1.408   .     A
C176   Cl214   1.762   .     S
C176   C180    1.392   .     A
C176   C186    1.408   .     A
C177   C181    1.392   .     A
C177   Cl215   1.762   .     S
C177   C186    1.408   .     A
C178   C182    1.392   .     A
C178   C185    1.408   .     A
C178   Cl216   1.762   .     S
C179   H195    1.084   .     S
C179   C183    1.399   .     A
C180   H196    1.084   .     S
C180   C184    1.399   .     A
C181   H197    1.084   .     S
C181   C184    1.399   .     A
C182   H198    1.084   .     S
C182   C183    1.399   .     A
C185   C672    1.465   1_554 S
C186   C671    1.465   .     S
Cu189  O207    1.965   .     S
Cu189  O209    1.951   .     S
Cu189  O205    1.965   .     S
Cu189  Cu190   2.677   .     S
Cu189  N203    2.012   .     S
Cu189  O211    1.951   .     S
Cu190  O210    1.951   .     S
Cu190  O208    1.965   .     S
Cu190  N204    2.012   .     S
Cu190  O212    1.951   .     S
Cu190  O206    1.965   .     S
C217   O259    1.291   .     A
C217   C242    1.450   .     S
C217   O262    1.291   .     A
C218   C241    1.450   .     S
C218   O260    1.291   .     A
C218   O261    1.291   .     A
C219   O263    1.292   .     A
C219   O266    1.292   .     A
C219   C237    1.456   .     S
C220   C238    1.456   .     S
C220   O265    1.292   .     A
C220   O264    1.292   .     A
C221   H245    1.082   .     S
C221   N258    1.367   .     A
C222   H246    1.082   .     S
C222   N257    1.367   .     A
C222   C385    1.417   .     S
C223   H247    1.082   .     S
C223   N258    1.367   .     A
C224   N257    1.367   .     A
C224   H248    1.082   .     S
C224   C383    1.417   .     S
C225   H253    1.083   .     S
C225   C242    1.401   .     A
C226   H254    1.083   .     S
C226   C241    1.401   .     A
C226   C282    1.384   .     S
C227   H255    1.083   .     S
C227   C241    1.401   .     A
C227   C279    1.384   .     S
C228   H256    1.083   .     S
C228   C242    1.401   .     A
C229   C233    1.392   .     A
C229   Cl267   1.762   .     S
C229   C239    1.408   .     A
C230   Cl268   1.762   .     S
C230   C234    1.392   .     A
C230   C240    1.408   .     A
C231   C235    1.392   .     A
C231   Cl269   1.762   .     S
C231   C240    1.408   .     A
C232   C236    1.392   .     A
C232   C239    1.408   .     A
C232   Cl270   1.762   .     S
C233   H249    1.084   .     S
C233   C237    1.399   .     A
C234   H250    1.084   .     S
C234   C238    1.399   .     A
C235   H251    1.084   .     S
C235   C238    1.399   .     A
C236   H252    1.084   .     S
C236   C237    1.399   .     A
C239   C726    1.465   1_554 S
C240   C725    1.465   .     S
Cu243  O261    1.965   .     S
Cu243  O263    1.951   .     S
Cu243  O259    1.965   .     S
Cu243  Cu244   2.677   .     S
Cu243  N257    2.012   .     S
Cu243  O265    1.951   .     S
Cu244  O264    1.951   .     S
Cu244  O262    1.965   .     S
Cu244  N258    2.012   .     S
Cu244  O266    1.951   .     S
Cu244  O260    1.965   .     S
C271   O313    1.291   .     A
C271   C296    1.450   .     S
C271   O316    1.291   .     A
C272   C295    1.450   .     S
C272   O314    1.291   .     A
C272   O315    1.291   .     A
C273   O317    1.292   .     A
C273   O320    1.292   .     A
C273   C291    1.456   .     S
C274   C292    1.456   .     S
C274   O319    1.292   .     A
C274   O318    1.292   .     A
C275   H299    1.082   .     S
C275   N312    1.367   .     A
C276   H300    1.082   .     S
C276   N311    1.367   .     A
C276   C439    1.417   .     S
C277   H301    1.082   .     S
C277   N312    1.367   .     A
C278   N311    1.367   .     A
C278   H302    1.082   .     S
C278   C437    1.417   .     S
C279   H307    1.083   .     S
C279   C296    1.401   .     A
C280   H308    1.083   .     S
C280   C295    1.401   .     A
C280   C174    1.384   1_655 S
C281   H309    1.083   .     S
C281   C295    1.401   .     A
C281   C171    1.384   1_655 S
C282   H310    1.083   .     S
C282   C296    1.401   .     A
C283   C287    1.392   .     A
C283   Cl321   1.762   .     S
C283   C293    1.408   .     A
C284   Cl322   1.762   .     S
C284   C288    1.392   .     A
C284   C294    1.408   .     A
C285   C289    1.392   .     A
C285   Cl323   1.762   .     S
C285   C294    1.408   .     A
C286   C290    1.392   .     A
C286   C293    1.408   .     A
C286   Cl324   1.762   .     S
C287   H303    1.084   .     S
C287   C291    1.399   .     A
C288   H304    1.084   .     S
C288   C292    1.399   .     A
C289   H305    1.084   .     S
C289   C292    1.399   .     A
C290   H306    1.084   .     S
C290   C291    1.399   .     A
C293   C780    1.465   1_554 S
C294   C779    1.465   .     S
Cu297  O315    1.965   .     S
Cu297  O317    1.951   .     S
Cu297  O313    1.965   .     S
Cu297  Cu298   2.677   .     S
Cu297  N311    2.012   .     S
Cu297  O319    1.951   .     S
Cu298  O318    1.951   .     S
Cu298  O316    1.965   .     S
Cu298  N312    2.012   .     S
Cu298  O320    1.951   .     S
Cu298  O314    1.965   .     S
C325   O367    1.291   .     A
C325   C350    1.450   .     S
C325   O370    1.291   .     A
C326   C349    1.450   .     S
C326   O368    1.291   .     A
C326   O369    1.291   .     A
C327   O371    1.292   .     A
C327   O374    1.292   .     A
C327   C345    1.456   .     S
C328   C346    1.456   .     S
C328   O373    1.292   .     A
C328   O372    1.292   .     A
C329   H353    1.082   .     S
C329   N366    1.367   .     A
C330   H354    1.082   .     S
C330   N365    1.367   .     A
C330   C7      1.417   1_565 S
C331   H355    1.082   .     S
C331   N366    1.367   .     A
C332   N365    1.367   .     A
C332   H356    1.082   .     S
C332   C5      1.417   1_565 S
C333   H361    1.083   .     S
C333   C350    1.401   .     A
C333   C443    1.384   1_455 S
C334   H362    1.083   .     S
C334   C349    1.401   .     A
C334   C390    1.384   .     S
C335   H363    1.083   .     S
C335   C349    1.401   .     A
C335   C387    1.384   .     S
C336   H364    1.083   .     S
C336   C350    1.401   .     A
C336   C442    1.384   1_455 S
C337   C341    1.392   .     A
C337   Cl375   1.762   .     S
C337   C347    1.408   .     A
C338   Cl376   1.762   .     S
C338   C342    1.392   .     A
C338   C348    1.408   .     A
C339   C343    1.392   .     A
C339   Cl377   1.762   .     S
C339   C348    1.408   .     A
C340   C344    1.392   .     A
C340   C347    1.408   .     A
C340   Cl378   1.762   .     S
C341   H357    1.084   .     S
C341   C345    1.399   .     A
C342   H358    1.084   .     S
C342   C346    1.399   .     A
C343   H359    1.084   .     S
C343   C346    1.399   .     A
C344   H360    1.084   .     S
C344   C345    1.399   .     A
C347   C834    1.465   1_554 S
C348   C833    1.465   .     S
Cu351  O369    1.965   .     S
Cu351  O371    1.951   .     S
Cu351  O367    1.965   .     S
Cu351  Cu352   2.677   .     S
Cu351  N365    2.012   .     S
Cu351  O373    1.951   .     S
Cu352  O372    1.951   .     S
Cu352  O370    1.965   .     S
Cu352  N366    2.012   .     S
Cu352  O374    1.951   .     S
Cu352  O368    1.965   .     S
C379   O421    1.291   .     A
C379   C404    1.450   .     S
C379   O424    1.291   .     A
C380   C403    1.450   .     S
C380   O422    1.291   .     A
C380   O423    1.291   .     A
C381   O425    1.292   .     A
C381   O428    1.292   .     A
C381   C399    1.456   .     S
C382   C400    1.456   .     S
C382   O427    1.292   .     A
C382   O426    1.292   .     A
C383   H407    1.082   .     S
C383   N420    1.367   .     A
C384   H408    1.082   .     S
C384   N419    1.367   .     A
C384   C61     1.417   1_565 S
C385   H409    1.082   .     S
C385   N420    1.367   .     A
C386   N419    1.367   .     A
C386   H410    1.082   .     S
C386   C59     1.417   1_565 S
C387   H415    1.083   .     S
C387   C404    1.401   .     A
C388   H416    1.083   .     S
C388   C403    1.401   .     A
C388   C444    1.384   .     S
C389   H417    1.083   .     S
C389   C403    1.401   .     A
C389   C441    1.384   .     S
C390   H418    1.083   .     S
C390   C404    1.401   .     A
C391   C395    1.392   .     A
C391   Cl429   1.762   .     S
C391   C401    1.408   .     A
C392   Cl430   1.762   .     S
C392   C396    1.392   .     A
C392   C402    1.408   .     A
C393   C397    1.392   .     A
C393   Cl431   1.762   .     S
C393   C402    1.408   .     A
C394   C398    1.392   .     A
C394   C401    1.408   .     A
C394   Cl432   1.762   .     S
C395   H411    1.084   .     S
C395   C399    1.399   .     A
C396   H412    1.084   .     S
C396   C400    1.399   .     A
C397   H413    1.084   .     S
C397   C400    1.399   .     A
C398   H414    1.084   .     S
C398   C399    1.399   .     A
C401   C888    1.465   1_554 S
C402   C887    1.465   .     S
Cu405  O423    1.965   .     S
Cu405  O425    1.951   .     S
Cu405  O421    1.965   .     S
Cu405  Cu406   2.677   .     S
Cu405  N419    2.012   .     S
Cu405  O427    1.951   .     S
Cu406  O426    1.951   .     S
Cu406  O424    1.965   .     S
Cu406  N420    2.012   .     S
Cu406  O428    1.951   .     S
Cu406  O422    1.965   .     S
C433   O475    1.291   .     A
C433   C458    1.450   .     S
C433   O478    1.291   .     A
C434   C457    1.450   .     S
C434   O476    1.291   .     A
C434   O477    1.291   .     A
C435   O479    1.292   .     A
C435   O482    1.292   .     A
C435   C453    1.456   .     S
C436   C454    1.456   .     S
C436   O481    1.292   .     A
C436   O480    1.292   .     A
C437   H461    1.082   .     S
C437   N474    1.367   .     A
C438   H462    1.082   .     S
C438   N473    1.367   .     A
C438   C115    1.417   1_565 S
C439   H463    1.082   .     S
C439   N474    1.367   .     A
C440   N473    1.367   .     A
C440   H464    1.082   .     S
C440   C113    1.417   1_565 S
C441   H469    1.083   .     S
C441   C458    1.401   .     A
C442   H470    1.083   .     S
C442   C457    1.401   .     A
C442   C336    1.384   1_655 S
C443   H471    1.083   .     S
C443   C457    1.401   .     A
C443   C333    1.384   1_655 S
C444   H472    1.083   .     S
C444   C458    1.401   .     A
C445   C449    1.392   .     A
C445   Cl483   1.762   .     S
C445   C455    1.408   .     A
C446   Cl484   1.762   .     S
C446   C450    1.392   .     A
C446   C456    1.408   .     A
C447   C451    1.392   .     A
C447   Cl485   1.762   .     S
C447   C456    1.408   .     A
C448   C452    1.392   .     A
C448   C455    1.408   .     A
C448   Cl486   1.762   .     S
C449   H465    1.084   .     S
C449   C453    1.399   .     A
C450   H466    1.084   .     S
C450   C454    1.399   .     A
C451   H467    1.084   .     S
C451   C454    1.399   .     A
C452   H468    1.084   .     S
C452   C453    1.399   .     A
C455   C942    1.465   1_554 S
C456   C941    1.465   .     S
Cu459  O477    1.965   .     S
Cu459  O479    1.951   .     S
Cu459  O475    1.965   .     S
Cu459  Cu460   2.677   .     S
Cu459  N473    2.012   .     S
Cu459  O481    1.951   .     S
Cu460  O480    1.951   .     S
Cu460  O478    1.965   .     S
Cu460  N474    2.012   .     S
Cu460  O482    1.951   .     S
Cu460  O476    1.965   .     S
C487   O529    1.291   .     A
C487   C512    1.450   .     S
C487   O532    1.291   .     A
C488   C511    1.450   .     S
C488   O530    1.291   .     A
C488   O531    1.291   .     A
C489   O533    1.292   .     A
C489   O536    1.292   .     A
C489   C507    1.456   .     S
C490   C508    1.456   .     S
C490   O535    1.292   .     A
C490   O534    1.292   .     A
C491   H515    1.082   .     S
C491   N528    1.367   .     A
C491   C818    1.417   1_545 S
C492   H516    1.082   .     S
C492   N527    1.367   .     A
C492   C655    1.417   .     S
C493   H517    1.082   .     S
C493   N528    1.367   .     A
C493   C816    1.417   1_545 S
C494   N527    1.367   .     A
C494   H518    1.082   .     S
C494   C653    1.417   .     S
C495   H523    1.083   .     S
C495   C512    1.401   .     A
C495   C605    1.384   1_455 S
C496   H524    1.083   .     S
C496   C511    1.401   .     A
C496   C552    1.384   .     S
C497   H525    1.083   .     S
C497   C511    1.401   .     A
C497   C549    1.384   .     S
C498   H526    1.083   .     S
C498   C512    1.401   .     A
C498   C604    1.384   1_455 S
C499   C503    1.392   .     A
C499   Cl537   1.762   .     S
C499   C509    1.408   .     A
C500   Cl538   1.762   .     S
C500   C504    1.392   .     A
C500   C510    1.408   .     A
C501   C505    1.392   .     A
C501   Cl539   1.762   .     S
C501   C510    1.408   .     A
C502   C506    1.392   .     A
C502   C509    1.408   .     A
C502   Cl540   1.762   .     S
C503   H519    1.084   .     S
C503   C507    1.399   .     A
C504   H520    1.084   .     S
C504   C508    1.399   .     A
C505   H521    1.084   .     S
C505   C508    1.399   .     A
C506   H522    1.084   .     S
C506   C507    1.399   .     A
C510   C23     1.465   1_556 S
Cu513  O531    1.965   .     S
Cu513  O533    1.951   .     S
Cu513  O529    1.965   .     S
Cu513  Cu514   2.677   .     S
Cu513  N527    2.012   .     S
Cu513  O535    1.951   .     S
Cu514  O534    1.951   .     S
Cu514  O532    1.965   .     S
Cu514  N528    2.012   .     S
Cu514  O536    1.951   .     S
Cu514  O530    1.965   .     S
C541   O583    1.291   .     A
C541   C566    1.450   .     S
C541   O586    1.291   .     A
C542   C565    1.450   .     S
C542   O584    1.291   .     A
C542   O585    1.291   .     A
C543   O587    1.292   .     A
C543   O590    1.292   .     A
C543   C561    1.456   .     S
C544   C562    1.456   .     S
C544   O589    1.292   .     A
C544   O588    1.292   .     A
C545   H569    1.082   .     S
C545   N582    1.367   .     A
C545   C872    1.417   1_545 S
C546   H570    1.082   .     S
C546   N581    1.367   .     A
C546   C709    1.417   .     S
C547   H571    1.082   .     S
C547   N582    1.367   .     A
C547   C870    1.417   1_545 S
C548   N581    1.367   .     A
C548   H572    1.082   .     S
C548   C707    1.417   .     S
C549   H577    1.083   .     S
C549   C566    1.401   .     A
C550   H578    1.083   .     S
C550   C565    1.401   .     A
C550   C606    1.384   .     S
C551   H579    1.083   .     S
C551   C565    1.401   .     A
C551   C603    1.384   .     S
C552   H580    1.083   .     S
C552   C566    1.401   .     A
C553   C557    1.392   .     A
C553   Cl591   1.762   .     S
C553   C563    1.408   .     A
C554   Cl592   1.762   .     S
C554   C558    1.392   .     A
C554   C564    1.408   .     A
C555   C559    1.392   .     A
C555   Cl593   1.762   .     S
C555   C564    1.408   .     A
C556   C560    1.392   .     A
C556   C563    1.408   .     A
C556   Cl594   1.762   .     S
C557   H573    1.084   .     S
C557   C561    1.399   .     A
C558   H574    1.084   .     S
C558   C562    1.399   .     A
C559   H575    1.084   .     S
C559   C562    1.399   .     A
C560   H576    1.084   .     S
C560   C561    1.399   .     A
C564   C77     1.465   1_556 S
Cu567  O585    1.965   .     S
Cu567  O587    1.951   .     S
Cu567  O583    1.965   .     S
Cu567  Cu568   2.677   .     S
Cu567  N581    2.012   .     S
Cu567  O589    1.951   .     S
Cu568  O588    1.951   .     S
Cu568  O586    1.965   .     S
Cu568  N582    2.012   .     S
Cu568  O590    1.951   .     S
Cu568  O584    1.965   .     S
C595   O637    1.291   .     A
C595   C620    1.450   .     S
C595   O640    1.291   .     A
C596   C619    1.450   .     S
C596   O638    1.291   .     A
C596   O639    1.291   .     A
C597   O641    1.292   .     A
C597   O644    1.292   .     A
C597   C615    1.456   .     S
C598   C616    1.456   .     S
C598   O643    1.292   .     A
C598   O642    1.292   .     A
C599   H623    1.082   .     S
C599   N636    1.367   .     A
C599   C926    1.417   1_545 S
C600   H624    1.082   .     S
C600   N635    1.367   .     A
C600   C763    1.417   .     S
C601   H625    1.082   .     S
C601   N636    1.367   .     A
C601   C924    1.417   1_545 S
C602   N635    1.367   .     A
C602   H626    1.082   .     S
C602   C761    1.417   .     S
C603   H631    1.083   .     S
C603   C620    1.401   .     A
C604   H632    1.083   .     S
C604   C619    1.401   .     A
C604   C498    1.384   1_655 S
C605   H633    1.083   .     S
C605   C619    1.401   .     A
C605   C495    1.384   1_655 S
C606   H634    1.083   .     S
C606   C620    1.401   .     A
C607   C611    1.392   .     A
C607   Cl645   1.762   .     S
C607   C617    1.408   .     A
C608   Cl646   1.762   .     S
C608   C612    1.392   .     A
C608   C618    1.408   .     A
C609   C613    1.392   .     A
C609   Cl647   1.762   .     S
C609   C618    1.408   .     A
C610   C614    1.392   .     A
C610   C617    1.408   .     A
C610   Cl648   1.762   .     S
C611   H627    1.084   .     S
C611   C615    1.399   .     A
C612   H628    1.084   .     S
C612   C616    1.399   .     A
C613   H629    1.084   .     S
C613   C616    1.399   .     A
C614   H630    1.084   .     S
C614   C615    1.399   .     A
C618   C131    1.465   1_556 S
Cu621  O639    1.965   .     S
Cu621  O641    1.951   .     S
Cu621  O637    1.965   .     S
Cu621  Cu622   2.677   .     S
Cu621  N635    2.012   .     S
Cu621  O643    1.951   .     S
Cu622  O642    1.951   .     S
Cu622  O640    1.965   .     S
Cu622  N636    2.012   .     S
Cu622  O644    1.951   .     S
Cu622  O638    1.965   .     S
C649   O691    1.291   .     A
C649   C674    1.450   .     S
C649   O694    1.291   .     A
C650   C673    1.450   .     S
C650   O692    1.291   .     A
C650   O693    1.291   .     A
C651   O695    1.292   .     A
C651   O698    1.292   .     A
C651   C669    1.456   .     S
C652   C670    1.456   .     S
C652   O697    1.292   .     A
C652   O696    1.292   .     A
C653   H677    1.082   .     S
C653   N690    1.367   .     A
C654   H678    1.082   .     S
C654   N689    1.367   .     A
C654   C817    1.417   .     S
C655   H679    1.082   .     S
C655   N690    1.367   .     A
C656   N689    1.367   .     A
C656   H680    1.082   .     S
C656   C815    1.417   .     S
C657   H685    1.083   .     S
C657   C674    1.401   .     A
C657   C767    1.384   1_455 S
C658   H686    1.083   .     S
C658   C673    1.401   .     A
C658   C714    1.384   .     S
C659   H687    1.083   .     S
C659   C673    1.401   .     A
C659   C711    1.384   .     S
C660   H688    1.083   .     S
C660   C674    1.401   .     A
C660   C766    1.384   1_455 S
C661   C665    1.392   .     A
C661   Cl699   1.762   .     S
C661   C671    1.408   .     A
C662   Cl700   1.762   .     S
C662   C666    1.392   .     A
C662   C672    1.408   .     A
C663   C667    1.392   .     A
C663   Cl701   1.762   .     S
C663   C672    1.408   .     A
C664   C668    1.392   .     A
C664   C671    1.408   .     A
C664   Cl702   1.762   .     S
C665   H681    1.084   .     S
C665   C669    1.399   .     A
C666   H682    1.084   .     S
C666   C670    1.399   .     A
C667   H683    1.084   .     S
C667   C670    1.399   .     A
C668   H684    1.084   .     S
C668   C669    1.399   .     A
C672   C185    1.465   1_556 S
Cu675  O693    1.965   .     S
Cu675  O695    1.951   .     S
Cu675  O691    1.965   .     S
Cu675  Cu676   2.677   .     S
Cu675  N689    2.012   .     S
Cu675  O697    1.951   .     S
Cu676  O696    1.951   .     S
Cu676  O694    1.965   .     S
Cu676  N690    2.012   .     S
Cu676  O698    1.951   .     S
Cu676  O692    1.965   .     S
C703   O745    1.291   .     A
C703   C728    1.450   .     S
C703   O748    1.291   .     A
C704   C727    1.450   .     S
C704   O746    1.291   .     A
C704   O747    1.291   .     A
C705   O749    1.292   .     A
C705   O752    1.292   .     A
C705   C723    1.456   .     S
C706   C724    1.456   .     S
C706   O751    1.292   .     A
C706   O750    1.292   .     A
C707   H731    1.082   .     S
C707   N744    1.367   .     A
C708   H732    1.082   .     S
C708   N743    1.367   .     A
C708   C871    1.417   .     S
C709   H733    1.082   .     S
C709   N744    1.367   .     A
C710   N743    1.367   .     A
C710   H734    1.082   .     S
C710   C869    1.417   .     S
C711   H739    1.083   .     S
C711   C728    1.401   .     A
C712   H740    1.083   .     S
C712   C727    1.401   .     A
C712   C768    1.384   .     S
C713   H741    1.083   .     S
C713   C727    1.401   .     A
C713   C765    1.384   .     S
C714   H742    1.083   .     S
C714   C728    1.401   .     A
C715   C719    1.392   .     A
C715   Cl753   1.762   .     S
C715   C725    1.408   .     A
C716   Cl754   1.762   .     S
C716   C720    1.392   .     A
C716   C726    1.408   .     A
C717   C721    1.392   .     A
C717   Cl755   1.762   .     S
C717   C726    1.408   .     A
C718   C722    1.392   .     A
C718   C725    1.408   .     A
C718   Cl756   1.762   .     S
C719   H735    1.084   .     S
C719   C723    1.399   .     A
C720   H736    1.084   .     S
C720   C724    1.399   .     A
C721   H737    1.084   .     S
C721   C724    1.399   .     A
C722   H738    1.084   .     S
C722   C723    1.399   .     A
C726   C239    1.465   1_556 S
Cu729  O747    1.965   .     S
Cu729  O749    1.951   .     S
Cu729  O745    1.965   .     S
Cu729  Cu730   2.677   .     S
Cu729  N743    2.012   .     S
Cu729  O751    1.951   .     S
Cu730  O750    1.951   .     S
Cu730  O748    1.965   .     S
Cu730  N744    2.012   .     S
Cu730  O752    1.951   .     S
Cu730  O746    1.965   .     S
C757   O799    1.291   .     A
C757   C782    1.450   .     S
C757   O802    1.291   .     A
C758   C781    1.450   .     S
C758   O800    1.291   .     A
C758   O801    1.291   .     A
C759   O803    1.292   .     A
C759   O806    1.292   .     A
C759   C777    1.456   .     S
C760   C778    1.456   .     S
C760   O805    1.292   .     A
C760   O804    1.292   .     A
C761   H785    1.082   .     S
C761   N798    1.367   .     A
C762   H786    1.082   .     S
C762   N797    1.367   .     A
C762   C925    1.417   .     S
C763   H787    1.082   .     S
C763   N798    1.367   .     A
C764   N797    1.367   .     A
C764   H788    1.082   .     S
C764   C923    1.417   .     S
C765   H793    1.083   .     S
C765   C782    1.401   .     A
C766   H794    1.083   .     S
C766   C781    1.401   .     A
C766   C660    1.384   1_655 S
C767   H795    1.083   .     S
C767   C781    1.401   .     A
C767   C657    1.384   1_655 S
C768   H796    1.083   .     S
C768   C782    1.401   .     A
C769   C773    1.392   .     A
C769   Cl807   1.762   .     S
C769   C779    1.408   .     A
C770   Cl808   1.762   .     S
C770   C774    1.392   .     A
C770   C780    1.408   .     A
C771   C775    1.392   .     A
C771   Cl809   1.762   .     S
C771   C780    1.408   .     A
C772   C776    1.392   .     A
C772   C779    1.408   .     A
C772   Cl810   1.762   .     S
C773   H789    1.084   .     S
C773   C777    1.399   .     A
C774   H790    1.084   .     S
C774   C778    1.399   .     A
C775   H791    1.084   .     S
C775   C778    1.399   .     A
C776   H792    1.084   .     S
C776   C777    1.399   .     A
C780   C293    1.465   1_556 S
Cu783  O801    1.965   .     S
Cu783  O803    1.951   .     S
Cu783  O799    1.965   .     S
Cu783  Cu784   2.677   .     S
Cu783  N797    2.012   .     S
Cu783  O805    1.951   .     S
Cu784  O804    1.951   .     S
Cu784  O802    1.965   .     S
Cu784  N798    2.012   .     S
Cu784  O806    1.951   .     S
Cu784  O800    1.965   .     S
C811   O853    1.291   .     A
C811   C836    1.450   .     S
C811   O856    1.291   .     A
C812   C835    1.450   .     S
C812   O854    1.291   .     A
C812   O855    1.291   .     A
C813   O857    1.292   .     A
C813   O860    1.292   .     A
C813   C831    1.456   .     S
C814   C832    1.456   .     S
C814   O859    1.292   .     A
C814   O858    1.292   .     A
C815   H839    1.082   .     S
C815   N852    1.367   .     A
C816   H840    1.082   .     S
C816   N851    1.367   .     A
C816   C493    1.417   1_565 S
C817   H841    1.082   .     S
C817   N852    1.367   .     A
C818   N851    1.367   .     A
C818   H842    1.082   .     S
C818   C491    1.417   1_565 S
C819   H847    1.083   .     S
C819   C836    1.401   .     A
C819   C929    1.384   1_455 S
C820   H848    1.083   .     S
C820   C835    1.401   .     A
C820   C876    1.384   .     S
C821   H849    1.083   .     S
C821   C835    1.401   .     A
C821   C873    1.384   .     S
C822   H850    1.083   .     S
C822   C836    1.401   .     A
C822   C928    1.384   1_455 S
C823   C827    1.392   .     A
C823   Cl861   1.762   .     S
C823   C833    1.408   .     A
C824   Cl862   1.762   .     S
C824   C828    1.392   .     A
C824   C834    1.408   .     A
C825   C829    1.392   .     A
C825   Cl863   1.762   .     S
C825   C834    1.408   .     A
C826   C830    1.392   .     A
C826   C833    1.408   .     A
C826   Cl864   1.762   .     S
C827   H843    1.084   .     S
C827   C831    1.399   .     A
C828   H844    1.084   .     S
C828   C832    1.399   .     A
C829   H845    1.084   .     S
C829   C832    1.399   .     A
C830   H846    1.084   .     S
C830   C831    1.399   .     A
C834   C347    1.465   1_556 S
Cu837  O855    1.965   .     S
Cu837  O857    1.951   .     S
Cu837  O853    1.965   .     S
Cu837  Cu838   2.677   .     S
Cu837  N851    2.012   .     S
Cu837  O859    1.951   .     S
Cu838  O858    1.951   .     S
Cu838  O856    1.965   .     S
Cu838  N852    2.012   .     S
Cu838  O860    1.951   .     S
Cu838  O854    1.965   .     S
C865   O907    1.291   .     A
C865   C890    1.450   .     S
C865   O910    1.291   .     A
C866   C889    1.450   .     S
C866   O908    1.291   .     A
C866   O909    1.291   .     A
C867   O911    1.292   .     A
C867   O914    1.292   .     A
C867   C885    1.456   .     S
C868   C886    1.456   .     S
C868   O913    1.292   .     A
C868   O912    1.292   .     A
C869   H893    1.082   .     S
C869   N906    1.367   .     A
C870   H894    1.082   .     S
C870   N905    1.367   .     A
C870   C547    1.417   1_565 S
C871   H895    1.082   .     S
C871   N906    1.367   .     A
C872   N905    1.367   .     A
C872   H896    1.082   .     S
C872   C545    1.417   1_565 S
C873   H901    1.083   .     S
C873   C890    1.401   .     A
C874   H902    1.083   .     S
C874   C889    1.401   .     A
C874   C930    1.384   .     S
C875   H903    1.083   .     S
C875   C889    1.401   .     A
C875   C927    1.384   .     S
C876   H904    1.083   .     S
C876   C890    1.401   .     A
C877   C881    1.392   .     A
C877   Cl915   1.762   .     S
C877   C887    1.408   .     A
C878   Cl916   1.762   .     S
C878   C882    1.392   .     A
C878   C888    1.408   .     A
C879   C883    1.392   .     A
C879   Cl917   1.762   .     S
C879   C888    1.408   .     A
C880   C884    1.392   .     A
C880   C887    1.408   .     A
C880   Cl918   1.762   .     S
C881   H897    1.084   .     S
C881   C885    1.399   .     A
C882   H898    1.084   .     S
C882   C886    1.399   .     A
C883   H899    1.084   .     S
C883   C886    1.399   .     A
C884   H900    1.084   .     S
C884   C885    1.399   .     A
C888   C401    1.465   1_556 S
Cu891  O909    1.965   .     S
Cu891  O911    1.951   .     S
Cu891  O907    1.965   .     S
Cu891  Cu892   2.677   .     S
Cu891  N905    2.012   .     S
Cu891  O913    1.951   .     S
Cu892  O912    1.951   .     S
Cu892  O910    1.965   .     S
Cu892  N906    2.012   .     S
Cu892  O914    1.951   .     S
Cu892  O908    1.965   .     S
C919   O961    1.291   .     A
C919   C944    1.450   .     S
C919   O964    1.291   .     A
C920   C943    1.450   .     S
C920   O962    1.291   .     A
C920   O963    1.291   .     A
C921   O965    1.292   .     A
C921   O968    1.292   .     A
C921   C939    1.456   .     S
C922   C940    1.456   .     S
C922   O967    1.292   .     A
C922   O966    1.292   .     A
C923   H947    1.082   .     S
C923   N960    1.367   .     A
C924   H948    1.082   .     S
C924   N959    1.367   .     A
C924   C601    1.417   1_565 S
C925   H949    1.082   .     S
C925   N960    1.367   .     A
C926   N959    1.367   .     A
C926   H950    1.082   .     S
C926   C599    1.417   1_565 S
C927   H955    1.083   .     S
C927   C944    1.401   .     A
C928   H956    1.083   .     S
C928   C943    1.401   .     A
C928   C822    1.384   1_655 S
C929   H957    1.083   .     S
C929   C943    1.401   .     A
C929   C819    1.384   1_655 S
C930   H958    1.083   .     S
C930   C944    1.401   .     A
C931   C935    1.392   .     A
C931   Cl969   1.762   .     S
C931   C941    1.408   .     A
C932   Cl970   1.762   .     S
C932   C936    1.392   .     A
C932   C942    1.408   .     A
C933   C937    1.392   .     A
C933   Cl971   1.762   .     S
C933   C942    1.408   .     A
C934   C938    1.392   .     A
C934   C941    1.408   .     A
C934   Cl972   1.762   .     S
C935   H951    1.084   .     S
C935   C939    1.399   .     A
C936   H952    1.084   .     S
C936   C940    1.399   .     A
C937   H953    1.084   .     S
C937   C940    1.399   .     A
C938   H954    1.084   .     S
C938   C939    1.399   .     A
C942   C455    1.465   1_556 S
Cu945  O963    1.965   .     S
Cu945  O965    1.951   .     S
Cu945  O961    1.965   .     S
Cu945  Cu946   2.677   .     S
Cu945  N959    2.012   .     S
Cu945  O967    1.951   .     S
Cu946  O966    1.951   .     S
Cu946  O964    1.965   .     S
Cu946  N960    2.012   .     S
Cu946  O968    1.951   .     S
Cu946  O962    1.965   .     S
